#------------------------------------------------------------------------------
#$Date: 2019-11-22 08:26:23 +0200 (Fri, 22 Nov 2019) $
#$Revision: 231197 $
#$URL: file:///home/coder/svn-repositories/cod/cif/2/10/85/2108548.cif $
#------------------------------------------------------------------------------
#
# This file is available in the Crystallography Open Database (COD),
# http://www.crystallography.net/. The original data for this entry
# were provided by IUCr Journals, http://journals.iucr.org/.
#
# The file may be used within the scientific community so long as
# proper attribution is given to the journal article from which the
# data were obtained.
#
data_2108548
loop_
_publ_author_name
'Udovenko, Anatoly A.'
'Slobodyuk, Arseny B.'
'Emelina, Tatiana B.'
'Laptash, Natalia M.'
_publ_section_title
;
 Fluxional seven-coordinated fluorido- and oxofluoridotantalates
;
_journal_issue                   6
_journal_name_full               'Acta Crystallographica Section B'
_journal_page_first
;
;
_journal_paper_doi               10.1107/S2052520619013465
_journal_volume                  75
_journal_year                    2019
_chemical_formula_moiety         '(F7 Ta),Rb2'
_chemical_formula_sum            'F7 Rb2 Ta'
_chemical_formula_weight         484.89
_chemical_name_common            'rubidium heptafluorotantalate'
_chemical_name_systematic        'rubidium heptafluorotantalate'
_space_group_crystal_system      tetragonal
_space_group_IT_number           129
_space_group_name_Hall           '-P 4a 2a'
_space_group_name_H-M_alt        'P 4/n m m :2'
_atom_sites_solution_primary     direct
_atom_sites_solution_secondary   difmap
_audit_creation_method           SHELXL-2014/7
_cell_angle_alpha                90
_cell_angle_beta                 90
_cell_angle_gamma                90
_cell_formula_units_Z            2
_cell_length_a                   5.9118(3)
_cell_length_b                   5.9118(3)
_cell_length_c                   10.6173(10)
_cell_measurement_reflns_used    512
_cell_measurement_temperature    297(2)
_cell_measurement_theta_max      37.99
_cell_measurement_theta_min      3.84
_cell_volume                     371.07(4)
_computing_cell_refinement       'Bruker SAINT'
_computing_data_collection       'Bruker APEX2'
_computing_data_reduction        'Bruker SAINT'
_computing_molecular_graphics    'Bruker SHELXTL'
_computing_publication_material  'Bruker SHELXTL'
_computing_structure_refinement  'SHELXL-2014/7 (Sheldrick, 2014)'
_computing_structure_solution    'SHELXS-97 (Sheldrick, 2008)'
_diffrn_ambient_temperature      297(2)
_diffrn_detector_area_resol_mean 8.33
_diffrn_measured_fraction_theta_full 0.996
_diffrn_measured_fraction_theta_max 0.997
_diffrn_measurement_device_type  'Bruker P4'
_diffrn_measurement_method       '\w scans'
_diffrn_radiation_type           MoK\a
_diffrn_radiation_wavelength     0.71073
_diffrn_reflns_av_R_equivalents  0.0435
_diffrn_reflns_av_unetI/netI     0.0192
_diffrn_reflns_Laue_measured_fraction_full 0.996
_diffrn_reflns_Laue_measured_fraction_max 0.997
_diffrn_reflns_limit_h_max       8
_diffrn_reflns_limit_h_min       -10
_diffrn_reflns_limit_k_max       10
_diffrn_reflns_limit_k_min       -10
_diffrn_reflns_limit_l_max       18
_diffrn_reflns_limit_l_min       -18
_diffrn_reflns_number            9610
_diffrn_reflns_point_group_measured_fraction_full 0.996
_diffrn_reflns_point_group_measured_fraction_max 0.997
_diffrn_reflns_theta_full        25.242
_diffrn_reflns_theta_max         37.988
_diffrn_reflns_theta_min         3.838
_exptl_absorpt_coefficient_mu    27.898
_exptl_absorpt_correction_T_max  0.1116
_exptl_absorpt_correction_T_min  0.0518
_exptl_absorpt_correction_type   multi-scan
_exptl_absorpt_process_details   'Bruker SADABS'
_exptl_crystal_colour            colorless
_exptl_crystal_density_diffrn    4.340
_exptl_crystal_description       Prism
_exptl_crystal_F_000             420
_exptl_crystal_size_max          0.260
_exptl_crystal_size_mid          0.140
_exptl_crystal_size_min          0.140
_refine_diff_density_max         1.512
_refine_diff_density_min         -1.889
_refine_diff_density_rms         0.238
_refine_ls_extinction_coef       0.0205(13)
_refine_ls_extinction_expression Fc^*^=kFc[1+0.001xFc^2^\l^3^/sin(2\q)]^-1/4^
_refine_ls_extinction_method     'SHELXL-2014/7 (Sheldrick 2014'
_refine_ls_goodness_of_fit_ref   1.177
_refine_ls_matrix_type           full
_refine_ls_number_parameters     28
_refine_ls_number_reflns         638
_refine_ls_number_restraints     0
_refine_ls_restrained_S_all      1.177
_refine_ls_R_factor_all          0.0294
_refine_ls_R_factor_gt           0.0227
_refine_ls_shift/su_max          0.000
_refine_ls_shift/su_mean         0.000
_refine_ls_structure_factor_coef Fsqd
_refine_ls_weighting_details
'w=1/[\s^2^(Fo^2^)+(0.0244P)^2^+0.6642P] where P=(Fo^2^+2Fc^2^)/3'
_refine_ls_weighting_scheme      calc
_refine_ls_wR_factor_gt          0.0529
_refine_ls_wR_factor_ref         0.0576
_reflns_Friedel_coverage         0.000
_reflns_number_gt                562
_reflns_number_total             638
_reflns_threshold_expression     'I > 2\s(I)'
_cod_data_source_file            wf5151sup1.cif
_cod_data_source_block           II-RT
_cod_original_cell_volume        371.07(5)
_cod_original_sg_symbol_H-M      'P 4/n m m'
_cod_database_code               2108548
_shelx_space_group_comment
; 
The symmetry employed for this shelxl refinement is uniquely defined 
by the following loop, which should always be used as a source of 
symmetry information in preference to the above space-group names. 
They are only intended as comments. 
;
_shelx_estimated_absorpt_t_min   0.052
_shelx_estimated_absorpt_t_max   0.112
_shelx_res_file
; 
  
    f129.res created by SHELXL-2014/7 
  
TITL F129 in P4/nmm 
CELL 0.71073   5.9118   5.9118  10.6173  90.000  90.000  90.000 
ZERR    2.00   0.0003   0.0003   0.0010   0.000   0.000   0.000 
LATT 1 
SYMM 0.5-X, 0.5-Y, Z 
SYMM 0.5-Y, X, Z 
SYMM Y, 0.5-X, Z 
SYMM -X, 0.5+Y, -Z 
SYMM 0.5+X, -Y, -Z 
SYMM 0.5+Y, 0.5+X, -Z 
SYMM -Y, -X, -Z 
SFAC Rb F  Ta 
UNIT 4 14 2 
L.S. 5 
ACTA 
BOND 
FMAP 2 
PLAN 3 
CONN 20 1.8 F1 F2 F3 F4 Ta1 Rb1 Rb2 
SIZE 0.26 0.14 0.14 
TEMP 24 
WGHT    0.024400    0.664200 
EXTI    0.020456 
FVAR       0.17179 
TA1   3    0.250000    0.250000    0.254828    10.12500    0.02581    0.02581 = 
         0.02066    0.00000    0.00000    0.00000 
RB1   1    0.250000    0.750000    0.500000    10.12500    0.02938    0.02938 = 
         0.02945    0.00000    0.00000    0.00000 
RB2   1    0.250000    0.250000    0.863083    10.12500    0.05204    0.05204 = 
         0.02338    0.00000    0.00000    0.00000 
F1    2    0.250000    0.250000    0.444389    10.12500    0.04610    0.04610 = 
         0.02132    0.00000    0.00000    0.00000 
F2    2    0.024290    0.475710    0.299112    10.50000    0.04470    0.04470 = 
         0.06597    0.00046   -0.00046    0.01825 
F3    2    0.204247    0.446599    0.109643    10.25000    0.12597    0.05234 = 
         0.02366    0.01401    0.00718    0.03538 
HKLF 4 
  
REM  F129 in P4/nmm 
REM R1 =  0.0227 for     562 Fo > 4sig(Fo)  and  0.0294 for all     638 data 
REM     28 parameters refined using      0 restraints 
  
END 
  
WGHT      0.0243      0.6648 
  
REM Highest difference peak  1.512,  deepest hole -1.889,  1-sigma level  0.238 
Q1    1   0.2500  0.1263  0.2553  10.50000  0.05    1.51 
Q2    1   0.3360  0.1640  0.2458  10.50000  0.05    1.27 
Q3    1   0.2500  0.1538  0.8828  10.50000  0.05    0.91 
;
_shelx_res_checksum              41140
_shelx_hkl_file
; 
  -1   0   0    3.13    0.19 
   0   1   0    3.31    0.20 
   1   1   0  444.85   24.13 
  -1   1   0  476.75   24.14 
  -1  -1   0  457.43   23.50 
  -1   1   0  506.52   23.32 
  -1   1   0  475.65   23.56 
  -2  -1   0    1.77    0.17 
  -2  -1   0    1.94    0.23 
   0   2   0  685.34   34.81 
  -2   0   0  656.94   33.92 
  -2   0   0  736.89   33.63 
   0  -2   0  645.31   33.89 
   1   2   0    1.97    0.20 
   2  -1   0    2.00    0.21 
  -1  -2   0    2.53    0.24 
  -2   1   0    2.33    0.19 
  -2   2   0 1000.00   46.65 
  -2   2   0  989.42   47.84 
   2   2   0  886.58   47.80 
  -2  -2   0  867.99   46.55 
   3   2   0    0.33    0.12 
  -2   3   0    0.19    0.12 
  -2   3   0    0.33    0.20 
  -2   3   0    0.37    0.15 
  -3  -2   0    0.09    0.10 
  -3  -2   0    0.42    0.20 
  -1   3   0  234.85   11.77 
  -3  -1   0  244.44   11.51 
  -1   3   0  245.30   11.35 
   3   1   0  217.77   11.71 
   1  -3   0  212.35   11.48 
  -3  -1   0  217.49   11.33 
   3   0   0    0.77    0.15 
  -3   0   0    0.80    0.25 
   0   3   0    0.70    0.15 
   0  -3   0    0.72    0.18 
   0  -3   0    0.75    0.18 
  -3   0   0    0.34    0.12 
   3  -1   0  255.15   12.37 
  -3   1   0  234.73   12.60 
   1   3   0  228.90   12.31 
  -3   1   0  232.32   11.89 
  -1  -3   0  247.15   12.03 
  -3   2   0    0.17    0.13 
  -3   2   0    0.11    0.23 
  -2  -3   0    0.40    0.09 
   3  -2   0    0.62    0.18 
   2   3   0    0.41    0.14 
  -2  -3   0    0.38    0.22 
   3   3   0  157.54    7.80 
  -3  -3   0  154.05    6.74 
  -3  -3   0  143.74    7.67 
  -3  -3   0  155.62    7.49 
  -3   3   0  150.99    7.54 
  -3   3   0  141.40    7.82 
  -3   3   0  152.07    7.70 
  -3   4   0    0.16    0.18 
  -4  -3   0    0.21    0.25 
  -3   4   0   -0.05    0.17 
  -3   4   0   -0.08    0.20 
  -3   4   0    0.15    0.20 
  -4  -3   0   -0.17    0.25 
  -3   4   0    0.21    0.26 
  -2   4   0  349.58   17.65 
  -2   4   0  328.88   18.30 
  -2   4   0  366.70   16.36 
  -4  -2   0  353.24   15.72 
  -4  -2   0  362.77   17.90 
  -4  -2   0  364.38   17.64 
   2  -4   0  367.07   17.88 
  -1   4   0   -0.08    0.14 
  -1   4   0    0.14    0.16 
  -4  -1   0    0.11    0.14 
  -1   4   0    0.23    0.17 
  -4  -1   0    0.15    0.24 
   1  -4   0    0.48    0.22 
   0   4   0  635.30   29.24 
  -4   0   0  667.77   32.06 
   0   4   0  652.33   32.76 
   0  -4   0  603.16   31.89 
  -1  -4   0    0.01    0.19 
  -4   1   0    0.11    0.15 
   1   4   0    0.20    0.16 
   1   4   0    0.06    0.16 
  -4   1   0    0.16    0.15 
  -4   1   0    0.84    0.77 
  -1  -4   0    1.05    0.26 
  -2  -4   0  391.16   16.29 
  -2  -4   0  369.33   18.52 
  -4   2   0  348.51   18.16 
  -4   2   0  373.57   18.71 
  -4   2   0  373.89   18.32 
   2   4   0  371.15   16.94 
   2   4   0  357.39   18.96 
  -4   3   0   -0.02    0.27 
   4  -3   0    1.84    0.32 
  -3  -4   0    0.02    0.25 
  -4   3   0   -0.18    0.16 
   3   4   0    0.05    0.17 
  -4   3   0    0.09    0.19 
   3   4   0    0.29    0.18 
  -3  -4   0   -0.02    0.22 
   4  -4   0  283.40   14.87 
  -4   4   0  290.78   14.52 
  -4  -4   0  278.57   14.54 
  -4  -4   0  287.59   12.78 
  -4   4   0  292.39   14.21 
  -4   4   0  286.19   13.28 
  -4   4   0  290.21   14.33 
   4   4   0  289.60   14.80 
   4  -5   0    0.16    0.29 
  -4   5   0   -0.10    0.24 
  -5  -4   0    0.23    0.34 
  -4   5   0   -0.23    0.24 
  -5  -4   0   -0.42    0.35 
  -4   5   0    0.49    0.32 
  -5  -3   0   64.95    3.12 
  -5  -3   0   68.19    3.56 
  -3   5   0   64.43    3.38 
  -3   5   0   64.78    3.53 
  -3   5   0   63.51    3.16 
   3  -5   0   60.42    3.45 
  -3   5   0   67.30    3.05 
   2  -5   0   -0.16    0.23 
  -5  -2   0    0.01    0.18 
  -2   5   0   -0.23    0.21 
  -5  -2   0   -0.46    0.27 
  -5  -2   0   -0.09    0.27 
  -2   5   0   -0.21    0.18 
  -2   5   0    0.03    0.21 
  -5  -2   0   -0.01    0.16 
  -1   5   0  103.59    5.79 
   1  -5   0  111.66    5.68 
  -1   5   0  116.14    5.01 
  -5  -1   0  106.49    5.56 
  -5  -1   0  111.33    5.79 
  -1   5   0  112.24    5.19 
  -5  -1   0  107.22    5.52 
  -5  -1   0  112.92    5.10 
   0   5   0   -0.06    0.19 
  -5   0   0   -0.05    0.36 
   0  -5   0    0.15    0.24 
   0  -5   0    0.05    0.20 
  -5   0   0    0.14    0.18 
  -5   0   0    0.08    0.37 
   0   5   0    0.51    0.21 
  -5   0   0    0.05    0.17 
  -5   1   0  110.06    5.61 
  -5   1   0  116.33    5.57 
   1   5   0  105.81    5.81 
  -5   1   0  107.53    6.42 
  -1  -5   0  110.17    5.70 
   1   5   0  111.08    5.20 
  -1  -5   0  113.51    5.03 
  -5   2   0   -0.23    0.41 
   2   5   0   -0.01    0.20 
  -2  -5   0    0.56    0.31 
   2   5   0   -0.04    0.19 
  -5   2   0    0.12    0.21 
  -2  -5   0    0.54    0.28 
  -5   2   0   -0.02    0.19 
  -3  -5   0   68.92    3.09 
  -5   3   0   65.53    3.38 
   3   5   0   65.86    3.12 
  -5   3   0   63.32    3.35 
  -3  -5   0   65.26    3.50 
   3   5   0   59.00    3.47 
   4   5   0   -0.18    0.21 
  -5   4   0   -0.04    0.25 
  -4  -5   0   -1.02    0.30 
  -4  -5   0    0.20    0.38 
  -5   4   0    0.30    0.26 
  -5   5   0   28.99    1.81 
  -5  -5   0   33.61    2.01 
  -5  -5   0   32.87    1.79 
  -5   5   0   31.48    1.84 
  -6  -5   0    0.28    0.52 
  -6  -5   0    0.17    0.52 
   4  -6   0   92.68    4.81 
  -4   6   0   82.00    4.28 
  -6  -4   0   85.28    4.22 
  -6  -4   0   90.20    4.82 
  -3   6   0   -0.22    0.28 
  -6  -3   0    0.45    0.42 
  -3   6   0   -0.36    0.27 
  -6  -3   0   -0.18    0.42 
  -2   6   0  174.03    9.68 
  -6  -2   0  174.79    9.59 
  -6  -2   0  191.21    8.46 
  -6  -2   0  189.20    9.24 
  -2   6   0  191.17    8.33 
  -6  -2   0  176.12    9.29 
   2  -6   0  194.39    9.48 
  -2   6   0  192.00    8.67 
  -6  -1   0   -0.17    0.39 
  -1   6   0    0.39    0.29 
  -1   6   0    0.25    0.29 
  -1   6   0    0.31    0.25 
   1  -6   0    0.32    0.31 
  -6  -1   0    0.17    0.22 
  -6  -1   0    0.33    0.23 
  -6  -1   0   -0.03    0.36 
  -6   0   0  177.59    8.98 
  -6   0   0  181.70    9.47 
   0   6   0  179.10    9.33 
   0  -6   0  171.65    8.01 
  -6   0   0  179.14    8.91 
  -6   0   0  181.19    8.32 
   0  -6   0  176.58    9.11 
   0   6   0  180.69    8.33 
  -6   1   0   -0.04    0.22 
   1   6   0    0.09    0.25 
  -1  -6   0   -0.13    0.27 
   1   6   0   -0.22    0.23 
  -6   1   0    0.08    0.23 
  -1  -6   0    0.04    0.28 
   2   6   0  177.73    8.45 
   2   6   0  177.22    9.45 
  -6   2   0  199.17    9.08 
  -2  -6   0  167.62    8.14 
  -6   2   0  180.39    9.13 
  -2  -6   0  184.39    9.30 
   3   6   0   -0.51    0.23 
  -6   3   0    0.06    0.26 
  -3  -6   0    0.03    0.35 
  -3  -6   0    0.06    0.36 
   3   6   0   -0.19    0.27 
  -6   3   0    0.02    0.25 
  -6   4   0   81.35    4.56 
  -6   4   0   93.66    4.63 
  -4  -6   0   90.22    4.81 
  -4  -6   0   87.58    4.23 
  -5  -6   0   -0.32    0.48 
  -5  -6   0   -0.69    0.44 
  -6   5   0   -0.01    0.34 
  -6   5   0   -0.02    0.33 
  -6  -6   0   38.03    2.46 
  -6  -6   0   37.46    2.19 
  -7  -6   0    0.38    0.66 
  -7  -5   0    5.96    0.89 
  -7  -5   0    8.39    1.15 
  -7  -4   0   -0.11    0.50 
  -4   7   0   -0.31    0.41 
  -7  -4   0   -0.60    0.51 
  -3   7   0   19.76    1.28 
  -7  -3   0   20.35    1.56 
  -7  -3   0   22.08    1.45 
  -3   7   0   19.20    1.39 
   2  -7   0    0.09    0.29 
  -7  -2   0   -0.28    0.25 
  -2   7   0    0.02    0.33 
  -2   7   0   -0.11    0.32 
  -7  -2   0   -0.52    0.47 
  -2   7   0   -0.15    0.31 
  -7  -2   0   -0.16    0.26 
  -7  -2   0    0.38    0.54 
   1  -7   0   26.83    1.43 
  -7  -1   0   24.72    1.50 
  -7  -1   0   26.78    1.52 
   1  -7   0   25.70    1.60 
  -1   7   0   25.10    1.44 
  -1   7   0   25.15    1.61 
  -7   0   0   -0.02    0.28 
   0  -7   0   -0.39    0.28 
   0   7   0   -0.27    0.28 
   0  -7   0   -0.23    0.31 
   0   7   0    0.31    0.30 
  -7   0   0   -0.01    0.27 
   1   7   0   27.69    1.50 
  -7   1   0   27.56    1.58 
  -7   1   0   25.57    1.57 
   1   7   0   26.54    1.65 
  -1  -7   0   26.56    1.47 
  -1  -7   0   25.56    1.65 
   2   7   0    0.15    0.34 
   2   7   0   -0.08    0.32 
  -7   2   0    0.14    0.31 
  -2  -7   0   -0.06    0.41 
  -7   2   0   -0.26    0.27 
  -2  -7   0   -0.12    0.34 
  -3  -7   0   18.29    1.24 
   3   7   0   20.30    1.18 
  -7   3   0   17.27    1.23 
   3   7   0   19.52    1.28 
  -3  -7   0   21.13    1.40 
  -7   3   0   17.16    1.22 
  -4  -7   0   -0.24    0.50 
  -7   4   0    0.05    0.36 
  -4  -7   0   -0.25    0.49 
  -7   4   0   -0.25    0.32 
  -5  -7   0    9.89    1.03 
  -7   5   0    7.97    0.84 
  -7   5   0    8.27    0.87 
  -7   6   0   -0.39    0.47 
  -6  -7   0   -0.25    0.62 
  -7  -7   0    3.89    0.96 
  -8  -6   0   10.96    1.31 
  -8  -5   0   -0.71    0.63 
  -4   8   0   23.79    1.64 
  -8  -4   0   28.99    1.88 
  -3   8   0    0.53    0.47 
  -3   8   0   -0.14    0.41 
  -8  -3   0   -0.38    0.58 
  -2   8   0   42.40    2.21 
  -2   8   0   37.83    2.42 
   1  -8   0    0.02    0.39 
  -8  -1   0   -0.20    0.32 
  -1   8   0    0.32    0.41 
  -1   8   0    0.14    0.38 
   1  -8   0   -0.13    0.35 
  -8  -1   0    0.13    0.37 
   0   8   0   53.74    2.80 
   0  -8   0   58.81    3.11 
   0  -8   0   55.37    2.74 
  -8   0   0   55.49    2.97 
   0   8   0   47.14    3.09 
  -8   0   0   55.66    2.98 
  -1  -8   0    0.71    0.49 
   1   8   0   -0.45    0.33 
  -1  -8   0    0.35    0.43 
  -8   1   0    0.28    0.37 
  -8   1   0   -0.38    0.31 
   1   8   0   -0.08    0.34 
  -2  -8   0   41.86    2.20 
   2   8   0   43.76    2.21 
  -8   2   0   34.86    2.29 
  -2  -8   0   40.13    2.49 
  -8   2   0   41.60    2.34 
   2   8   0   42.08    2.45 
  -8   3   0    0.13    0.40 
   3   8   0   -0.05    0.39 
  -3  -8   0    0.40    0.49 
   3   8   0    0.22    0.43 
  -3  -8   0   -0.16    0.53 
  -4  -8   0   26.82    1.72 
  -8   4   0   27.68    1.75 
  -8   5   0    0.19    0.47 
  -5  -8   0   -0.76    0.58 
  -6  -8   0   13.35    1.36 
  -8   6   0   13.89    1.23 
  -4   9   0   -0.75    0.55 
  -3   9   0    5.53    0.81 
  -2   9   0    0.14    0.52 
  -1   9   0    7.65    0.83 
  -9  -1   0    8.51    0.85 
   0   9   0   -0.26    0.41 
  -9   0   0   -0.36    0.42 
   0  -9   0   -0.05    0.46 
  -9   1   0    7.25    0.81 
  -1  -9   0    6.34    0.81 
   1   9   0    6.41    0.74 
  -9   2   0   -0.10    0.44 
   2   9   0    0.07    0.47 
  -2  -9   0   -0.24    0.50 
   3   9   0    5.10    0.70 
  -9   3   0    4.45    0.73 
  -3  -9   0    4.24    0.78 
  -9   4   0   -0.39    0.49 
  -4  -9   0   -0.16    0.58 
  -2  10   0   10.37    1.08 
 -10  -1   0   -0.27    0.47 
  -1  10   0    0.04    0.50 
   0 -10   0   13.51    1.14 
   0  10   0   12.05    1.09 
 -10   0   0   12.01    1.11 
 -10   1   0   -0.14    0.50 
   1  10   0   -0.01    0.48 
  -1 -10   0   -0.59    0.54 
   2  10   0   11.95    1.08 
  -2 -10   0   11.60    1.14 
 -10   2   0   10.59    1.11 
  -1   0   1  305.06   15.04 
  -1   0   1  295.38   14.86 
  -1   0  -1  298.80   14.86 
   0  -1   1  313.18   14.98 
   0   1   1  317.60   15.39 
   0   1  -1  291.63   15.38 
   0   1   1  275.00   14.99 
   1   0   1  309.26   15.67 
   1   1   1  209.57   11.48 
  -1  -1   1  213.54   11.18 
  -1   1   1  228.44   11.32 
  -1   1  -1  238.45   11.09 
  -1   1   1  235.28   11.10 
  -1   1   1  223.97   11.47 
   1  -1   1  224.74   11.49 
  -1  -1  -1  222.07   11.18 
   1   1  -1  220.70   11.47 
  -2  -1   1  140.39    6.69 
  -1   2  -1  128.90    6.82 
  -2  -1   1  126.35    6.56 
  -1   2   1  143.27    6.82 
  -2  -1  -1  128.51    6.57 
   1  -2   1  124.89    6.63 
  -1   2   1  133.82    6.59 
   2   1  -1  126.45    6.78 
  -1   2   1  133.18    6.73 
  -1   2  -1  122.83    6.56 
  -2  -1  -1  138.86    6.66 
   2   1   1  140.48    6.83 
   2   0   1   17.99    1.14 
  -2   0  -1   14.72    0.88 
  -2   0  -1   17.36    0.93 
  -2   0   1   18.66    1.02 
  -2   0   1   15.52    0.88 
   0   2   1   15.51    0.92 
   0   2  -1   15.22    0.91 
   0  -2  -1   17.33    0.96 
   0  -2   1   15.63    0.90 
   0  -2  -1   18.77    0.96 
  -2   1  -1  129.00    6.68 
  -1  -2   1  128.82    6.75 
  -2   1   1  133.79    6.89 
  -2   1  -1  129.15    6.84 
  -1  -2  -1  140.04    6.78 
  -1  -2  -1  138.92    6.68 
  -2   1   1  134.60    6.68 
   1   2   1  131.13    6.92 
  -2   1   1  139.35    7.24 
   1   2  -1  138.34    6.92 
   2   2   1   75.75    3.86 
  -2   2   1   76.44    3.85 
  -2  -2  -1   78.15    3.80 
   2  -2   1   75.37    3.88 
  -2   2   1   75.17    3.92 
  -2   2  -1   73.10    3.78 
  -2   2  -1   73.07    3.72 
  -2  -2   1   74.08    3.80 
  -2   2   1   67.25    3.73 
  -2  -2   1   76.61    3.69 
  -2  -2  -1   69.08    3.70 
   2   2  -1   74.90    3.84 
  -3  -2  -1  156.69    7.99 
  -2   3   1  162.66    8.06 
  -3  -2   1  154.34    7.84 
  -2   3   1  155.02    8.15 
  -2   3  -1  160.52    8.18 
  -3  -2  -1  152.23    7.85 
  -3  -2   1  160.04    8.01 
   3   2   1  159.91    8.14 
  -2   3  -1  154.90    7.95 
  -2   3   1  156.20    7.88 
  -2   3  -1  157.88    7.86 
   3   2  -1  163.35    8.12 
  -3  -1  -1   83.23    4.16 
  -1   3   1   77.77    4.23 
  -3  -1   1   84.20    4.07 
  -1   3  -1   82.49    4.05 
   3   1  -1   82.73    4.17 
   1  -3   1   79.76    4.13 
  -1   3   1   85.55    4.21 
  -1   3   1   74.00    4.08 
  -3  -1  -1   80.90    4.07 
   3   1   1   81.47    4.21 
  -3  -1   1   78.87    4.19 
   0  -3  -1   78.99    4.25 
  -3   0  -1   84.10    4.16 
  -3   0   1   82.68    4.34 
   0  -3   1   78.39    4.20 
   3   0   1   79.63    4.38 
   0  -3  -1   78.98    4.24 
   0   3   1   84.57    4.32 
  -3   0  -1   90.09    4.28 
  -3   0   1   86.86    4.16 
  -3   1   1   89.52    4.24 
   1   3  -1   82.21    4.38 
  -3   1   1   83.80    4.88 
   3  -1   1   81.99    4.49 
  -3   1  -1   85.68    4.23 
  -3   1  -1   78.04    4.64 
  -1  -3   1   85.52    4.29 
   1   3   1   87.14    4.39 
  -1  -3  -1   82.39    4.31 
  -1  -3  -1   83.97    4.21 
  -3   2  -1  147.66    7.54 
  -3   2  -1  138.69    7.66 
   2   3  -1  154.74    7.80 
  -2  -3   1  151.22    7.48 
  -3   2   1  141.22    7.84 
  -2  -3   1  154.95    7.66 
  -2  -3  -1  161.59    7.67 
   3  -2   1  158.05    7.87 
  -2  -3  -1  151.61    7.50 
  -3   2   1  143.88    7.79 
   2   3   1  158.88    7.83 
  -3   3   1   43.43    2.36 
   3   3   1   43.89    2.42 
  -3  -3  -1   44.52    2.14 
  -3   3   1   41.12    2.50 
   3  -3   1   44.40    2.47 
  -3  -3   1   47.56    2.46 
  -3  -3  -1   42.85    2.30 
  -3  -3   1   48.26    2.16 
  -3  -3  -1   47.78    2.45 
  -3   3  -1   45.17    2.41 
  -3   3  -1   47.60    2.35 
   3   3  -1   45.77    2.41 
  -3   4  -1   55.33    2.69 
  -3   4  -1   51.78    2.85 
  -3   4   1   54.73    3.03 
  -3   4  -1   56.97    2.84 
  -3   4   1   58.04    2.67 
  -3   4   1   54.70    2.99 
  -4  -3  -1   56.18    2.83 
  -4  -3  -1   51.62    2.98 
  -3   4   1   57.92    2.68 
   4   3   1   53.10    2.94 
  -3   4  -1   56.70    2.93 
  -4  -3   1   55.14    2.64 
  -3   4   1   51.60    2.87 
  -4  -3  -1   57.24    2.63 
  -3   4   1   51.97    2.84 
  -4  -3   1   57.62    3.01 
   3  -4   1   58.49    3.02 
  -2   4  -1    8.75    0.64 
  -4  -2   1    8.78    0.66 
  -2   4  -1    8.30    0.56 
  -4  -2   1    8.52    0.56 
  -4  -2  -1    9.96    0.64 
  -4  -2  -1    8.81    0.69 
  -2   4   1    9.67    0.63 
   4   2   1    9.28    0.58 
  -2   4  -1    8.84    0.59 
  -2   4   1    7.55    0.60 
  -2   4   1    9.53    0.73 
  -4  -2  -1    8.48    0.56 
   2  -4   1   10.03    0.64 
  -4  -2   1    9.25    0.73 
  -2   4   1    9.13    0.58 
  -4  -1  -1  117.14    6.00 
   1  -4   1  115.89    6.07 
   1  -4  -1  128.51    6.17 
  -4  -1  -1  114.00    6.14 
  -4  -1   1  122.23    6.19 
  -1   4  -1  128.32    6.26 
  -1   4  -1  116.30    5.97 
   4   1   1  120.21    6.19 
  -4  -1   1  116.50    6.00 
  -1   4  -1  117.14    5.57 
   0  -4   1   24.00    1.31 
  -4   0   1   22.75    1.50 
  -4   0  -1   25.17    1.44 
   0   4  -1   22.63    1.32 
   0   4   1   22.04    1.32 
  -4   0  -1   22.92    1.26 
   0  -4  -1   23.53    1.35 
   0   4   1   23.28    1.19 
  -4   0   1   23.44    1.26 
   0   4  -1   21.44    1.18 
  -4   1   1  122.08    6.59 
   1   4  -1  122.98    6.05 
  -4   1   1  113.16    5.78 
  -1  -4  -1  122.93    5.24 
  -4   1   1  118.34    5.84 
  -4   1  -1  121.34    5.79 
   1   4   1  105.61    6.03 
  -1  -4   1  118.26    5.92 
  -1  -4  -1  119.45    5.95 
   1   4  -1  119.24    5.40 
   4  -1   1  109.17    6.45 
  -1  -4   1  113.52    5.20 
  -4   1  -1  122.10    5.84 
  -4   1  -1   99.67    6.27 
   1   4   1  110.89    5.40 
   2   4   1    8.03    0.63 
  -2  -4  -1   10.75    0.73 
  -4   2   1   11.23    1.06 
   2   4  -1    8.99    0.57 
   2   4   1    9.02    0.59 
   4  -2   1   10.00    0.78 
  -4   2   1    8.94    0.63 
   2   4  -1    9.69    0.64 
  -4   2  -1    9.23    0.61 
  -4   2   1    8.94    0.62 
  -2  -4  -1    9.94    0.65 
  -2  -4   1    8.31    0.68 
  -4   2  -1    9.55    0.77 
  -4   2  -1    8.74    0.61 
  -2  -4   1    8.71    0.62 
   3   4  -1   55.16    2.98 
  -3  -4  -1   54.82    2.65 
  -4   3  -1   58.73    2.89 
  -3  -4   1   58.06    2.64 
  -4   3   1   51.42    3.09 
  -4   3   1   57.00    2.76 
   3   4   1   53.39    2.67 
   3   4   1   54.91    3.00 
   3   4  -1   56.61    2.66 
  -4   3   1   55.49    2.88 
  -4   3   1   54.69    2.91 
  -3  -4   1   50.14    2.98 
   4  -3   1   55.27    3.07 
  -3  -4  -1   64.42    3.05 
  -4   3  -1   55.60    2.90 
  -4  -4  -1    9.46    0.70 
  -4   4  -1    8.89    0.65 
  -4   4  -1    8.66    0.63 
  -4  -4  -1    9.75    0.80 
   4  -4   1    9.12    0.73 
  -4  -4   1    8.60    0.70 
   4   4   1    8.72    0.64 
  -4   4   1    9.09    0.73 
  -4   4   1    8.78    0.68 
  -4   4  -1    8.72    0.68 
  -4   4   1    8.45    0.69 
  -4   4   1    7.72    0.66 
  -4  -4   1    9.65    0.76 
  -4   4   1    8.64    0.80 
  -4   5  -1   54.54    2.86 
  -5  -4   1   49.56    3.00 
   4  -5   1   57.94    3.05 
  -4   5  -1   53.49    2.71 
  -4   5  -1   54.39    2.84 
  -5  -4  -1   52.69    2.66 
  -4   5   1   52.01    2.87 
  -4   5   1   57.80    2.70 
  -4   5   1   46.70    2.82 
  -4   5   1   55.05    3.01 
  -5  -4   1   57.24    2.68 
  -5  -4  -1   52.16    3.01 
  -4   5   1   52.46    2.98 
  -5  -3  -1   22.53    1.30 
  -5  -3   1   25.04    1.51 
  -3   5   1   25.19    1.31 
  -3   5   1   21.71    1.34 
  -5  -3  -1   21.26    1.45 
  -3   5  -1   22.50    1.29 
  -3   5   1   22.22    1.40 
  -3   5   1   21.66    1.45 
  -5  -3   1   24.16    1.35 
  -3   5   1   23.95    1.27 
  -3   5   1   21.92    1.35 
  -3   5  -1   24.34    1.44 
  -2   5   1   42.67    2.50 
  -2   5   1   46.32    2.24 
  -5  -2   1   48.76    2.60 
  -5  -2  -1   45.99    2.26 
  -2   5  -1   45.25    2.16 
  -5  -2   1   43.57    2.37 
  -5  -2  -1   47.14    2.57 
  -5  -2  -1   43.92    2.37 
  -2   5   1   43.26    2.25 
   2  -5  -1   46.34    2.54 
  -5  -2   1   45.00    2.28 
  -2   5  -1   49.87    2.55 
  -2   5  -1   44.42    2.26 
  -5  -2   1   44.06    2.36 
   2  -5   1   49.11    2.47 
  -5  -2  -1   41.91    2.38 
  -5  -1  -1   34.30    2.10 
  -5  -1   1   36.86    1.94 
  -1   5  -1   36.23    1.76 
  -1   5   1   35.79    1.83 
   1  -5   1   38.15    2.00 
  -5  -1  -1   37.15    1.87 
  -5  -1  -1   35.26    1.94 
  -5  -1  -1   35.45    1.93 
  -5  -1   1   36.04    1.93 
  -1   5  -1   36.67    1.83 
  -1   5  -1   35.71    2.04 
   1  -5  -1   36.96    2.08 
  -1   5   1   32.55    2.03 
  -5  -1   1   40.04    2.19 
  -5  -1   1   38.02    1.93 
   0   5   1  120.21    5.17 
   0   5   1  113.52    5.77 
  -5   0  -1   99.37    5.53 
   0  -5  -1  117.37    5.69 
  -5   0  -1  110.79    5.84 
   0   5  -1   99.03    5.13 
  -5   0   1  115.79    5.55 
  -5   0   1  106.93    5.50 
   0   5  -1  107.65    5.76 
   0  -5   1  105.69    4.95 
   0   5   1  110.45    5.00 
  -5   0   1  109.80    5.89 
   0  -5   1  108.04    5.62 
  -5   0  -1  107.12    5.50 
  -5   0   1  110.72    5.19 
  -1  -5   1   34.51    1.75 
  -5   1  -1   36.62    1.92 
  -5   1  -1   32.26    2.46 
   1   5   1   34.90    1.80 
  -5   1   1   36.52    1.92 
  -1  -5  -1   37.97    1.80 
  -5   1   1   34.60    1.92 
  -1  -5   1   35.93    1.98 
   1   5  -1   37.57    1.80 
  -5   1   1   33.57    2.34 
  -1  -5  -1   35.67    2.02 
   1   5   1   37.85    2.03 
   1   5  -1   35.39    2.00 
  -5   1   1   36.63    2.71 
   2   5  -1   44.25    2.21 
  -5   2   1   51.24    2.40 
   2   5  -1   41.56    2.46 
  -5   2   1   45.89    2.40 
   2   5   1   42.24    2.48 
  -5   2   1   45.01    2.57 
  -2  -5   1   46.93    2.20 
  -5   2  -1   43.58    2.39 
  -2  -5  -1   45.30    2.21 
  -2  -5  -1   42.80    2.49 
   2   5   1   44.27    2.23 
  -5   2   1   44.82    2.88 
  -5   2  -1   43.37    2.38 
  -2  -5   1   49.45    2.51 
  -3  -5   1   23.47    1.44 
  -5   3   1   20.41    1.32 
  -5   3  -1   21.28    1.31 
  -5   3   1   26.17    1.36 
  -3  -5  -1   22.83    1.46 
  -3  -5   1   23.64    1.27 
   3   5  -1   22.58    1.34 
  -5   3   1   23.67    1.42 
  -5   3   1   20.62    1.54 
  -3  -5  -1   25.98    1.33 
   3   5   1   21.55    1.23 
   3   5  -1   22.11    1.21 
   3   5   1   21.20    1.35 
  -5   3  -1   22.79    1.33 
  -5   4  -1   53.23    2.87 
  -4  -5   1   53.07    2.67 
  -4  -5   1   58.75    3.06 
  -4  -5  -1   57.38    2.70 
  -4  -5  -1   52.90    3.06 
   4   5   1   53.11    2.97 
  -5   4  -1   52.72    2.89 
  -5   4   1   53.30    2.91 
  -5   4   1   53.34    2.89 
   4   5   1   55.54    2.67 
  -5  -5  -1    7.17    0.79 
  -5  -5   1    8.99    0.86 
  -5   5   1    8.08    0.73 
  -5  -5   1    9.21    0.84 
  -5   5  -1    7.77    0.71 
  -5  -5  -1    8.10    0.91 
  -5   5  -1    7.71    0.72 
  -5   5   1    9.00    0.74 
  -6  -5  -1   13.69    1.16 
  -6  -5   1   15.71    1.21 
  -6  -5  -1   15.77    1.32 
  -6  -5   1   16.84    1.34 
  -6  -4   1    2.96    0.70 
   4  -6   1    4.17    0.65 
  -4   6   1    3.81    0.59 
  -6  -4   1    4.19    0.67 
  -4   6   1    3.48    0.50 
  -4   6  -1    4.23    0.59 
  -6  -4  -1    3.42    0.63 
  -6  -4  -1    3.37    0.69 
  -6  -3   1   41.18    2.50 
  -3   6   1   41.66    2.41 
  -6  -3  -1   41.50    2.23 
  -3   6   1   43.11    2.13 
  -3   6  -1   40.04    2.42 
  -3   6  -1   39.65    2.17 
  -6  -3  -1   41.62    2.51 
   3  -6  -1   42.22    2.41 
  -3   6   1   43.97    2.17 
  -6  -3   1   42.95    2.23 
  -2   6  -1    6.60    0.58 
  -2   6  -1    7.13    0.66 
  -6  -2  -1    6.31    0.53 
  -6  -2   1    7.76    0.78 
  -6  -2   1    6.60    0.59 
  -2   6   1    6.22    0.62 
  -2   6   1    6.78    0.61 
   2  -6   1    7.04    0.62 
  -6  -2  -1    7.43    0.75 
  -6  -2  -1    6.72    0.58 
  -6  -2  -1    7.56    0.84 
  -6  -2   1    6.97    0.57 
  -2   6   1    6.97    0.66 
  -6  -2   1    6.33    0.79 
  -2   6  -1    7.30    0.59 
   2  -6  -1    7.77    0.71 
  -1   6   1   43.54    2.14 
  -1   6  -1   41.26    2.11 
  -6  -1  -1   43.27    2.53 
  -6  -1   1   38.90    2.22 
   1  -6   1   39.44    2.02 
  -1   6  -1   42.17    2.37 
  -6  -1   1   42.76    2.25 
   1  -6   1   38.09    2.29 
  -6  -1  -1   46.53    2.26 
  -6  -1  -1   39.90    2.23 
   1  -6  -1   39.43    2.36 
  -1   6   1   38.97    2.35 
  -6  -1   1   42.77    2.27 
  -6  -1  -1   42.34    2.24 
  -6  -1   1   46.08    2.59 
  -1   6   1   41.71    2.11 
   0  -6   1    5.92    0.51 
   0   6  -1    5.28    0.56 
   0   6  -1    5.75    0.50 
  -6   0   1    5.47    0.94 
   0  -6  -1    5.52    0.55 
   0  -6  -1    7.09    0.68 
  -6   0   1    5.24    0.50 
  -6   0   1    5.43    0.84 
   0   6   1    5.04    0.53 
   0  -6   1    5.63    0.54 
  -6   0  -1    5.37    0.52 
   0   6   1    5.07    0.51 
  -6   0  -1    4.57    0.47 
  -6   0   1    4.97    0.51 
   1   6   1   45.12    2.40 
   1   6   1   42.03    2.14 
  -1  -6   1   46.10    2.37 
  -6   1   1   40.73    2.28 
   1   6  -1   46.05    2.15 
   1   6  -1   42.03    2.37 
  -6   1  -1   44.53    2.29 
  -1  -6   1   41.63    2.07 
  -6   1   1   37.67    2.64 
  -6   1   1   40.45    2.26 
  -6   1   1   41.22    2.99 
  -1  -6  -1   42.63    2.39 
  -6   1  -1   39.05    2.27 
  -1  -6  -1   40.81    2.12 
   2   6  -1    6.69    0.58 
  -2  -6  -1    8.77    0.74 
   2   6   1    8.01    0.66 
  -6   2   1    6.82    0.63 
  -2  -6   1    8.20    0.73 
  -2  -6  -1    7.97    0.68 
   2   6   1    6.37    0.58 
  -2  -6   1    8.27    0.69 
  -6   2  -1    6.56    0.60 
  -6   2  -1    8.03    0.66 
   2   6  -1    7.08    0.62 
  -6   2   1    6.60    0.60 
  -3  -6   1   40.51    2.11 
   3   6   1   41.90    2.36 
  -3  -6  -1   44.67    2.45 
  -3  -6  -1   41.90    2.14 
   3   6   1   37.46    2.09 
   3   6  -1   42.48    2.10 
  -6   3  -1   41.40    2.26 
  -6   3   1   43.58    2.30 
  -6   3   1   39.15    2.26 
  -6   3  -1   36.13    2.24 
   3   6  -1   43.73    2.35 
  -3  -6   1   41.80    2.40 
  -4  -6  -1    4.22    0.63 
  -6   4  -1    3.42    0.50 
   4   6   1    3.77    0.51 
  -6   4   1    3.42    0.52 
   4   6   1    4.00    0.47 
  -6   4   1    3.95    0.54 
  -4  -6   1    4.62    0.65 
  -4  -6   1    4.38    0.69 
  -4  -6  -1    4.49    0.72 
  -6   4  -1    3.66    0.51 
  -5  -6  -1   16.65    1.22 
  -5  -6  -1   15.15    1.26 
  -5  -6   1   14.67    1.24 
  -6   5  -1   15.02    1.09 
  -5  -6   1   15.63    1.16 
  -6   5   1   16.06    1.12 
  -6   5  -1   14.72    1.08 
  -6   5   1   12.46    1.06 
  -6  -6   1    2.48    0.76 
  -6  -6  -1    1.51    0.63 
  -6  -6  -1    1.64    0.73 
  -6  -6   1    1.08    0.66 
  -6   6   1    2.59    0.58 
  -7  -6   1   10.17    1.17 
  -7  -6  -1   11.97    1.27 
  -7  -5  -1    1.00    0.65 
  -7  -5   1    1.83    0.68 
  -7  -5  -1    1.85    0.78 
  -7  -5   1    1.66    0.74 
  -7  -4  -1   14.03    1.32 
  -7  -4  -1   13.22    1.21 
  -4   7   1   12.16    1.03 
   4  -7   1   14.14    1.17 
  -4   7  -1   13.69    1.07 
  -7  -4   1   13.80    1.25 
  -7  -4   1   15.22    1.20 
  -7  -3   1    4.54    0.77 
  -7  -3  -1    4.58    0.75 
  -3   7   1    5.08    0.67 
   3  -7   1    5.57    0.69 
  -3   7   1    4.34    0.56 
  -7  -3  -1    4.16    0.81 
  -3   7  -1    4.62    0.59 
  -7  -3   1    5.11    0.82 
  -2   7   1   28.59    1.87 
  -7  -2  -1   30.08    1.74 
  -2   7   1   31.60    1.70 
  -2   7  -1   30.64    1.71 
  -2   7   1   30.70    1.70 
  -2   7  -1   30.25    1.89 
   2  -7  -1   32.46    1.90 
  -7  -2   1   32.05    2.10 
  -7  -2   1   30.95    1.87 
  -7  -2  -1   29.01    1.75 
   1  -7  -1    7.68    0.68 
  -7  -1   1    8.09    0.70 
  -7  -1  -1    8.07    0.70 
  -7  -1   1    7.96    0.67 
  -1   7  -1    8.18    0.71 
   1  -7   1    7.99    0.71 
  -7  -1  -1    8.34    0.67 
  -7  -1   1    7.49    1.13 
   1  -7   1    7.87    0.65 
   1  -7  -1    8.54    0.81 
  -7  -1   1   10.49    1.06 
  -1   7  -1    7.66    0.72 
  -1   7   1    7.52    0.68 
  -1   7   1    6.80    0.70 
  -7   0  -1   20.14    1.23 
   0   7  -1   18.10    1.17 
  -7   0   1   17.40    1.21 
   0  -7  -1   17.46    1.32 
   0  -7   1   20.31    1.16 
   0  -7   1   20.92    1.30 
   0   7   1   20.97    1.21 
   0  -7  -1   22.10    1.23 
   0   7  -1   21.03    1.31 
   0   7   1   18.63    1.30 
  -7   0   1   20.02    1.24 
  -7   0  -1   20.43    1.25 
  -1  -7   1    9.73    0.81 
   1   7   1    8.03    0.75 
  -7   1   1    8.01    0.71 
  -7   1   1    7.67    0.68 
  -1  -7   1    9.47    0.76 
   1   7  -1    7.99    0.73 
   1   7  -1    6.98    0.65 
  -1  -7  -1    8.40    0.80 
  -7   1  -1   10.60    0.79 
   1   7   1    8.57    0.74 
  -1  -7  -1    8.44    0.77 
  -7   1  -1    7.56    0.68 
   2   7  -1   31.92    1.90 
  -7   2  -1   33.59    1.85 
   2   7  -1   28.58    1.69 
   2   7   1   33.11    1.93 
  -7   2  -1   28.61    1.81 
  -2  -7  -1   30.00    1.76 
   2   7   1   31.82    1.74 
  -7   2   1   31.12    1.84 
  -2  -7  -1   32.91    1.98 
  -2  -7   1   33.64    1.96 
  -2  -7   1   31.49    1.72 
  -7   2   1   32.17    1.84 
   3   7  -1    5.92    0.58 
  -7   3  -1    4.95    0.62 
  -3  -7   1    5.24    0.67 
   3   7   1    5.50    0.59 
  -7   3   1    4.00    0.58 
  -7   3   1    5.05    0.62 
   3   7  -1    5.52    0.65 
  -3  -7  -1    5.40    0.71 
  -3  -7  -1    6.65    0.84 
  -3  -7   1    5.83    0.77 
   3   7   1    6.16    0.67 
  -7   3  -1    5.04    0.62 
  -4  -7  -1   13.25    1.18 
  -7   4   1   12.78    1.02 
  -4  -7   1   13.17    1.13 
  -7   4  -1   12.01    0.99 
  -4  -7   1   11.61    1.03 
  -7   4   1   12.37    0.98 
  -7   4  -1   12.65    0.97 
  -4  -7  -1   12.72    1.07 
   4   7   1   12.91    0.92 
  -7   5  -1    2.33    0.52 
  -7   5   1    2.00    0.53 
  -7   5   1    1.90    0.53 
  -7   5  -1    2.00    0.52 
  -5  -7   1    2.35    0.69 
  -5  -7  -1    2.06    0.69 
  -6  -7   1   10.56    1.18 
  -6  -7  -1   11.48    1.19 
  -7   6   1   10.69    1.06 
  -7  -7   1   -0.07    0.71 
  -7  -7  -1    0.06    0.76 
  -8  -6  -1   -0.18    0.73 
  -8  -6   1    0.94    0.79 
  -8  -5   1    9.98    1.19 
  -8  -5  -1    9.85    1.20 
  -8  -4  -1    1.70    0.72 
  -4   8   1    1.86    0.57 
  -4   8  -1    1.95    0.61 
  -8  -4   1    1.72    0.74 
  -3   8   1   10.44    0.96 
  -8  -3   1   12.35    1.28 
  -3   8  -1   10.18    0.96 
  -8  -3   1   11.04    1.36 
  -3   8   1   11.32    1.04 
   3  -8   1   11.62    1.06 
  -2   8  -1    1.94    0.48 
  -2   8   1    1.84    0.51 
  -2   8   1    2.31    0.53 
   2  -8  -1    2.00    0.49 
  -2   8  -1    1.78    0.51 
  -8  -2   1    0.87    0.73 
  -1   8   1   16.66    1.12 
  -8  -1   1   15.27    1.12 
   1  -8  -1   16.49    1.26 
   1  -8  -1   16.33    1.11 
  -1   8  -1   17.35    1.24 
  -8  -1  -1   18.61    1.19 
  -8  -1  -1   17.35    1.15 
  -1   8   1   15.62    1.22 
  -8  -1   1   16.44    1.15 
  -1   8  -1   16.68    1.13 
   0  -8  -1    3.15    0.63 
   0  -8   1    2.51    0.58 
   0   8   1    3.07    0.55 
   0  -8  -1    3.38    0.58 
  -8   0   1    2.91    0.53 
  -8   0  -1    3.03    0.50 
   0  -8   1    2.84    0.55 
   0   8  -1    1.85    0.47 
   0   8  -1    2.26    0.52 
  -8   0  -1    2.65    0.50 
  -8   0   1    2.67    0.49 
   0   8   1    2.77    0.55 
  -8   1  -1   17.67    1.18 
  -8   1  -1   17.17    1.15 
  -1  -8   1   19.60    1.30 
  -8   1   1   15.06    1.14 
   1   8  -1   16.94    1.20 
   1   8   1   14.78    1.18 
  -1  -8  -1   15.73    1.26 
  -1  -8   1   16.02    1.12 
  -1  -8  -1   16.39    1.16 
   1   8   1   16.17    1.12 
   1   8  -1   14.96    1.09 
  -8   1   1   16.74    1.15 
   2   8  -1    2.46    0.50 
  -8   2  -1    2.65    0.50 
  -8   2  -1    1.81    0.49 
   2   8   1    2.05    0.52 
  -8   2   1    2.52    0.51 
  -2  -8   1    2.31    0.59 
  -8   2   1    1.88    0.50 
  -2  -8  -1    2.31    0.66 
   2   8  -1    2.44    0.54 
  -2  -8   1    1.15    0.50 
  -2  -8  -1    2.73    0.59 
   2   8   1    1.85    0.52 
  -8   3  -1   10.02    0.92 
   3   8  -1   11.73    0.95 
   3   8   1   10.32    0.95 
  -8   3   1   10.89    0.94 
   3   8   1   10.60    0.90 
   3   8  -1   11.33    0.88 
  -3  -8   1   11.81    0.99 
  -3  -8  -1   10.98    1.02 
  -3  -8   1   10.54    1.06 
  -8   4   1    1.95    0.54 
  -4  -8  -1    0.92    0.64 
   4   8   1    1.21    0.49 
  -4  -8   1    0.68    0.59 
  -8   4  -1    0.90    0.51 
  -8   5   1    8.79    0.99 
  -5  -8   1   10.05    1.08 
  -5  -8  -1   10.41    1.15 
  -8   5  -1    7.79    0.90 
  -8   6  -1    0.57    0.55 
  -8   6   1    0.80    0.63 
  -6  -8  -1    1.44    0.81 
  -6  -8   1    0.87    0.74 
  -4   9  -1    8.11    0.95 
  -4   9   1    6.86    0.90 
  -9  -4   1    8.16    1.25 
  -3   9   1    1.90    0.62 
  -3   9  -1    1.13    0.59 
  -2   9   1    6.37    0.83 
  -2   9  -1    6.62    0.84 
  -9  -1  -1    1.14    0.48 
  -1   9  -1    1.96    0.58 
   1  -9  -1    1.68    0.54 
  -1   9   1    1.69    0.58 
  -9  -1   1    1.48    0.51 
  -9   0   1   11.68    1.00 
   0   9  -1   10.37    0.94 
   0  -9   1   11.84    0.97 
   0  -9  -1   11.55    1.00 
   0   9   1   11.08    0.98 
  -9   0  -1   10.03    0.96 
  -1  -9  -1    1.76    0.61 
  -9   1  -1    2.11    0.55 
   1   9  -1    2.56    0.57 
  -1  -9   1    1.16    0.55 
  -9   1   1    0.43    0.50 
   1   9   1    0.68    0.53 
  -2  -9   1    5.68    0.80 
  -9   2   1    7.23    0.83 
   2   9  -1    7.26    0.79 
  -2  -9  -1    8.18    0.91 
  -9   2  -1    6.70    0.84 
   2   9   1    6.39    0.80 
   3   9  -1    1.36    0.46 
  -9   3  -1    0.90    0.54 
  -3  -9  -1    1.20    0.62 
   3   9   1    1.22    0.53 
  -3  -9   1    0.56    0.58 
  -9   3   1    0.77    0.50 
  -4  -9   1    7.21    0.96 
  -4  -9  -1    7.08    1.00 
  -9   4  -1    6.65    0.88 
   4   9   1    6.16    0.78 
  -9   4   1    6.64    0.88 
  -2  10  -1   -0.69    0.55 
  -2  10   1    0.28    0.56 
  -1  10   1    3.53    0.75 
 -10  -1   1    4.97    0.76 
  -1  10  -1    5.42    0.82 
 -10  -1  -1    4.31    0.75 
   0  10  -1   -0.01    0.60 
   0  10   1    0.58    0.59 
 -10   0  -1    0.16    0.53 
   0 -10  -1    0.53    0.59 
 -10   0   1    0.37    0.54 
 -10   1   1    3.78    0.74 
   1  10   1    4.88    0.78 
  -1 -10   1    5.21    0.80 
   1  10  -1    5.38    0.76 
  -1 -10  -1    3.68    0.82 
 -10   1  -1    5.74    0.82 
  -2 -10  -1    0.72    0.67 
   2  10  -1   -0.05    0.54 
  -2 -10   1    0.03    0.60 
   2  10   1    0.25    0.52 
 -10   2   1    0.56    0.57 
 -10   2  -1   -0.37    0.53 
   0   0  -2  272.12   13.60 
   0  -1   2  120.73    5.90 
  -1   0  -2  116.62    5.88 
   0   1   2  120.70    6.09 
   0  -1   2  127.77    6.09 
   1   0   2  110.28    6.31 
   0   1  -2  113.96    5.88 
   1   0  -2  118.11    5.88 
   0   1   2  110.76    5.97 
  -1   0   2  123.27    6.02 
   0  -1  -2  117.67    6.02 
  -1   1   2  754.71   35.47 
  -1  -1   2  687.34   35.20 
  -1  -1  -2  680.55   34.94 
  -1   1   2  700.83   36.14 
   1   1   2  718.54   36.19 
  -1  -1  -2  669.40   35.19 
   1   1  -2  718.13   34.93 
   1  -1  -2  680.11   34.93 
  -1   1  -2  757.45   34.93 
  -2  -1   2  116.43    5.90 
  -2  -1   2  106.55    5.78 
   1  -2   2  114.24    5.82 
  -1   2   2  119.19    5.99 
  -1   2   2  120.75    6.00 
  -1   2  -2  115.33    5.77 
   2   1   2  117.40    6.04 
   1  -2   2  121.48    6.03 
   1  -2  -2  114.72    5.82 
  -2  -1  -2  115.28    5.85 
   0  -2  -2   16.50    1.01 
  -2   0  -2   14.86    0.82 
   2   0   2   15.35    1.26 
   0  -2   2   13.29    0.81 
   0   2   2   14.30    0.89 
   0   2  -2   14.36    0.85 
  -2   0  -2   13.97    0.81 
  -2   0   2   15.14    0.82 
  -2   0   2   17.11    1.00 
  -2   1   2  106.75    5.59 
   1   2   2  113.57    5.81 
   2  -1   2  114.33    5.88 
  -2   1   2  101.31    5.94 
   1   2  -2  116.15    5.78 
  -1  -2   2  110.46    5.65 
  -2   1  -2  120.49    5.60 
  -1  -2  -2  116.69    5.68 
  -1  -2  -2  107.85    5.63 
  -2  -2   2  204.14    9.70 
   2   2   2  198.40   10.09 
  -2   2  -2  189.94    9.71 
  -2   2  -2  182.26    9.77 
  -2  -2   2  206.62    9.85 
   2   2  -2  197.54   10.05 
   2  -2   2  191.05   10.11 
  -2  -2  -2  206.41    9.84 
  -2   2   2  184.39    9.74 
  -2  -2  -2  194.48    9.73 
  -2   2   2  197.69   10.06 
   2  -3   2   84.19    4.44 
  -2   3   2   87.59    4.45 
   2  -3   2   88.24    4.62 
  -3  -2  -2   89.83    4.42 
   3   2   2   85.21    4.59 
  -2   3  -2   89.42    4.41 
  -2   3   2   85.40    4.58 
   3   2  -2   93.24    4.54 
  -3  -2   2   90.49    4.54 
  -2   3   2   84.59    4.62 
  -3  -2   2   82.55    4.39 
  -3  -2  -2   91.61    4.52 
  -3  -1  -2  475.68   23.64 
  -3  -1   2  474.27   23.92 
  -3  -1   2  485.31   23.63 
  -1   3  -2  507.58   23.62 
  -1   3  -2  501.53   24.52 
  -1   3   2  460.70   24.48 
  -3  -1  -2  483.18   23.85 
  -1   3   2  479.52   23.96 
   3   1   2  448.79   24.50 
   1  -3   2  463.75   23.81 
  -3   0   2   57.17    2.95 
   3   0   2   57.74    3.26 
   0   3   2   62.19    3.08 
  -3   0  -2   60.35    3.01 
  -3   0  -2   53.45    2.95 
   0  -3   2   57.65    2.97 
   0   3  -2   63.12    3.07 
   0  -3  -2   52.26    3.11 
  -3   0   2   53.10    3.14 
   0  -3  -2   62.23    3.08 
  -1  -3  -2  480.94   23.72 
   3  -1  -2  476.21   24.27 
  -3   1   2  432.34   24.13 
  -3   1   2  506.59   23.50 
   1   3   2  467.27   24.32 
  -3   1  -2  475.61   23.85 
   3  -1   2  503.94   24.52 
  -1  -3   2  454.05   23.67 
  -3   2   2   82.14    4.37 
   2   3  -2   89.81    4.40 
  -2  -3   2   77.80    4.32 
  -3   2   2   86.44    4.67 
   2   3   2   88.23    4.43 
  -3   2  -2   80.39    4.28 
  -2  -3  -2   83.36    4.23 
  -2  -3  -2   84.88    4.35 
  -3   3   2  310.32   15.99 
  -3  -3   2  310.14   13.74 
   3  -3   2  295.91   16.05 
  -3  -3  -2  316.85   13.74 
  -3  -3  -2  310.71   15.42 
  -3   3   2  325.38   15.34 
  -3  -3   2  298.04   15.63 
   3   3   2  314.45   16.01 
  -3   3  -2  317.87   15.45 
  -3   3  -2  311.75   15.55 
  -3   4   2   10.87    0.78 
   4   3   2   11.90    0.71 
  -4  -3  -2   11.45    0.89 
  -3   4   2   12.51    0.74 
  -4  -3  -2   13.45    0.81 
  -3   4  -2   12.53    0.76 
  -3   4   2   12.86    0.99 
   3  -4   2   12.24    0.86 
  -3   4  -2   12.94    0.80 
  -4  -3   2   12.27    0.82 
  -4  -3  -2   12.60    0.73 
  -3   4   2   12.17    0.81 
   4   3   2   11.22    0.78 
  -3   4  -2   11.47    0.76 
  -3   4   2   11.76    0.85 
  -4  -3   2   12.39    0.91 
  -3   4   2   12.34    0.81 
  -2   4   2   28.15    1.57 
   4   2   2   28.95    1.56 
  -4  -2   2   28.46    1.46 
  -2   4  -2   26.98    1.44 
  -2   4   2   27.44    1.69 
  -4  -2   2   29.93    1.66 
  -2   4   2   26.48    1.49 
  -4  -2   2   28.48    1.48 
   2  -4   2   26.69    1.50 
  -2   4   2   29.14    1.42 
   2  -4  -2   26.55    1.55 
  -4  -2  -2   29.11    1.61 
  -4  -2  -2   26.60    1.49 
  -2   4  -2   26.99    1.47 
  -2   4  -2   26.04    1.59 
  -4  -1  -2   35.27    1.91 
   1  -4  -2   34.90    1.99 
  -1   4   2   39.49    1.81 
  -4  -1   2   35.91    1.91 
  -1   4  -2   36.35    1.87 
   1  -4   2   37.78    1.94 
  -4  -1  -2   38.12    2.02 
  -1   4   2   37.28    1.83 
  -4  -1   2   34.21    1.85 
   4   1   2   34.22    1.99 
  -1   4   2   38.16    2.10 
  -1   4  -2   36.26    2.02 
  -1   4   2   36.98    2.01 
  -1   4  -2   34.36    1.80 
  -4  -1   2   37.32    2.10 
   0   4   2   97.42    4.67 
   0   4  -2  104.01    5.23 
  -4   0   2  101.50    5.32 
  -4   0   2   94.63    4.98 
  -4   0  -2  101.50    5.03 
   0  -4   2  101.42    5.08 
  -4   0  -2  102.06    4.99 
   0  -4  -2   97.73    5.17 
   0   4   2   92.14    5.22 
   0   4  -2   98.41    4.66 
   0   4   2  103.38    4.55 
  -4   0  -2  104.55    5.18 
  -4   0   2  103.49    5.03 
   0  -4  -2   91.49    5.29 
  -4   1  -2   34.90    1.93 
  -1  -4   2   42.01    2.02 
  -1  -4   2   36.40    1.75 
  -4   1   2   39.03    2.67 
  -4   1   2   36.26    1.94 
  -4   1  -2   31.42    2.26 
   1   4   2   38.60    1.82 
   1   4   2   35.51    2.03 
  -4   1   2   38.00    1.95 
   1   4   2   35.46    1.81 
   1   4  -2   37.66    2.02 
   4  -1   2   37.04    2.49 
  -4   1  -2   35.75    1.94 
  -1  -4  -2   37.15    2.05 
   1   4  -2   36.13    1.80 
   4  -2   2   27.50    1.78 
   2   4  -2   30.72    1.61 
  -2  -4  -2   31.63    1.50 
  -4   2   2   28.74    1.58 
   2   4  -2   31.04    1.45 
  -2  -4   2   26.93    1.43 
  -4   2   2   30.29    1.57 
  -2  -4   2   29.75    1.63 
   2   4   2   26.77    1.62 
  -4   2  -2   26.26    1.55 
  -4   2   2   27.31    2.07 
  -2  -4  -2   26.86    1.65 
   2   4   2   28.60    1.46 
  -4   3   2   11.87    0.79 
  -4   3   2   13.54    0.97 
   3   4  -2   12.14    0.71 
  -4   3   2   12.24    1.05 
  -3  -4   2   11.54    0.77 
  -3  -4   2   11.29    0.86 
   3   4   2   12.57    0.75 
  -4   3  -2   11.62    0.76 
  -4   3   2   12.76    0.80 
   3   4  -2   12.07    0.78 
  -3  -4  -2   13.14    0.85 
   3   4   2   12.45    0.81 
  -4   3  -2   11.06    0.77 
  -3  -4  -2   12.17    0.90 
  -4   4   2   36.42    2.28 
  -4  -4  -2   39.28    2.22 
  -4  -4   2   38.19    2.21 
  -4  -4  -2   37.72    1.96 
  -4   4   2   37.16    2.10 
  -4  -4   2   37.60    1.94 
  -4   4   2   36.50    2.08 
  -4   4  -2   39.66    2.07 
   4   4   2   45.10    2.18 
   4  -4   2   39.38    2.25 
  -4   4   2   38.32    2.03 
  -4   4  -2   35.74    2.00 
  -5  -4  -2    8.10    0.75 
  -4   5   2    9.02    0.90 
  -4   5  -2    7.17    0.67 
  -5  -4   2    8.37    0.81 
   4  -5   2    7.60    0.73 
  -4   5   2    8.04    0.70 
  -5  -4   2    8.50    0.78 
  -4   5   2    6.27    0.65 
  -4   5  -2    6.21    0.59 
  -5  -4  -2    8.05    0.78 
  -4   5   2    7.15    0.74 
   3  -5   2  140.57    7.43 
  -5  -3  -2  140.64    7.28 
  -3   5   2  137.54    7.38 
   3  -5  -2  135.16    7.15 
  -3   5   2  138.78    6.59 
  -3   5   2  139.33    7.31 
  -3   5   2  130.81    7.08 
  -3   5   2  134.73    6.43 
  -5  -3   2  148.72    7.34 
  -5  -3  -2  142.70    6.41 
  -5  -3   2  152.60    6.46 
  -3   5  -2  144.43    6.63 
  -2   5  -2    6.80    0.56 
  -2   5  -2    7.29    0.61 
  -5  -2   2    7.09    0.55 
  -5  -2  -2    7.13    0.56 
  -2   5   2    7.34    0.74 
  -5  -2  -2    6.61    0.53 
  -5  -2   2    7.72    0.73 
  -2   5   2    6.63    0.58 
  -5  -2  -2    7.09    0.70 
  -5  -2  -2    6.65    0.63 
   2  -5  -2    6.85    0.72 
  -2   5   2    7.38    0.57 
  -2   5   2    7.68    0.66 
  -5  -2   2    7.08    0.66 
  -5  -2   2    5.92    0.51 
  -5  -1  -2  210.11   10.57 
  -1   5   2  200.12   10.96 
  -1   5   2  215.01    9.80 
  -1   5  -2  205.77   10.97 
  -1   5  -2  225.97    9.81 
  -1   5   2  213.54    9.48 
  -5  -1   2  195.18   10.83 
   1  -5   2  215.86   10.66 
  -5  -1   2  225.54   10.49 
  -5  -1   2  205.08   10.56 
  -5  -1   2  216.45    9.56 
   1  -5  -2  223.14   10.82 
   1  -5   2  202.92    9.36 
  -5  -1  -2  194.68   10.47 
  -5  -1  -2  221.87   10.79 
   0   5   2   22.43    1.32 
   0   5  -2   20.28    1.15 
  -5   0  -2   20.78    1.47 
  -5   0   2   22.08    1.42 
  -5   0  -2   21.61    1.24 
  -5   0  -2   20.61    1.24 
   0  -5   2   21.56    1.12 
  -5   0   2   22.29    1.58 
   0   5   2   21.79    1.23 
  -5   0   2   23.87    1.25 
   0  -5   2   20.24    1.25 
  -5   0   2   23.27    1.25 
   0  -5  -2   20.72    1.35 
   0   5  -2   22.11    1.30 
   0   5   2   21.24    1.18 
   1   5  -2  211.68    9.70 
  -5   1   2  196.85   11.26 
  -5   1   2  213.80   10.41 
   1   5  -2  201.11   10.86 
  -5   1   2  219.34    9.96 
  -5   1   2  222.22   10.51 
  -1  -5  -2  192.94   10.65 
  -5   1  -2  215.39   10.50 
   1   5   2  216.77   10.89 
  -1  -5   2  211.98    9.32 
  -1  -5  -2  196.64    9.37 
   1   5   2  207.73    9.72 
  -1  -5   2  205.32   10.61 
  -5   1  -2  223.02   10.42 
  -2  -5   2    7.15    0.61 
  -5   2   2    6.21    0.56 
  -5   2   2    5.95    1.06 
   2   5   2    6.48    0.54 
  -5   2  -2    6.27    0.54 
   2   5  -2    7.42    0.56 
  -2  -5   2    7.03    0.57 
  -2  -5  -2    6.85    0.64 
  -5   2   2    6.93    0.56 
   2   5  -2    7.02    0.52 
  -2  -5  -2    8.18    0.63 
  -5   2  -2    6.28    0.56 
   2   5   2    7.14    0.58 
  -5   2   2    4.43    0.96 
  -3  -5  -2  140.70    6.47 
  -5   3   2  143.23    6.67 
  -3  -5   2  142.18    7.33 
  -5   3  -2  140.00    7.19 
   3   5  -2  138.26    7.42 
  -5   3   2  146.52    7.22 
   3   5   2  128.14    6.64 
   3   5  -2  150.47    6.64 
  -3  -5  -2  151.19    7.39 
  -5   3   2  156.18    7.17 
  -5   3  -2  136.41    7.13 
   3   5   2  146.85    7.47 
  -5   3   2  129.39    7.54 
  -3  -5   2  139.13    6.43 
  -4  -5  -2    7.58    0.76 
  -5   4   2    7.73    0.67 
   4   5   2    8.98    0.67 
  -5   4   2    7.50    0.80 
  -5   4   2    8.18    0.92 
  -5   4  -2    7.21    0.65 
  -4  -5  -2    8.07    0.75 
  -4  -5   2    7.91    0.72 
  -4  -5   2    7.52    0.76 
  -5   4  -2    7.18    0.61 
   4   5   2    7.22    0.59 
  -5   4   2    7.74    0.67 
  -5  -5   2   79.68    3.62 
  -5  -5   2   73.65    4.07 
  -5   5   2   78.11    3.94 
  -5   5   2   72.55    3.89 
  -5   5  -2   68.91    3.87 
  -5  -5  -2   76.63    4.12 
  -5   5  -2   67.03    3.83 
  -5  -5  -2   73.55    3.61 
  -6  -5   2    1.48    0.62 
  -6  -5  -2    1.35    0.61 
  -6  -5  -2    0.07    0.48 
  -6  -5   2    0.72    0.54 
  -6  -4   2   13.88    1.15 
  -4   6   2   12.51    1.09 
   4  -6   2   12.77    1.03 
  -4   6  -2   12.27    0.97 
  -6  -4  -2   12.26    1.11 
  -6  -4   2   12.68    1.05 
  -6  -4  -2   11.79    0.98 
  -4   6   2   11.85    0.94 
   3  -6   2    5.70    0.70 
  -3   6   2    6.22    0.66 
   3  -6  -2    6.34    0.76 
  -3   6  -2    6.52    0.64 
  -6  -3  -2    7.79    0.75 
  -6  -3   2    6.97    0.74 
  -6  -3   2    5.98    0.80 
  -3   6   2    6.06    0.68 
  -6  -3  -2    5.36    0.78 
  -3   6   2    5.70    0.56 
  -6  -2  -2   24.53    1.48 
  -6  -2   2   25.12    1.73 
  -2   6  -2   26.25    1.45 
  -6  -2   2   26.94    1.48 
  -6  -2   2   26.09    1.57 
  -6  -2  -2   26.64    1.52 
   2  -6  -2   23.73    1.64 
  -2   6  -2   25.61    1.60 
  -2   6   2   27.73    1.49 
  -6  -2  -2   27.40    1.49 
  -2   6   2   25.32    1.43 
  -6  -2  -2   26.80    1.70 
  -2   6   2   24.28    1.56 
  -6  -1   2    6.31    0.60 
   1  -6   2    6.95    0.59 
  -1   6   2    6.91    0.60 
  -6  -1   2    6.11    0.55 
  -6  -1  -2    7.06    0.61 
  -6  -1   2    7.13    0.81 
  -1   6  -2    5.97    0.61 
  -6  -1  -2    6.63    0.59 
  -1   6   2    6.58    0.63 
   1  -6  -2    7.77    0.79 
  -6  -1   2    5.77    0.86 
  -1   6   2    8.20    0.72 
  -1   6  -2    7.87    0.60 
   1  -6   2    7.10    0.53 
  -6   0  -2   17.88    1.11 
   0   6   2   18.76    1.13 
   0   6   2   22.01    1.10 
   0  -6   2   16.97    1.12 
   0  -6  -2   18.34    1.25 
   0   6   2   19.50    1.20 
  -6   0  -2   17.74    1.12 
  -6   0   2   17.32    1.52 
  -6   0   2   15.78    1.37 
  -6   0   2   18.10    1.12 
   0   6  -2   17.37    1.16 
  -6   0   2   17.75    1.10 
   0  -6   2   16.70    1.00 
   0   6  -2   18.10    1.05 
  -1  -6  -2    6.67    0.63 
  -6   1  -2    7.06    0.56 
   1   6  -2    7.16    0.60 
  -6   1   2    6.71    0.58 
   1   6   2    6.51    0.59 
   1   6  -2    6.36    0.55 
   1   6   2    6.17    0.62 
  -1  -6   2    6.40    0.62 
  -1  -6   2    6.62    0.57 
  -1  -6  -2    7.12    0.73 
  -6   1  -2    7.35    0.61 
  -6   1   2    6.63    0.59 
  -6   1   2    5.69    1.00 
  -6   1   2    6.45    1.16 
  -6   2   2   23.97    2.08 
   2   6   2   26.98    1.44 
  -2  -6  -2   26.10    1.64 
  -2  -6   2   26.98    1.43 
   2   6  -2   24.36    1.39 
  -6   2  -2   28.09    1.53 
  -6   2   2   25.37    1.93 
   2   6   2   22.61    1.56 
  -6   2   2   27.99    1.54 
  -2  -6   2   26.00    1.58 
  -6   2   2   26.78    1.52 
   2   6  -2   25.29    1.55 
  -6   2  -2   26.39    1.51 
  -2  -6  -2   24.94    1.45 
  -6   3   2    5.37    0.59 
  -3  -6  -2    6.78    0.71 
   3   6   2    6.27    0.66 
   3   6  -2    5.74    0.57 
  -6   3   2    4.88    0.57 
  -3  -6   2    5.93    0.64 
   3   6  -2    6.40    0.54 
  -6   3  -2    4.97    0.56 
  -6   3  -2    5.76    0.61 
   3   6   2    6.71    0.61 
  -3  -6  -2    6.74    0.80 
  -3  -6   2    6.31    0.73 
   4   6   2   11.93    0.81 
  -6   4  -2   11.63    0.85 
  -6   4   2   10.36    0.87 
  -4  -6  -2    8.94    0.91 
  -6   4  -2   11.23    0.86 
  -6   4   2   11.29    0.88 
  -4  -6  -2   10.11    1.00 
   4   6   2   11.94    0.90 
  -4  -6   2   14.08    0.96 
  -4  -6   2   10.87    0.97 
  -6   5   2    0.98    0.43 
  -6   5  -2    1.03    0.38 
  -5  -6  -2    1.82    0.60 
  -5  -6   2    0.90    0.55 
  -5  -6  -2    1.50    0.64 
  -6   5  -2    1.09    0.40 
  -5  -6   2    0.71    0.48 
  -6   5   2    1.45    0.47 
  -6  -6   2    7.99    0.96 
  -6  -6  -2    7.79    1.06 
  -6  -6  -2    8.76    1.01 
  -6   6   2    6.19    0.84 
  -7  -6  -2    0.59    0.72 
  -7  -6   2   -0.13    0.64 
  -7  -5  -2   28.28    2.05 
  -7  -5   2   26.34    1.78 
  -7  -5  -2   26.09    1.78 
  -7  -4   2    0.59    0.53 
  -7  -4   2    1.17    0.59 
  -7  -4  -2   -0.10    0.62 
  -4   7  -2    1.72    0.54 
  -7  -4  -2    0.52    0.56 
   4  -7   2    0.71    0.49 
  -7  -3   2   51.25    2.83 
   3  -7   2   50.20    3.06 
  -3   7   2   52.30    3.04 
  -7  -3   2   54.03    3.20 
   3  -7  -2   57.37    3.09 
  -3   7  -2   55.17    2.77 
  -3   7   2   49.15    2.70 
  -3   7   2   54.04    2.70 
  -2   7  -2    4.69    0.63 
  -7  -2   2    4.70    0.88 
  -7  -2  -2    6.24    0.59 
  -2   7   2    5.56    0.68 
   2  -7  -2    4.87    0.71 
  -2   7  -2    4.27    0.55 
  -7  -2   2    3.38    0.73 
   2  -7   2    3.89    0.59 
  -7  -2  -2    4.38    0.51 
  -2   7   2    4.50    0.56 
  -2   7   2    4.01    0.60 
  -1   7   2   67.01    3.48 
  -7  -1  -2   71.85    3.69 
  -7  -1   2   72.76    3.68 
  -1   7   2   65.96    3.87 
  -7  -1   2   64.51    3.69 
  -1   7  -2   69.83    3.47 
  -7  -1  -2   71.19    3.71 
  -7  -1   2   71.04    3.67 
   1  -7  -2   72.96    3.90 
  -1   7  -2   66.90    3.88 
  -1   7   2   70.01    3.43 
  -7  -1   2   78.83    4.21 
   0  -7  -2    2.80    0.57 
   0  -7   2    2.41    0.47 
   0   7  -2    2.65    0.43 
   0  -7   2    2.62    0.44 
  -7   0   2    3.21    0.46 
   0   7   2    3.26    0.48 
  -7   0  -2    3.61    0.49 
  -7   0   2    3.44    0.47 
   0   7   2    2.16    0.47 
  -7   0  -2    2.25    0.41 
   0  -7  -2    2.36    0.49 
  -7   0   2    3.03    0.83 
  -7   0   2    1.81    0.88 
   0   7  -2    2.02    0.45 
  -1  -7   2   69.90    3.81 
  -7   1  -2   69.00    3.73 
  -1  -7   2   64.87    3.33 
  -7   1   2   68.75    3.70 
  -7   1   2   70.04    3.74 
   1   7  -2   70.90    3.88 
  -1  -7  -2   70.16    3.44 
   1   7   2   66.96    3.89 
   1   7  -2   70.65    3.47 
  -1  -7  -2   70.43    3.89 
  -7   1   2   69.32    3.87 
   1   7   2   81.04    3.54 
  -7   1  -2   74.61    3.73 
  -7   2  -2    5.09    0.62 
  -2  -7  -2    5.19    0.74 
  -7   2  -2    4.10    0.56 
  -2  -7   2    5.39    0.68 
  -7   2   2    5.75    0.63 
   2   7  -2    5.50    0.62 
   2   7   2    4.86    0.60 
  -7   2   2    6.73    0.64 
  -2  -7  -2    4.51    0.65 
   2   7   2    5.88    0.67 
   2   7  -2    4.72    0.52 
  -2  -7   2    5.64    0.62 
  -7   3   2   48.08    2.89 
   3   7  -2   52.19    2.69 
  -3  -7   2   53.50    2.70 
   3   7  -2   56.18    3.02 
  -7   3   2   54.18    2.95 
  -7   3  -2   52.51    2.92 
   3   7   2   54.16    2.75 
  -3  -7   2   61.63    3.10 
  -3  -7  -2   54.78    2.76 
  -3  -7  -2   54.82    3.14 
  -7   3  -2   47.85    2.90 
   3   7   2   50.73    3.03 
  -4  -7  -2    0.24    0.52 
  -4  -7   2    1.04    0.52 
  -7   4  -2    0.40    0.36 
   4   7   2    0.76    0.41 
  -4  -7   2   -0.17    0.47 
   4   7   2    0.45    0.40 
  -7   4   2    0.57    0.43 
  -7   4  -2    0.35    0.42 
  -4  -7  -2    0.10    0.54 
  -7   4   2    0.69    0.44 
  -7   5   2   25.61    1.63 
  -5  -7   2   25.10    1.60 
  -5  -7  -2   23.67    1.66 
  -7   5  -2   23.64    1.61 
  -7   5  -2   24.94    1.60 
  -7   5   2   25.16    1.64 
  -6  -7  -2   -0.36    0.64 
  -7   6   2    0.07    0.56 
  -6  -7   2    0.49    0.68 
  -7  -7   2   13.18    1.42 
  -7  -7  -2   15.45    1.50 
  -8  -6  -2    2.79    0.91 
  -8  -6   2    3.82    0.95 
  -8  -5   2   -0.28    0.64 
  -8  -4   2    4.39    0.90 
  -4   8  -2    2.87    0.68 
  -3   8   2    0.61    0.49 
  -3   8   2    0.31    0.46 
   3  -8   2    0.23    0.49 
  -3   8  -2    1.05    0.54 
  -8  -3   2    0.40    0.65 
  -8  -3   2   -0.35    0.68 
  -2   8   2    5.74    0.79 
  -8  -2   2    6.67    1.07 
  -8  -2  -2    8.19    0.78 
  -2   8  -2    7.94    0.79 
  -2   8   2    7.24    0.74 
  -8  -2   2    7.16    1.17 
  -2   8   2    8.26    0.86 
   2  -8   2    7.90    0.87 
   2  -8  -2    9.09    0.96 
  -1   8  -2    1.69    0.50 
  -8  -1   2    1.66    0.83 
   1  -8  -2    1.27    0.48 
  -1   8  -2    1.49    0.49 
  -8  -1   2    2.05    0.48 
  -8  -1  -2    1.85    0.46 
  -8  -1  -2    1.98    0.50 
  -8  -1   2    1.81    0.44 
  -1   8   2    0.94    0.43 
  -1   8   2    1.77    0.51 
   1  -8  -2    1.14    0.55 
   0   8   2    8.34    0.85 
  -8   0   2    8.79    0.85 
   0   8   2   10.78    0.89 
   0  -8  -2   10.60    0.95 
   0  -8   2    9.42    0.82 
  -8   0   2    8.72    0.80 
  -8   0  -2    8.41    0.79 
  -8   0  -2    9.06    0.86 
   0   8  -2    9.68    0.87 
   0   8  -2    9.97    0.83 
   0  -8  -2   11.86    1.02 
  -1  -8  -2    1.97    0.59 
   1   8  -2    1.62    0.48 
   1   8   2    2.00    0.53 
   1   8   2    1.60    0.49 
  -1  -8   2    1.48    0.47 
  -8   1  -2    1.21    0.48 
  -1  -8   2    1.07    0.51 
  -8   1  -2    2.24    0.47 
  -1  -8  -2    2.05    0.56 
  -8   1   2    1.44    0.44 
  -8   1   2    2.67    0.50 
   1   8  -2    1.80    0.45 
  -8   2  -2    6.54    0.75 
   2   8  -2    7.82    0.74 
  -2  -8   2    8.41    0.91 
   2   8   2    6.51    0.79 
   2   8  -2    7.27    0.79 
  -8   2   2    5.68    0.74 
  -8   2  -2    7.35    0.73 
  -2  -8  -2    7.51    0.87 
  -2  -8   2    7.46    0.76 
  -2  -8  -2    6.55    0.94 
   2   8   2    8.13    0.80 
  -8   2   2    8.31    0.80 
  -8   3  -2    0.56    0.44 
  -3  -8   2    0.59    0.51 
  -3  -8   2    0.12    0.52 
  -8   3   2    0.30    0.42 
   3   8   2    0.25    0.45 
   3   8  -2    1.40    0.46 
   3   8  -2    0.91    0.43 
   3   8   2   -0.09    0.45 
  -3  -8  -2    0.22    0.53 
  -4  -8   2    6.36    0.84 
  -8   4  -2    4.11    0.69 
   4   8   2    5.89    0.70 
  -8   4   2    4.59    0.71 
  -4  -8  -2    4.52    0.79 
  -5  -8   2    0.83    0.59 
  -8   5  -2    0.29    0.52 
  -5  -8  -2    0.57    0.64 
  -8   5   2    0.56    0.54 
  -6  -8   2    3.43    0.85 
  -6  -8  -2    1.15    0.81 
  -8   6   2    2.85    0.75 
  -9  -4   2    0.07    0.81 
  -4   9  -2    0.52    0.63 
  -3   9  -2   14.28    1.18 
  -3   9   2   11.86    1.12 
  -9  -3   2   14.57    1.57 
  -2   9  -2   -0.02    0.45 
   2  -9  -2   -0.10    0.44 
  -2   9   2   -0.03    0.48 
  -1   9   2   20.70    1.37 
  -9  -1  -2   19.68    1.37 
   1  -9  -2   19.77    1.34 
  -1   9  -2   17.95    1.32 
  -9  -1   2   18.11    1.34 
   0  -9  -2    0.83    0.54 
   0   9   2    0.76    0.52 
   0   9  -2    0.70    0.50 
  -9   0   2    0.60    0.47 
  -9   0  -2    0.58    0.46 
  -9   1   2   19.04    1.36 
  -1  -9   2   19.16    1.29 
   1   9  -2   20.13    1.30 
  -1  -9  -2   18.59    1.36 
   1   9   2   18.78    1.31 
  -9   1  -2   18.07    1.35 
   2   9  -2    0.16    0.47 
  -2  -9  -2   -0.05    0.56 
  -9   2  -2   -0.29    0.42 
  -9   2   2   -0.46    0.42 
  -2  -9   2    0.55    0.51 
   2   9   2    0.47    0.53 
   3   9  -2   13.29    1.07 
  -9   3   2   13.34    1.14 
  -3  -9  -2   15.08    1.26 
   3   9   2   13.78    1.09 
  -3  -9   2   13.57    1.12 
  -9   3  -2   12.75    1.14 
  -4  -9  -2    0.54    0.63 
   4   9   2    0.03    0.54 
  -4  -9   2   -0.36    0.60 
  -9   4  -2    0.16    0.54 
  -9   4   2   -0.34    0.52 
   1 -10  -2    0.04    0.59 
  -1  10  -2   -0.59    0.54 
  -1  10   2   -0.31    0.57 
 -10  -1  -2   -0.54    0.48 
   0 -10  -2    3.10    0.75 
   0  10  -2    3.31    0.72 
 -10   0   2    2.98    0.66 
 -10   0  -2    0.59    0.59 
   0  10   2    2.82    0.69 
 -10   1   2    0.21    0.52 
  -1 -10  -2   -1.20    0.56 
   1  10   2   -0.32    0.48 
 -10   1  -2    0.44    0.51 
   1  10  -2    0.25    0.54 
   0   0  -3  173.72    8.71 
   0   0   3  172.47    8.74 
   0   0   3  170.24    9.04 
   0   1  -3  416.88   20.52 
  -1   0  -3  424.47   20.50 
   1   0   3  374.55   21.38 
   0  -1   3  441.46   21.23 
   0  -1  -3  416.71   20.72 
   0  -1   3  389.06   20.60 
   0   1   3  425.25   21.22 
  -1   0   3  418.93   20.77 
  -1   0   3  403.85   21.32 
   0   1   3  425.39   20.73 
  -1   1   3    3.21    0.27 
   1   1   3    3.38    0.37 
   1  -1  -3    2.89    0.31 
  -1  -1   3    3.33    0.28 
  -1  -1  -3    3.72    0.37 
  -1   1   3    3.04    0.62 
  -1  -1   3    3.09    0.29 
   1   1  -3    3.48    0.33 
  -1   1  -3    3.38    0.28 
  -1  -1  -3    3.21    0.28 
   1  -1   3    3.42    0.38 
  -1   2   3  388.14   19.42 
  -1   2  -3  377.46   19.05 
  -2  -1  -3  384.11   19.22 
  -2  -1   3  390.61   19.30 
   2   1   3  397.41   19.84 
   1  -2   3  382.00   19.79 
   1  -2   3  369.63   19.18 
  -2  -1   3  379.62   19.74 
  -2  -1  -3  382.07   19.10 
  -2  -1   3  403.29   19.08 
  -2   0  -3  355.52   17.88 
   0   2   3  360.21   18.42 
   0  -2   3  354.82   17.89 
   2   0   3  330.84   18.67 
   0  -2  -3  386.96   18.06 
   0  -2   3  338.91   18.41 
   0   2  -3  358.12   17.76 
  -2   0   3  367.30   17.78 
  -2   0   3  368.55   18.09 
  -2   0  -3  366.56   17.79 
   0   2   3  361.22   18.02 
   1   2  -3  382.90   19.12 
  -1  -2   3  363.15   19.18 
  -2   1   3  408.12   19.06 
  -2   1  -3  414.29   19.05 
   2  -1   3  375.37   19.84 
  -2   1   3  375.55   19.66 
  -1  -2   3  382.72   19.69 
  -2   1   3  403.31   19.49 
   1   2   3  354.51   19.72 
  -2  -2  -3   51.31    2.86 
   2   2  -3   55.78    2.82 
  -2   2   3   54.93    2.91 
   2  -2   3   54.04    2.79 
  -2  -2  -3   57.30    2.90 
  -2   2   3   62.67    3.24 
  -2  -2   3   53.52    2.90 
   2   2   3   54.92    2.98 
  -2   2   3   58.07    2.87 
  -2  -2   3   52.62    2.90 
   2  -3  -3  310.26   15.08 
  -3  -2   3  289.70   15.22 
  -2   3   3  295.54   15.55 
  -3  -2  -3  315.19   15.05 
  -2   3  -3  313.92   15.01 
   2  -3   3  323.53   15.10 
  -3  -2   3  278.24   15.00 
  -2   3   3  289.00   15.35 
   2  -3   3  300.81   15.61 
   3   2   3  319.74   15.61 
  -3  -2   3  294.04   15.51 
   1  -3   3    6.18    0.45 
  -3  -1   3    7.68    0.50 
   1  -3  -3    8.06    0.60 
   1  -3   3    7.00    0.56 
  -3  -1   3    7.63    0.64 
  -1   3  -3    7.64    0.45 
  -3  -1  -3    6.96    0.51 
  -1   3   3    7.47    0.52 
  -3  -1  -3    7.83    0.53 
   3   1   3    7.03    0.60 
  -1   3   3    8.77    0.72 
   0   3   3  269.51   14.06 
   0   3  -3  278.98   13.78 
  -3   0  -3  289.95   13.86 
   0   3   3  275.53   14.35 
  -3   0  -3  289.95   13.96 
   3   0   3  266.96   14.66 
  -3   0   3  284.27   14.18 
   0  -3   3  266.00   13.93 
   0   3  -3  288.90   14.36 
  -3   1  -3    6.79    0.53 
  -3   1   3    6.79    0.43 
   1   3   3    9.05    0.57 
  -3   1   3    7.61    0.95 
  -1  -3   3    7.17    0.52 
  -1  -3  -3    7.53    0.66 
   1   3  -3    7.57    0.52 
   3  -1   3    8.27    0.88 
  -3   1  -3    8.23    0.52 
  -1  -3  -3    7.60    0.59 
  -3   1   3    7.10    0.52 
   2   3   3  315.18   16.06 
  -2  -3  -3  306.78   15.49 
   2   3  -3  301.33   16.01 
   3  -2   3  314.23   16.15 
  -3   2  -3  330.70   15.48 
  -3   2   3  301.70   15.50 
  -2  -3   3  286.44   15.62 
  -2  -3  -3  317.66   15.68 
  -3   2   3  319.27   15.99 
   2   3  -3  324.83   15.49 
  -3   3   3    7.79    0.88 
  -3   3   3    6.01    0.58 
  -3  -3  -3    8.39    0.65 
  -3   3   3    8.78    0.81 
  -3  -3   3    8.16    0.67 
  -3  -3  -3    7.89    0.55 
   3   3   3    8.53    0.61 
  -3  -3   3    7.32    0.58 
  -3   3   3    7.23    0.59 
  -3   3   3    8.37    0.56 
  -3   3  -3    7.87    0.54 
   3   3   3    7.80    0.55 
  -3   3  -3    8.86    0.63 
  -3  -3  -3    7.98    0.58 
   3   3  -3    7.35    0.53 
  -3   4  -3  112.98    5.19 
  -3   4   3   98.79    5.08 
   4   3   3  105.80    5.74 
  -4  -3   3  110.14    5.70 
  -3   4   3  110.36    5.54 
  -3   4   3  115.42    5.74 
  -3   4   3  107.40    5.12 
  -3   4   3  103.31    5.79 
  -4  -3  -3  106.32    5.51 
  -4  -3  -3  116.28    5.68 
  -4  -3  -3  112.24    4.99 
   3  -4   3  108.33    5.81 
  -3   4  -3  105.65    5.50 
  -4  -3   3  108.51    5.01 
   4   3   3  110.57    5.14 
  -3   4  -3  113.28    5.47 
   4   2   3   80.88    4.34 
  -4  -2   3   76.50    4.13 
  -4  -2  -3   85.66    4.14 
   2  -4   3   81.75    4.37 
  -4  -2   3   84.44    3.81 
  -2   4   3   84.93    4.33 
  -4  -2  -3   82.41    4.16 
  -2   4  -3   78.17    4.12 
  -2   4   3   72.76    4.37 
  -4  -2   3   87.26    4.34 
  -2   4  -3   83.33    3.90 
  -4  -2  -3   87.28    4.27 
  -2   4   3   77.30    3.86 
  -2   4   3   78.89    3.86 
   1  -4   3  222.36   10.60 
  -4  -1   3  192.71    9.16 
   1  -4  -3  208.21   10.31 
  -1   4   3  208.34   10.46 
  -1   4  -3  202.71    9.45 
  -4  -1   3  198.22   10.19 
  -4  -1  -3  215.48   10.21 
  -4  -1  -3  194.22   10.11 
  -1   4   3  185.40   10.56 
  -1   4   3  201.78    9.18 
   4   1   3  194.32   10.60 
  -1   4  -3  214.09   10.13 
  -1   4   3  214.29    9.46 
  -4  -1   3  203.39   10.44 
   1  -4   3  204.52   10.25 
  -4  -1  -3  207.79   10.32 
  -4   0   3   46.39    2.72 
   0  -4   3   44.71    2.42 
   0  -4  -3   39.13    2.66 
  -4   0   3   43.64    2.38 
  -4   0   3   46.11    2.40 
   0   4   3   50.38    2.26 
   0   4  -3   48.95    2.26 
  -4   0  -3   47.92    2.50 
  -4   0  -3   48.63    2.43 
  -4   0  -3   47.17    2.41 
   0   4   3   43.30    2.25 
   0   4   3   44.39    2.52 
  -4   0   3   45.69    2.41 
   0  -4  -3   45.24    2.56 
   0   4  -3   49.70    2.53 
  -4   1   3  188.13    9.33 
   1   4   3  188.36    8.93 
  -1  -4   3  203.57   10.08 
   1   4  -3  192.30    9.22 
  -4   1  -3  216.04   10.00 
  -4   1   3  207.34   10.69 
   1   4   3  196.85   10.36 
  -1  -4   3  190.92    8.85 
  -1  -4  -3  199.26   10.06 
   1   4   3  194.98    9.25 
  -4   1  -3  212.95    9.91 
   4  -1   3  186.68   10.68 
  -1  -4  -3  215.63   10.18 
  -4   1   3  197.56    9.91 
   1   4  -3  206.82   10.35 
  -2  -4   3   80.43    3.76 
  -4   2   3   90.49    4.20 
   2   4  -3   83.75    3.88 
  -4   2   3   83.22    4.27 
   2   4  -3   82.16    4.35 
  -2  -4  -3   85.16    3.82 
   2   4   3   85.51    3.92 
  -4   2  -3   81.64    4.18 
  -2  -4   3   74.15    4.26 
  -2  -4  -3   80.86    4.33 
  -4   2  -3   87.74    4.22 
   4  -2   3   77.65    4.56 
  -4   2   3   79.32    4.79 
  -4   2   3   83.18    4.23 
   2   4   3   78.88    4.38 
  -3  -4  -3  103.24    5.70 
  -4   3   3  109.78    5.60 
   3   4  -3  109.71    5.73 
  -4   3  -3  103.18    5.51 
  -3  -4  -3  115.40    5.04 
   4  -3   3  107.20    5.28 
   3   4   3  111.37    5.80 
  -3  -4   3  108.24    4.99 
  -4   3   3  108.71    5.26 
   3   4  -3  109.45    5.12 
  -3  -4   3  114.56    5.69 
  -4   3  -3  112.00    5.56 
  -4   3   3  111.46    5.99 
   3   4   3  110.02    5.17 
  -4   4   3   19.22    1.43 
  -4  -4   3   18.07    1.29 
  -4  -4   3   19.86    1.17 
  -4  -4  -3   20.68    1.33 
  -4   4  -3   22.44    1.18 
  -4  -4  -3   19.73    1.17 
  -4   4   3   19.81    1.21 
  -4   4   3   19.51    1.22 
  -4   4   3   17.86    1.26 
   4   4   3   19.29    1.11 
  -4   4  -3   19.98    1.21 
   4   4   3   19.36    1.22 
  -4   4  -3   19.58    1.15 
  -4   5  -3   63.32    3.31 
   4  -5   3   65.94    3.71 
  -4   5   3   65.58    3.74 
  -5  -4   3   68.51    3.24 
  -4   5   3   64.25    3.51 
  -5  -4   3   64.91    3.66 
  -5  -4  -3   68.81    3.67 
   4  -5  -3   66.72    3.55 
  -5  -4  -3   66.18    3.23 
  -3   5   3    3.02    0.44 
  -3   5   3    2.93    0.53 
  -5  -3  -3    4.32    0.53 
  -3   5   3    3.22    0.49 
  -5  -3   3    2.42    0.50 
  -5  -3  -3    3.51    0.54 
  -3   5   3    3.28    0.39 
   3  -5  -3    2.50    0.46 
  -3   5   3    3.03    0.60 
  -3   5  -3    3.50    0.45 
   3  -5   3    4.23    0.55 
  -5  -3   3    3.65    0.59 
  -5  -3  -3    3.91    0.41 
  -5  -2  -3   84.38    4.47 
  -2   5   3   83.93    4.65 
   2  -5   3   82.08    4.68 
  -2   5  -3   89.86    4.20 
  -5  -2   3   89.95    4.15 
  -5  -2   3   87.82    4.46 
   2  -5  -3   86.72    4.57 
  -5  -2   3   89.74    4.70 
  -2   5   3   81.87    4.16 
  -5  -2  -3   88.73    4.05 
  -2   5   3   86.03    4.13 
  -5  -2  -3   87.67    4.44 
  -2   5   3   94.12    4.74 
  -5  -2  -3   88.40    4.61 
  -1   5  -3    4.96    0.52 
  -1   5   3    4.99    0.48 
   1  -5   3    4.22    0.41 
  -1   5   3    4.65    0.57 
  -5  -1  -3    4.82    0.46 
  -1   5   3    5.07    0.45 
  -1   5  -3    4.00    0.43 
  -5  -1  -3    4.94    0.58 
  -5  -1  -3    4.34    0.45 
  -5  -1   3    5.27    0.70 
  -5  -1   3    4.60    0.45 
   1  -5  -3    5.23    0.66 
  -5  -1   3    4.03    0.42 
  -5  -1   3    3.78    0.58 
  -5   0   3  153.21    7.26 
   0  -5   3  140.27    7.29 
  -5   0  -3  140.87    7.18 
   0   5   3  142.82    6.54 
  -5   0   3  135.73    7.17 
   0   5  -3  136.74    6.70 
  -5   0   3  156.98    7.71 
  -5   0   3  134.88    6.70 
   0  -5   3  137.95    6.40 
   0   5   3  128.76    7.50 
   0   5  -3  140.95    7.51 
   0   5   3  149.28    6.72 
  -5   0  -3  154.15    7.26 
   0  -5  -3  154.89    7.47 
   1   5   3    4.76    0.52 
  -5   1  -3    4.47    0.46 
  -5   1   3    3.64    0.84 
  -5   1  -3    5.05    0.47 
  -5   1   3    5.21    1.06 
   1   5   3    5.11    0.55 
  -1  -5  -3    4.73    0.60 
   1   5   3    4.42    0.45 
  -1  -5   3    4.69    0.43 
  -1  -5   3    4.62    0.49 
  -5   1   3    4.44    0.48 
  -5   1   3    4.82    0.47 
   1   5  -3    4.47    0.46 
   1   5  -3    4.53    0.42 
  -5   2   3   86.46    4.48 
   2   5   3   89.63    4.16 
  -2  -5   3   92.27    4.56 
  -2  -5   3   84.71    3.98 
   2   5  -3   87.46    4.61 
  -5   2   3   88.34    4.51 
  -2  -5  -3   86.54    4.61 
   2   5  -3   86.28    4.11 
   2   5   3   84.78    4.65 
  -5   2   3   80.25    5.01 
  -2  -5  -3   82.81    4.06 
  -5   2  -3   87.75    4.46 
  -5   2   3   89.79    4.44 
  -5   3  -3    3.81    0.44 
  -3  -5  -3    5.12    0.62 
  -3  -5  -3    2.84    0.49 
  -5   3  -3    3.98    0.44 
  -5   3   3    2.44    0.42 
  -5   3   3    3.24    0.73 
  -3  -5   3    4.46    0.51 
  -3  -5   3    4.85    0.58 
  -5   3   3    3.68    0.79 
  -5   3   3    3.65    0.47 
   3   5   3    3.65    0.43 
   3   5   3    4.14    0.50 
   3   5  -3    4.06    0.46 
   3   5  -3    3.75    0.39 
  -5   4   3   73.42    3.61 
  -5   4  -3   65.46    3.57 
  -4  -5  -3   77.14    3.84 
   4   5   3   64.40    3.32 
  -5   4   3   61.39    3.60 
  -5   4   3   65.92    3.89 
  -5   4   3   69.14    3.45 
  -4  -5  -3   71.40    3.35 
   4   5   3   64.39    3.72 
  -4  -5   3   71.59    3.29 
  -5   4  -3   68.01    3.56 
  -4  -5   3   65.52    3.71 
  -5   5  -3    4.11    0.50 
  -5   5   3    4.01    0.56 
  -5   5  -3    3.88    0.50 
  -5  -5  -3    3.76    0.64 
  -5   5   3    3.52    0.65 
  -5   5   3    3.32    0.56 
  -5  -5  -3    3.79    0.73 
  -5  -5   3    3.31    0.60 
  -5   5   3    2.74    0.70 
  -5  -5   3    5.09    0.72 
  -6  -5  -3   21.71    1.48 
  -6  -5   3   22.54    1.63 
  -6  -5   3   23.26    1.51 
  -5   6   3   21.51    1.50 
  -6  -5  -3   20.28    1.60 
   4  -6   3    8.35    0.88 
  -4   6   3    9.00    0.91 
  -4   6   3   10.32    1.06 
  -6  -4   3   11.07    0.98 
  -6  -4  -3    9.95    0.99 
  -6  -4  -3    9.65    0.90 
  -4   6  -3    9.01    0.84 
  -6  -4   3   10.19    1.06 
  -6  -3   3   57.37    3.18 
  -6  -3   3   55.08    2.81 
  -6  -3  -3   57.81    3.15 
  -3   6   3   59.40    2.80 
  -6  -3  -3   53.58    2.76 
  -3   6   3   48.76    2.73 
   3  -6   3   54.05    3.12 
   3  -6  -3   56.03    3.17 
  -3   6   3   57.55    3.17 
  -3   6  -3   52.17    2.79 
  -3   6   3   49.24    3.04 
  -6  -2   3   12.17    1.07 
  -2   6   3   11.93    0.85 
  -6  -2  -3   11.30    0.85 
   2  -6   3   12.60    0.95 
  -2   6   3   11.04    0.89 
  -6  -2  -3   11.96    0.84 
  -6  -2   3   10.85    0.98 
  -2   6  -3   13.52    0.90 
  -6  -2   3   13.23    0.83 
   2  -6  -3   11.51    1.02 
  -2   6   3   12.61    0.96 
  -1   6   3   75.93    3.40 
  -6  -1  -3   65.90    3.61 
  -6  -1   3   66.35    3.57 
  -1   6  -3   71.32    3.79 
  -6  -1  -3   70.90    3.60 
  -1   6  -3   68.92    3.38 
  -6  -1   3   63.04    3.91 
  -6  -1   3   65.63    3.60 
   1  -6  -3   76.23    3.88 
  -6  -1   3   69.04    3.50 
  -1   6   3   61.84    3.75 
  -1   6   3   72.39    3.39 
   0   6  -3   24.73    1.43 
  -6   0   3   25.31    1.52 
  -6   0  -3   25.55    1.53 
   0   6   3   28.78    1.54 
   0   6   3   26.22    1.49 
  -6   0   3   28.78    1.82 
  -6   0   3   27.21    1.53 
   0   6  -3   25.38    1.60 
   0  -6   3   27.29    1.55 
  -6   0   3   26.02    1.98 
   0  -6   3   26.46    1.37 
   0  -6  -3   27.84    1.71 
  -6   0  -3   26.26    1.54 
   0   6   3   24.33    1.61 
   1   6  -3   72.43    3.75 
  -1  -6  -3   70.90    3.78 
  -6   1   3   75.82    3.64 
   1   6   3   65.98    3.76 
  -1  -6   3   68.50    3.22 
  -6   1   3   68.23    4.20 
   1   6  -3   67.81    3.33 
  -1  -6   3   67.11    3.65 
  -6   1  -3   63.78    3.59 
  -6   1   3   63.13    3.67 
  -6   1   3   70.75    3.59 
  -1  -6  -3   67.65    3.32 
   1   6   3   67.64    3.37 
  -6   1  -3   70.74    3.59 
  -6   2   3   10.09    1.27 
   2   6  -3   12.38    0.80 
  -2  -6   3   13.09    0.93 
  -6   2  -3   11.00    0.83 
  -2  -6  -3   11.06    0.95 
  -6   2  -3   12.79    0.88 
  -6   2   3   11.73    1.49 
  -6   2   3   10.20    0.85 
  -6   2   3   12.78    0.87 
   2   6  -3   11.86    0.86 
   2   6   3   12.65    0.91 
  -2  -6  -3   10.53    0.86 
  -2  -6   3   11.47    0.83 
   2   6   3   12.43    0.84 
   3   6   3   57.26    3.14 
   3   6  -3   58.67    2.77 
  -3  -6   3   60.03    3.13 
  -6   3   3   58.40    3.52 
  -3  -6   3   51.06    2.73 
  -3  -6  -3   55.54    2.84 
  -6   3   3   57.88    3.13 
  -6   3  -3   55.58    3.00 
  -3  -6  -3   55.40    3.18 
  -6   3   3   56.19    3.04 
   3   6  -3   53.22    3.08 
  -6   3  -3   50.04    2.97 
   3   6   3   57.76    2.83 
  -6   4   3    9.34    0.80 
   4   6   3    9.23    0.79 
  -4  -6   3    9.69    0.83 
  -4  -6  -3    9.10    0.89 
  -4  -6   3    8.83    0.87 
  -6   4  -3    7.99    0.73 
   4   6   3    8.21    0.75 
  -4  -6  -3    9.77    0.95 
  -6   4  -3    8.16    0.79 
  -6   4   3    9.19    0.80 
  -6   5  -3   18.74    1.38 
  -5  -6  -3   23.86    1.54 
  -6   5  -3   22.03    1.41 
  -5  -6   3   24.01    1.61 
  -6   5   3   22.18    1.48 
  -5  -6   3   21.88    1.44 
  -6   5   3   22.40    1.47 
  -5  -6  -3   23.21    1.69 
  -6  -6  -3    2.46    0.79 
  -6  -6  -3    2.20    0.70 
  -6   6   3    1.39    0.58 
  -6  -6   3    3.26    0.70 
  -7  -6  -3   11.64    1.27 
  -7  -6   3   10.30    1.19 
  -7  -5   3    1.48    0.68 
  -7  -5  -3    0.35    0.60 
  -4   7   3   18.94    1.32 
  -7  -4   3   18.88    1.54 
  -4   7  -3   18.16    1.29 
  -7  -4   3   20.40    1.46 
   4  -7   3   18.61    1.44 
  -3   7   3    3.30    0.53 
  -3   7   3    3.41    0.63 
   3  -7   3    2.88    0.62 
  -3   7   3    2.96    0.56 
   3  -7  -3    3.31    0.71 
  -3   7  -3    2.42    0.57 
  -7  -3   3    2.98    0.72 
  -7  -3   3    3.84    0.80 
  -7  -2  -3   41.76    2.34 
  -2   7  -3   39.98    2.22 
  -7  -2  -3   42.61    2.34 
  -2   7   3   40.79    2.25 
  -7  -2   3   40.92    2.70 
   2  -7   3   44.72    2.53 
  -2   7   3   39.88    2.22 
   2  -7  -3   46.31    2.60 
  -7  -2   3   43.04    2.41 
  -2   7   3   38.58    2.45 
  -7  -1   3    2.44    0.77 
  -7  -1   3    3.22    0.47 
  -7  -1  -3    3.07    0.49 
   1  -7   3    3.00    0.51 
  -1   7   3    3.14    0.55 
  -7  -1   3    3.13    0.48 
  -7  -1   3    1.64    0.72 
  -7  -1  -3    3.98    0.52 
  -1   7   3    2.28    0.49 
  -1   7  -3    2.77    0.47 
  -1   7   3    3.73    0.63 
   1  -7  -3    3.31    0.65 
  -7   0   3   40.71    2.17 
   0   7  -3   37.02    2.03 
  -7   0  -3   35.84    2.16 
  -7   0   3   38.60    2.17 
   0   7   3   37.37    2.28 
   0   7   3   38.08    2.06 
  -7   0   3   37.99    2.44 
  -7   0  -3   36.85    2.16 
   0   7  -3   38.77    2.27 
   0  -7  -3   38.21    2.07 
   0  -7  -3   41.85    2.38 
   0  -7   3   39.72    2.20 
   0  -7   3   35.93    1.92 
  -7   0   3   40.80    2.82 
  -7   1   3    3.86    0.95 
   1   7   3    2.22    0.46 
  -7   1   3    2.32    0.80 
  -1  -7   3    3.56    0.49 
  -7   1  -3    3.14    0.46 
   1   7  -3    2.55    0.46 
   1   7   3    3.42    0.56 
  -7   1   3    2.69    0.47 
  -1  -7   3    3.10    0.53 
  -7   1  -3    3.02    0.50 
   1   7  -3    3.11    0.52 
  -1  -7  -3    2.52    0.61 
  -1  -7  -3    2.75    0.56 
  -7   1   3    3.34    0.50 
   2   7  -3   43.30    2.45 
  -2  -7  -3   44.83    2.28 
  -7   2   3   40.42    2.72 
  -7   2   3   45.51    2.37 
   2   7  -3   41.29    2.18 
  -7   2   3   38.74    2.35 
  -2  -7   3   44.74    2.46 
  -2  -7   3   41.30    2.15 
   2   7   3   43.92    2.50 
  -2  -7  -3   37.05    2.50 
  -7   2  -3   40.97    2.35 
  -7   2  -3   42.48    2.36 
   2   7   3   40.77    2.23 
  -3  -7  -3    2.83    0.66 
  -7   3   3    2.79    0.55 
   3   7   3    3.11    0.53 
   3   7  -3    2.93    0.48 
  -7   3   3    3.21    0.54 
   3   7  -3    2.59    0.51 
  -3  -7   3    3.13    0.58 
  -7   3  -3    2.61    0.50 
  -7   3  -3    2.75    0.52 
   3   7   3    2.89    0.57 
  -3  -7  -3    3.05    0.70 
  -3  -7   3    2.73    0.61 
  -7   4  -3   18.42    1.25 
  -7   4  -3   17.80    1.26 
   4   7   3   20.05    1.35 
  -4  -7  -3   18.13    1.48 
  -4  -7   3   20.18    1.30 
  -7   4   3   19.04    1.31 
   4   7   3   17.98    1.21 
  -4  -7   3   17.10    1.36 
  -4  -7  -3   18.47    1.36 
  -7   4   3   17.48    1.29 
  -7   5  -3    0.91    0.45 
  -7   5  -3    1.85    0.52 
  -5  -7  -3    1.79    0.69 
  -5  -7   3    0.54    0.58 
  -7   5   3    1.34    0.54 
  -6  -7   3   11.45    1.19 
  -7   6   3   10.15    1.13 
  -6  -7  -3   12.18    1.27 
  -7  -7   3    0.71    0.76 
  -7  -7  -3    0.38    0.80 
  -8  -6   3    0.07    0.74 
  -8  -5   3    9.69    1.21 
  -4   8  -3    0.70    0.60 
  -8  -4   3    2.03    0.76 
  -8  -3   3   14.48    1.41 
  -3   8   3   15.27    1.20 
  -3   8  -3   14.08    1.10 
  -8  -3   3   15.82    1.61 
  -3   8   3   13.26    1.18 
  -3   8   3   13.14    1.07 
  -8  -2  -3    3.42    0.53 
  -2   8   3    3.35    0.57 
  -8  -2  -3    3.35    0.58 
  -2   8   3    2.75    0.63 
   2  -8   3    4.09    0.70 
  -8  -2   3    3.04    0.92 
  -2   8  -3    3.90    0.62 
  -8  -2   3    2.35    0.79 
  -2   8   3    4.13    0.71 
   2  -8  -3    2.81    0.70 
  -8  -1   3   24.18    2.09 
   1  -8  -3   19.95    1.44 
  -8  -1   3   21.69    1.48 
  -8  -1   3   26.16    1.54 
   1  -8   3   23.96    1.62 
  -8  -1  -3   25.75    1.53 
   1  -8  -3   25.11    1.71 
  -1   8  -3   21.46    1.44 
  -1   8   3   22.45    1.45 
  -8  -1  -3   23.68    1.54 
  -1   8   3   23.96    1.62 
  -8  -1   3   24.88    1.89 
  -8   0  -3    3.62    0.55 
  -8   0   3    4.11    0.60 
  -8   0  -3    3.88    0.59 
   0  -8  -3    3.46    0.66 
  -8   0   3    3.43    1.10 
   0   8   3    3.47    0.63 
  -8   0   3    3.85    0.56 
   0   8  -3    3.76    0.61 
   0   8   3    2.40    0.54 
   0   8  -3    3.13    0.54 
   0  -8  -3    2.65    0.68 
  -1  -8   3   23.66    1.34 
   1   8  -3   20.90    1.35 
   1   8  -3   18.90    1.47 
  -8   1   3   21.58    1.45 
  -8   1   3   24.99    1.49 
  -1  -8  -3   20.83    1.46 
   1   8   3   20.34    1.39 
  -8   1  -3   22.80    1.45 
  -1  -8   3   24.50    1.54 
  -8   1  -3   24.61    1.49 
  -1  -8  -3   22.51    1.62 
   1   8   3   21.77    1.53 
   2   8   3    4.86    0.64 
  -2  -8   3    4.63    0.72 
  -2  -8  -3    3.26    0.69 
  -8   2   3    3.62    0.60 
  -8   2  -3    3.75    0.63 
   2   8  -3    3.02    0.55 
  -2  -8   3    3.20    0.59 
   2   8   3    3.53    0.65 
  -2  -8  -3    4.06    0.81 
  -8   2  -3    2.67    0.55 
  -8   2   3    3.59    0.61 
   2   8  -3    2.89    0.61 
  -8   3  -3   16.72    1.18 
  -3  -8   3   14.39    1.12 
  -8   3   3   15.44    1.18 
   3   8  -3   14.32    1.06 
   3   8   3   14.96    1.14 
  -3  -8  -3   14.34    1.24 
  -8   4   3    2.23    0.62 
  -8   4  -3    0.51    0.51 
   4   8   3    1.42    0.53 
  -4  -8  -3    1.68    0.70 
  -4  -8   3    2.38    0.66 
  -8   5   3    9.14    1.03 
  -5  -8  -3   10.56    1.20 
  -8   5  -3    9.16    1.00 
  -5  -8   3    9.66    1.08 
  -6  -8   3    0.44    0.67 
  -6  -8  -3    0.44    0.76 
  -8   6   3    0.19    0.59 
  -9  -4   3    6.70    1.16 
  -4   9  -3    6.26    0.91 
  -9  -3   3    0.34    0.79 
  -3   9   3    0.95    0.58 
  -3   9  -3   -0.02    0.56 
  -2   9   3    9.37    0.90 
  -2   9  -3    7.95    0.88 
   2  -9  -3    8.41    0.91 
  -9  -2   3    7.69    1.29 
  -9  -1  -3    1.09    0.54 
  -9  -1   3    0.71    0.48 
  -1   9  -3    0.97    0.54 
   1  -9  -3    1.97    0.61 
  -1   9   3    1.00    0.53 
  -9   0   3   12.06    1.07 
  -9   0  -3   13.41    1.10 
   0   9   3   12.65    1.06 
   0  -9  -3   12.54    1.10 
   0   9  -3   12.54    1.04 
   1   9   3    0.45    0.56 
  -1  -9  -3    0.27    0.60 
  -1  -9   3    1.07    0.52 
  -9   1  -3    1.88    0.56 
  -9   1   3    0.97    0.51 
   1   9  -3    0.03    0.52 
   2   9   3    8.38    0.91 
  -2  -9   3   10.50    0.97 
  -2  -9  -3    9.94    1.10 
  -9   2   3    8.80    0.94 
   2   9  -3    9.70    0.91 
  -9   2  -3    8.37    0.93 
   3   9   3    1.42    0.59 
  -9   3   3   -0.11    0.52 
  -9   3  -3    1.09    0.54 
  -3  -9   3    0.36    0.54 
  -3  -9  -3    0.39    0.63 
   3   9  -3    0.43    0.50 
   4   9   3    6.26    0.85 
  -4  -9   3    7.91    0.96 
  -9   4   3    8.30    0.98 
  -9   4  -3    7.97    0.95 
  -4  -9  -3    6.37    1.03 
  -1  10  -3    4.97    0.82 
   1 -10  -3    5.06    0.85 
 -10  -1  -3    5.61    0.84 
  -1  10   3    5.03    0.82 
   0 -10  -3   -1.11    0.55 
   0  10  -3    1.00    0.59 
 -10   0   3    0.49    0.58 
 -10   0  -3    0.41    0.56 
   0  10   3    0.42    0.61 
   1  10   3    4.21    0.75 
  -1 -10  -3    5.27    0.94 
   1  10  -3    4.75    0.76 
 -10   1  -3    5.75    0.81 
 -10   1   3    3.71    0.76 
   0   0   4  317.94   17.38 
   0   0   4  347.12   16.87 
   0   0  -4  341.22   16.77 
   0   1  -4   28.77    1.68 
   0   1   4   29.87    1.66 
   0  -1  -4   29.33    1.81 
   0  -1   4   25.67    1.55 
   1   0  -4   28.77    1.62 
   1   0   4   32.26    1.87 
  -1   0   4   27.39    1.72 
   0   1   4   29.30    1.73 
  -1   0   4   28.48    1.76 
  -1   0  -4   26.65    1.60 
   0  -1   4   33.24    1.69 
  -1  -1   4    2.81    0.35 
   1   1   4    3.43    0.43 
  -1  -1   4    4.09    0.38 
  -1   1   4    3.21    0.56 
   1  -1  -4    3.63    0.40 
  -1  -1  -4    3.61    0.46 
   1   1   4    2.67    0.33 
  -1   1  -4    3.64    0.34 
  -1   1   4    3.76    0.34 
   1   1  -4    3.20    0.42 
   1  -1   4    4.71    0.49 
  -1   2   4    3.85    0.33 
  -2  -1  -4    4.19    0.34 
  -2  -1  -4    3.89    0.39 
   2   1  -4    3.41    0.33 
   1  -2  -4    3.65    0.44 
   1  -2   4    4.25    0.41 
   2   1   4    4.21    0.52 
  -2  -1   4    3.98    0.38 
  -2  -1   4    3.65    0.44 
  -1   2  -4    3.86    0.33 
  -1   2   4    4.10    0.59 
   1  -2   4    3.85    0.28 
   0   2  -4  243.87   12.55 
   0  -2  -4  268.24   12.94 
   2   0  -4  248.04   12.57 
  -2   0  -4  246.48   12.59 
   0   2   4  260.15   12.80 
   0  -2   4  265.49   13.04 
   0  -2   4  236.73   12.62 
  -2   0   4  249.96   12.86 
  -2   0   4  264.55   13.03 
  -2   0  -4  259.19   12.59 
   2   0   4  235.87   13.24 
  -1  -2  -4    3.65    0.41 
  -1  -2  -4    3.37    0.54 
  -1  -2   4    3.58    0.35 
   1   2  -4    4.06    0.46 
  -2   1   4    3.55    0.30 
  -1  -2   4    3.66    0.34 
  -2   1  -4    3.53    0.34 
   2  -1   4    3.86    0.58 
   1   2   4    3.34    0.38 
  -2   1   4    3.67    0.57 
   2  -1  -4    4.51    0.40 
  -2  -2   4  326.23   18.42 
  -2   2   4  364.15   18.43 
  -2   2  -4  374.78   17.83 
  -2  -2   4  349.91   18.01 
   2   2   4  337.81   18.51 
   2   2  -4  355.39   17.85 
  -2   2   4  390.64   18.45 
  -2  -2  -4  363.42   17.89 
  -2  -2  -4  372.68   18.02 
  -2   3   4    9.48    0.96 
  -2   3  -4   12.60    0.77 
  -3  -2  -4   11.61    0.75 
  -3  -2  -4   10.77    0.74 
  -3  -2   4   10.86    0.68 
  -2   3   4   11.22    0.71 
  -3  -2   4   10.87    0.79 
  -3  -2   4   10.85    0.71 
   3   2  -4    9.55    0.67 
   2  -3  -4   11.62    0.78 
   2  -3   4   10.59    0.80 
   3   2   4   11.05    0.79 
  -2   3   4   11.77    0.92 
   3   1   4   17.82    1.09 
  -3  -1  -4   14.31    0.92 
  -1   3   4   13.64    1.11 
   1  -3   4   14.35    0.96 
  -3  -1   4   15.60    0.97 
  -1   3   4   15.83    0.94 
   1  -3   4   15.62    0.84 
  -1   3  -4   15.04    0.84 
  -3  -1  -4   15.08    0.89 
  -3  -1   4   14.35    0.88 
   1  -3  -4   15.33    1.02 
  -3  -1   4   15.42    1.04 
   0  -3   4    0.70    0.18 
   3   0   4    0.29    0.51 
  -3   0  -4    0.63    0.16 
  -3   0   4    0.89    0.41 
  -3   0   4    0.70    0.20 
   0  -3   4    0.52    0.20 
  -3   0  -4    1.32    0.24 
   0   3   4    0.38    0.20 
   0   3   4   -0.27    0.24 
   0  -3  -4    1.06    0.51 
  -1  -3   4   15.05    0.95 
  -3   1  -4   17.88    0.96 
  -1  -3   4   16.10    0.97 
  -3   1   4   17.29    0.89 
   3  -1   4   17.29    1.39 
  -3   1   4   14.83    1.29 
   1   3   4   15.84    1.01 
  -1  -3  -4   16.53    1.06 
   1   3  -4   15.67    0.89 
  -3   1   4   16.04    0.96 
  -1  -3  -4   15.63    1.19 
  -2  -3   4   11.45    0.77 
  -2  -3   4    9.98    0.68 
  -3   2   4   11.99    1.09 
   2   3   4   12.57    0.73 
  -2  -3  -4   11.24    0.81 
   3  -2   4   12.61    0.93 
  -3   2  -4   11.31    0.71 
  -3   2   4   12.23    1.16 
  -2  -3   4   10.91    0.71 
  -3   2   4    9.19    0.72 
  -3   2   4   11.72    0.75 
  -2  -3  -4   10.74    0.80 
   2   3   4   10.92    0.78 
  -3   2   4   10.31    0.67 
   3  -3  -4   13.28    0.87 
  -3   3   4   12.13    1.04 
  -3   3   4   12.37    0.81 
  -3  -3   4   13.62    0.81 
  -3   3  -4   13.85    0.81 
   3   3   4   12.74    0.81 
   3   3   4   12.50    0.89 
  -3  -3  -4   14.14    0.83 
  -3  -3   4   12.25    0.90 
  -3   3   4   13.19    1.18 
  -3  -3  -4   13.77    0.86 
   3  -3   4   13.23    0.91 
  -3  -3  -4   12.75    0.90 
  -3   3  -4   13.20    0.80 
   3  -3   4   12.49    0.96 
  -3  -3   4   11.47    0.78 
  -3   3   4   13.85    0.88 
  -4  -3  -4    0.45    0.32 
   4   3   4    0.71    0.29 
   4   3   4    0.64    0.28 
  -3   4   4    1.00    0.27 
  -4  -3   4    0.39    0.34 
   3  -4  -4    0.31    0.28 
  -3   4  -4    0.56    0.21 
  -3   4   4    0.06    0.30 
  -3   4  -4    0.51    0.30 
   3  -4   4    0.14    0.31 
  -3   4   4    0.56    0.41 
  -4  -3   4    0.45    0.31 
  -3   4   4    0.70    0.42 
  -3   4   4    0.62    0.22 
  -4  -3  -4    0.80    0.26 
  -3   4  -4    0.57    0.22 
  -4  -3  -4    0.58    0.25 
  -4  -3  -4    0.85    0.30 
   2  -4  -4  130.02    6.92 
  -2   4  -4  146.49    6.40 
  -2   4  -4  134.99    6.80 
  -4  -2   4  143.73    6.21 
  -4  -2   4  129.75    6.82 
   2  -4   4  137.77    7.16 
  -2   4   4  142.68    6.89 
  -4  -2  -4  124.03    6.85 
  -4  -2   4  146.11    7.06 
   4   2   4  131.63    6.38 
  -2   4   4  146.65    7.11 
   4   2   4  129.07    7.14 
  -2   4   4  126.70    6.27 
  -2   4   4  138.86    6.34 
  -2   4   4  124.20    7.12 
  -4  -2  -4  131.99    6.95 
  -4  -2  -4  143.16    6.82 
  -1   4   4    5.50    0.48 
  -4  -1  -4    5.48    0.52 
   1  -4  -4    6.51    0.70 
  -4  -1  -4    5.13    0.49 
  -4  -1   4    8.02    0.52 
   1  -4   4    5.30    0.55 
  -4  -1   4    6.67    0.65 
  -4  -1   4    5.45    0.69 
  -1   4   4    7.03    0.79 
  -1   4   4    6.82    0.68 
  -4  -1  -4    5.50    0.51 
  -4  -1   4    7.30    0.50 
  -1   4  -4    5.44    0.50 
   4   1   4    6.18    0.66 
   1  -4   4    6.07    0.45 
  -1   4   4    5.82    0.52 
   0   4  -4  174.03    8.73 
   0  -4   4  180.59    9.48 
   4   0   4  182.56   10.08 
   0   4   4  183.87    9.80 
  -4   0  -4  189.11    9.45 
   0  -4  -4  193.64    9.70 
  -4   0   4  187.57    9.44 
  -4   0  -4  199.14    9.38 
   0   4   4  191.93    8.76 
  -4   0   4  186.92    9.36 
  -4   0   4  194.94    8.64 
  -4   0   4  197.37    9.85 
   0   4   4  190.12    8.51 
   0  -4   4  186.75    9.79 
  -4   1  -4    4.95    0.48 
  -4   1   4    6.45    0.98 
   1   4   4    6.38    0.54 
  -4   1   4    4.83    0.48 
   1   4   4    5.97    0.58 
  -1  -4   4    5.54    0.45 
  -1  -4   4    6.51    0.51 
   4  -1   4    7.24    0.94 
  -1  -4   4    4.51    0.45 
  -4   1   4    5.51    0.48 
  -1  -4  -4    5.41    0.63 
  -1  -4  -4    4.88    0.68 
  -4   1  -4    5.17    0.47 
  -4   1   4    4.90    0.80 
   1   4  -4    5.08    0.48 
   1   4   4    5.70    0.49 
   2   4   4  133.38    6.38 
  -2  -4   4  131.59    6.10 
  -4   2  -4  137.91    6.81 
   4  -2   4  139.48    7.40 
  -2  -4  -4  127.98    7.01 
  -2  -4   4  146.44    6.97 
  -4   2   4  133.41    6.46 
   2   4   4  137.67    7.15 
   4  -2   4  139.95    6.63 
   2   4  -4  142.14    6.35 
  -4   2   4  128.03    6.82 
  -2  -4  -4  140.26    6.19 
  -4   2   4  134.89    6.89 
   2   4  -4  135.21    7.10 
  -4   2  -4  132.28    6.86 
  -4   2   4  134.99    7.33 
   3   4  -4    2.41    0.32 
  -3  -4   4    0.80    0.33 
   4  -3   4    1.34    0.47 
  -3  -4  -4    0.23    0.34 
   3   4   4    0.95    0.31 
  -4   3   4    1.28    0.66 
   3   4   4    0.82    0.32 
  -3  -4  -4    0.72    0.33 
  -4   3  -4    0.43    0.22 
  -4   3   4    0.95    0.29 
  -4   3   4    0.38    0.53 
  -4   3   4    0.68    0.28 
   4  -3   4    0.44    0.40 
  -3  -4   4    0.62    0.29 
  -4   3  -4    0.34    0.25 
  -4  -4   4   96.57    4.18 
   4   4   4   83.21    4.76 
  -4   4   4   83.90    4.91 
  -4   4   4   81.34    4.31 
   4   4   4   94.90    4.28 
   4  -4  -4   91.76    4.65 
  -4   4  -4   85.70    4.53 
  -4   4  -4   90.14    4.57 
  -4  -4  -4   88.49    4.75 
  -4  -4  -4   88.05    4.17 
  -4   4   4   96.22    4.62 
   4  -4   4   91.40    4.39 
   4  -4   4   86.22    4.88 
  -4  -4   4   85.17    4.72 
  -4   5   4    4.03    0.69 
  -5  -4  -4    3.60    0.64 
  -5  -4  -4    3.45    0.56 
   4  -5  -4    2.68    0.51 
  -4   5   4    2.41    0.65 
  -4   5   4    3.73    0.57 
   4  -5   4    2.92    0.59 
  -5  -4   4    4.18    0.65 
  -5  -4   4    3.44    0.59 
  -4   5  -4    3.52    0.53 
  -3   5   4    7.72    0.89 
   3  -5  -4    9.14    0.76 
  -5  -3   4    7.52    0.75 
  -3   5   4    6.69    0.79 
   3  -5   4    7.40    0.70 
  -3   5   4    6.52    0.63 
  -5  -3  -4    6.66    0.68 
  -3   5   4    7.46    0.61 
  -5  -3  -4    7.63    0.63 
  -5  -3  -4    7.88    0.64 
  -5  -3  -4    7.97    0.75 
  -3   5   4    6.51    0.74 
  -5  -3   4    7.68    0.83 
  -3   5  -4    6.87    0.66 
   2  -5   4    0.89    0.35 
  -2   5   4    0.02    0.36 
  -2   5   4    0.21    0.45 
  -5  -2   4    0.41    0.24 
  -2   5   4   -0.33    0.38 
  -5  -2  -4    1.76    0.42 
   2  -5  -4    0.08    0.34 
  -5  -2   4    0.73    0.41 
  -5  -2  -4    0.67    0.28 
  -2   5   4   -0.26    0.25 
  -5  -2   4    0.31    0.35 
  -5  -2  -4    0.30    0.26 
  -2   5  -4    0.66    0.30 
  -2   5   4    0.46    0.28 
  -5  -1  -4    7.22    0.61 
  -1   5   4    6.87    0.60 
  -5  -1  -4    7.95    0.64 
  -1   5   4    7.66    0.76 
  -1   5   4    6.86    0.62 
   1  -5  -4    8.24    0.88 
  -5  -1   4    8.09    0.60 
  -5  -1   4    8.04    0.61 
  -5  -1   4    8.11    0.79 
   1  -5   4    8.61    0.69 
  -1   5  -4    6.93    0.59 
  -5  -1   4    8.07    0.89 
  -5   0   4    7.57    0.91 
   0  -5  -4   10.17    0.88 
   0  -5   4    8.44    0.65 
   0  -5   4    8.73    0.61 
  -5   0   4    8.82    1.08 
   0   5   4   10.68    0.80 
   0   5   4    9.57    0.73 
  -5   0  -4    8.71    0.68 
   0   5  -4    8.40    0.65 
  -5   0  -4    9.74    0.68 
   0   5   4   10.84    0.69 
   0  -5   4    8.57    0.70 
  -5   0   4    8.93    0.70 
  -5   0   4    9.06    0.68 
  -5   1   4    6.52    0.96 
   1   5   4    7.36    0.59 
   1   5   4    8.61    0.73 
  -1  -5  -4    7.79    0.74 
  -5   1  -4    7.51    0.61 
  -1  -5   4    7.47    0.62 
   1   5   4    7.21    0.65 
  -5   1  -4    8.02    0.61 
   1   5  -4    7.81    0.63 
   1   5  -4    7.60    0.60 
  -5   1   4    8.07    0.63 
  -1  -5   4    6.27    0.55 
  -5   1   4    6.68    1.08 
  -5   1   4    7.53    0.62 
  -5   2   4    0.10    0.51 
  -5   2   4    0.34    0.27 
  -5   2  -4    0.08    0.24 
  -2  -5   4    0.24    0.26 
   2   5  -4    0.35    0.27 
   2   5   4    0.38    0.31 
  -5   2  -4    0.15    0.24 
  -2  -5  -4   -0.19    0.27 
  -2  -5  -4    0.45    0.37 
  -5   2   4    0.17    0.25 
   2   5   4    0.68    0.32 
  -5   2   4   -0.04    0.53 
   2   5  -4    0.45    0.28 
  -2  -5   4    0.32    0.30 
  -3  -5  -4    7.65    0.81 
  -5   3  -4    6.66    0.59 
  -5   3   4    7.37    0.66 
  -5   3  -4    6.46    0.61 
  -5   3   4    7.80    0.67 
   3   5   4    7.40    0.63 
  -5   3   4    5.76    1.07 
  -3  -5   4    7.05    0.70 
  -3  -5   4    7.73    0.66 
  -5   3   4    6.50    1.01 
   3   5  -4    7.34    0.62 
   3   5   4    7.74    0.68 
  -3  -5  -4    8.32    0.71 
  -5   4   4    3.78    0.53 
  -5   4   4    3.85    0.79 
  -5   4  -4    2.83    0.44 
   4   5   4    4.05    0.55 
  -4  -5   4    4.00    0.55 
  -5   4   4    3.13    0.68 
  -5   4   4    3.18    0.52 
  -5   4  -4    4.05    0.49 
   4   5   4    4.63    0.51 
  -4  -5  -4    3.07    0.58 
  -4  -5   4    3.67    0.60 
  -4  -5  -4    3.95    0.68 
  -5   5   4    6.07    0.95 
  -5  -5  -4    7.33    0.93 
  -5   5   4    6.73    0.85 
  -5  -5  -4    6.26    0.77 
  -5   5   4    5.38    0.70 
   5  -5  -4    6.94    0.76 
  -5  -5   4    7.29    0.80 
  -5   5  -4    5.99    0.66 
  -5  -5   4    7.33    0.87 
  -6  -5  -4   -0.99    0.46 
  -5   6   4    0.17    0.47 
  -6  -5  -4    0.25    0.56 
  -6  -5   4   -0.36    0.50 
  -6  -5   4    0.23    0.55 
  -5   6   4   -0.37    0.54 
   5  -6   4    0.41    0.50 
  -5   6   4   -0.28    0.56 
  -4   6   4   44.53    2.67 
  -6  -4   4   41.28    2.31 
  -6  -4  -4   42.20    2.30 
  -4   6   4   37.01    2.31 
  -6  -4   4   45.19    2.63 
  -6  -4  -4   45.56    2.61 
  -4   6  -4   41.53    2.34 
  -3   6   4    1.82    0.64 
  -3   6   4    1.68    0.56 
  -6  -3   4    1.20    0.51 
  -3   6  -4    1.42    0.42 
   3  -6   4    2.36    0.51 
  -6  -3   4    2.31    0.61 
  -3   6   4    1.88    0.44 
  -3   6   4    1.50    0.39 
  -2   6  -4   73.83    3.47 
  -6  -2   4   71.91    3.51 
  -6  -2  -4   67.64    3.65 
  -6  -2  -4   72.30    3.69 
   2  -6  -4   60.10    3.88 
  -2   6   4   67.93    3.45 
  -2   6   4   68.17    3.82 
  -6  -2   4   75.00    3.99 
   2  -6   4   69.70    3.87 
  -2   6   4   68.85    3.43 
   1  -6   4    1.36    0.41 
  -1   6   4    1.06    0.37 
   1  -6  -4    1.14    0.55 
  -6  -1  -4    0.73    0.32 
  -6  -1   4    0.13    0.54 
  -6  -1   4    1.20    0.61 
  -1   6  -4    0.73    0.34 
  -6  -1   4    1.35    0.35 
  -6  -1  -4    1.13    0.34 
  -6  -1   4    1.61    0.36 
  -1   6   4    0.62    0.45 
  -1   6   4    0.81    0.37 
   0  -6  -4   68.94    4.02 
  -6   0  -4   66.68    3.81 
   0   6   4   74.08    4.00 
  -6   0   4   71.75    3.80 
  -6   0  -4   78.02    3.83 
   0  -6   4   66.23    3.81 
   0   6  -4   74.36    3.57 
   0   6   4   73.57    3.58 
  -6   0   4   76.92    4.37 
   0  -6   4   74.44    3.98 
  -6   0   4   76.46    3.85 
  -6   0   4   74.55    3.81 
   0   6   4   70.49    3.57 
  -1  -6   4    1.39    0.39 
  -1  -6   4    1.10    0.32 
  -6   1   4   -0.01    0.59 
   1   6   4    1.27    0.47 
   1   6  -4    0.63    0.33 
  -6   1  -4    1.47    0.36 
   1   6   4    0.98    0.37 
  -6   1   4    0.83    0.34 
  -6   1   4    1.13    0.35 
   1   6  -4    1.04    0.37 
  -6   1   4    0.52    0.64 
   1   6   4    1.65    0.38 
  -6   1  -4    0.88    0.32 
  -1  -6  -4    1.18    0.48 
   2   6  -4   71.18    3.38 
   2   6   4   73.58    3.44 
  -2  -6  -4   64.33    3.38 
   2   6  -4   67.86    3.77 
  -6   2  -4   72.14    3.66 
  -6   2  -4   74.32    3.64 
  -6   2   4   69.56    3.67 
  -6   2   4   67.21    3.63 
  -2  -6  -4   66.66    3.81 
   2   6   4   74.24    3.85 
  -6   2   4   65.82    3.65 
  -6   2   4   63.93    4.09 
  -2  -6   4   68.57    3.27 
  -2  -6   4   64.87    3.70 
  -3  -6  -4    1.46    0.53 
  -6   3   4    0.63    0.73 
  -6   3  -4    2.30    0.42 
  -6   3   4    2.33    0.48 
   3   6  -4    2.38    0.45 
   3   6   4    2.28    0.46 
  -6   3   4    1.95    0.85 
   3   6  -4    2.35    0.41 
  -6   3  -4    1.57    0.41 
  -3  -6  -4    1.42    0.51 
   3   6   4    2.34    0.51 
  -6   3   4    2.11    0.46 
  -3  -6   4    2.06    0.51 
  -3  -6   4    2.32    0.49 
  -6   4  -4   39.68    2.33 
  -4  -6  -4   40.56    2.56 
  -6   4   4   45.34    2.41 
  -6   4   4   41.76    2.73 
   4   6   4   45.78    2.50 
  -4  -6   4   40.07    2.19 
  -4  -6  -4   43.00    2.29 
  -4  -6   4   40.34    2.46 
  -6   4  -4   42.09    2.33 
  -6   4   4   38.75    2.39 
  -6   4   4   42.00    2.39 
   4   6   4   38.70    2.20 
   6  -5  -4   -0.27    0.41 
  -6   5   4   -0.42    0.52 
  -5  -6  -4    0.00    0.52 
  -5  -6   4    0.49    0.56 
  -6   5  -4    0.23    0.38 
  -6   5   4    0.01    0.42 
  -6   5  -4   -0.20    0.32 
  -5  -6  -4   -0.03    0.59 
  -5  -6   4    0.02    0.52 
  -6  -6   4   20.83    1.51 
  -6  -6  -4   23.05    1.75 
  -6   6   4   19.90    1.54 
  -6  -6  -4   20.24    1.55 
  -7  -6   4   -0.35    0.64 
  -7  -6  -4   -0.34    0.66 
  -7  -5   4    3.03    0.80 
   4  -7   4   -0.20    0.47 
  -4   7  -4   -0.30    0.51 
  -7  -4   4   -0.57    0.54 
   4  -7  -4    0.44    0.56 
  -7  -4   4   -0.44    0.54 
  -4   7   4   -0.27    0.50 
   3  -7   4    5.78    0.78 
  -7  -3   4    5.73    0.97 
   3  -7  -4    6.51    0.90 
  -7  -3   4    5.44    0.86 
  -3   7   4    4.86    0.69 
  -3   7   4    3.89    0.71 
  -3   7   4    5.03    0.64 
  -3   7  -4    6.08    0.69 
  -2   7  -4    1.51    0.47 
  -7  -2  -4    2.42    0.47 
  -2   7   4    1.45    0.56 
  -7  -2   4    2.62    0.77 
   2  -7   4    2.21    0.53 
   2  -7  -4    2.54    0.70 
  -7  -2  -4    2.10    0.48 
  -2   7   4    1.79    0.44 
  -2   7   4    1.46    0.49 
  -7  -2   4    2.10    0.67 
  -1   7   4    6.98    0.85 
   1  -7  -4    7.41    0.95 
  -1   7   4    6.87    0.77 
   1  -7   4    6.90    0.76 
  -1   7  -4    6.59    0.69 
  -7  -1   4    7.19    1.00 
  -7  -1   4    7.22    0.68 
  -7  -1   4    6.08    1.05 
  -1   7   4    7.35    0.70 
  -7  -1   4    6.39    0.67 
  -7  -1  -4    7.88    0.72 
  -7  -1  -4    7.50    0.71 
  -7   0  -4   -0.01    0.33 
  -7   0  -4    0.22    0.34 
   0  -7   4    0.42    0.39 
  -7   0   4   -1.12    0.62 
   0   7   4    0.12    0.38 
   0   7  -4    0.55    0.36 
  -7   0   4   -0.22    0.34 
   0  -7  -4   -0.10    0.43 
   0   7   4    0.24    0.52 
  -7   0   4   -0.69    0.62 
  -7   0   4    0.31    0.34 
   0   7   4   -0.34    0.36 
  -7   1   4    7.40    0.70 
   1   7   4    6.32    0.72 
  -7   1   4    6.31    1.10 
  -7   1  -4    7.73    0.71 
   1   7  -4    7.20    0.68 
  -7   1   4    4.81    0.94 
  -1  -7   4    7.24    0.71 
  -7   1  -4    5.78    0.69 
  -1  -7  -4    5.90    0.76 
  -1  -7   4    5.87    0.68 
  -1  -7  -4    6.98    0.90 
  -1  -7   4    7.16    0.65 
  -7   1   4    6.44    0.69 
   1   7   4    8.43    0.82 
  -2  -7  -4    1.79    0.57 
  -2  -7   4    2.22    0.54 
  -7   2   4    0.80    0.71 
  -7   2  -4    1.44    0.46 
  -7   2   4    1.87    0.81 
  -2  -7   4    2.00    0.47 
   2   7   4    1.76    0.53 
  -2  -7  -4    1.39    0.56 
   2   7   4    1.99    0.48 
  -7   2  -4    1.82    0.42 
  -7   2   4    2.42    0.51 
  -7   2   4    2.38    0.50 
   2   7  -4    2.26    0.44 
   2   7  -4    1.71    0.47 
  -3  -7  -4    6.56    0.88 
   3   7  -4    5.93    0.63 
  -3  -7   4    4.89    0.63 
  -3  -7  -4    7.76    0.96 
  -7   3   4    5.32    0.69 
  -7   3   4    6.73    0.74 
  -7   3  -4    5.24    0.67 
  -7   3  -4    6.33    0.69 
  -7   3   4    6.08    1.06 
  -3  -7   4    6.99    0.75 
   3   7   4    6.17    0.76 
  -3  -7   4    5.22    0.78 
   3   7   4    5.27    0.67 
  -4  -7   4   -0.26    0.48 
  -7   4   4   -0.79    0.38 
   4   7   4   -0.42    0.38 
  -4  -7  -4    0.60    0.64 
  -7   4  -4    0.00    0.35 
   4   7   4    0.13    0.41 
  -4  -7  -4   -1.28    0.47 
  -4  -7   4   -0.07    0.47 
  -7   4  -4    0.13    0.41 
  -7   4   4   -0.18    0.43 
  -5  -7  -4    2.48    0.72 
  -5  -7   4    5.06    0.80 
  -7   5  -4    3.08    0.63 
  -7   5   4    4.53    0.71 
  -7   6   4    0.08    0.58 
  -6  -7   4   -0.34    0.62 
  -6  -7  -4    0.01    0.67 
  -7  -7  -4    2.81    0.95 
  -7  -7   4    3.41    0.88 
  -8  -5   4    0.78    0.73 
  -8  -4   4   14.94    1.43 
  -4   8   4   14.64    1.22 
  -4   8  -4   15.21    1.26 
  -8  -3   4   -0.30    0.63 
  -3   8   4    0.01    0.47 
  -3   8  -4    0.74    0.51 
  -3   8   4    0.22    0.46 
   3  -8  -4   -0.93    0.57 
  -3   8   4    0.73    0.63 
  -8  -2   4   27.61    2.10 
  -8  -2  -4   24.02    1.55 
  -2   8   4   21.92    1.66 
  -2   8   4   24.46    1.64 
   2  -8  -4   25.44    1.80 
  -2   8  -4   20.72    1.50 
  -2   8   4   24.28    1.55 
  -8  -2   4   27.14    1.86 
  -8  -2  -4   25.60    1.60 
  -1   8   4    0.59    0.58 
  -1   8   4    0.01    0.47 
  -8  -1   4    0.59    0.43 
   1  -8  -4    1.94    0.65 
  -8  -1  -4   -0.13    0.41 
  -8  -1   4    0.65    0.76 
  -8  -1   4    0.86    0.45 
  -8  -1   4    0.83    0.84 
  -1   8   4    0.12    0.43 
  -1   8  -4    0.76    0.45 
   1  -8   4    0.22    0.42 
  -8  -1  -4    0.02    0.38 
   0   8   4   27.29    1.87 
   0   8   4   30.45    1.75 
   0  -8  -4   27.18    1.75 
  -8   0  -4   25.79    1.75 
  -8   0   4   28.20    2.17 
   0  -8  -4   27.25    1.97 
   0   8  -4   30.48    1.69 
  -8   0   4   27.42    1.74 
  -8   0  -4   28.35    1.75 
  -8   0   4   30.55    1.80 
   0  -8   4   32.06    1.92 
  -8   0   4   25.71    2.38 
  -8   1  -4    0.50    0.39 
  -1  -8   4   -0.32    0.40 
  -8   1   4   -0.30    0.63 
   1   8  -4    0.49    0.46 
   1   8   4   -0.19    0.43 
  -1  -8  -4    0.94    0.60 
  -8   1   4    0.64    0.46 
   1   8   4   -0.25    0.43 
  -1  -8  -4    0.16    0.58 
  -1  -8   4    0.14    0.39 
  -8   1   4    0.61    0.46 
  -8   1  -4    0.20    0.44 
  -2  -8   4   23.04    1.63 
  -2  -8   4   26.01    1.50 
  -8   2   4   23.91    1.59 
  -2  -8  -4   24.10    1.63 
   2   8  -4   24.68    1.50 
   2   8   4   23.86    1.54 
   2   8   4   25.05    1.71 
  -2  -8   4   24.16    1.65 
  -8   2  -4   24.64    1.60 
  -8   3  -4    0.03    0.44 
  -3  -8   4   -0.30    0.45 
   3   8  -4   -0.13    0.42 
  -3  -8  -4   -0.17    0.60 
  -8   3   4   -0.33    0.43 
   3   8   4   -0.21    0.46 
   4   8   4   15.32    1.19 
  -8   4   4   14.17    1.23 
  -4  -8   4   15.76    1.19 
  -8   4  -4   14.95    1.21 
  -4  -8  -4   15.84    1.40 
  -5  -8   4    0.33    0.61 
  -8   5  -4    0.35    0.49 
  -8   5   4    0.16    0.56 
  -5  -8  -4   -0.69    0.66 
  -9  -4   4   -0.72    0.75 
  -4   9  -4    0.45    0.65 
  -3   9   4    1.34    0.63 
  -3   9  -4    1.54    0.67 
  -3   9   4    1.79    0.74 
  -9  -3   4    1.74    0.91 
  -9  -2  -4   -0.26    0.47 
   2  -9  -4   -0.24    0.50 
  -2   9  -4   -0.16    0.45 
  -2   9   4    0.08    0.55 
  -9  -2   4    0.89    0.87 
   1  -9  -4    1.96    0.66 
  -9  -1   4    3.50    1.17 
  -9  -1  -4    3.08    0.66 
  -1   9   4    2.61    0.67 
  -1   9  -4    2.87    0.65 
  -9   0  -4    0.87    0.55 
   0   9  -4    0.27    0.52 
  -9   0   4    0.73    0.52 
   0   9   4    0.53    0.56 
   0  -9  -4    0.87    0.64 
  -9   1  -4    3.28    0.69 
  -1  -9  -4    3.11    0.77 
   1   9  -4    1.70    0.53 
   1   9   4    1.97    0.59 
  -9   1   4    2.83    0.64 
  -9   2   4    0.08    0.50 
  -2  -9   4   -0.23    0.49 
  -2  -9  -4   -0.64    0.60 
  -9   2  -4    0.00    0.49 
   2   9   4   -0.04    0.56 
   2   9  -4   -0.21    0.46 
   3   9   4    3.03    0.66 
  -9   3   4    2.40    0.67 
   3   9  -4    2.71    0.59 
  -3  -9  -4    2.72    0.83 
  -3  -9   4    2.32    0.64 
  -9   3  -4    1.78    0.63 
  -9   4   4   -0.06    0.55 
  -4  -9   4    0.45    0.60 
   4   9   4    0.35    0.59 
  -4  -9  -4   -0.37    0.69 
  -9   4  -4   -0.19    0.53 
   0   0  -5  555.96   26.55 
   0   0   5  491.93   27.48 
   0   0   5  552.77   26.72 
   1   0   5  574.36   30.48 
  -1   0  -5  568.64   29.34 
   0  -1  -5  608.79   29.44 
   1   0  -5  620.14   29.38 
   0  -1   5  553.41   29.49 
   0   1  -5  605.57   29.39 
  -1   0   5  604.22   30.40 
  -1   0   5  579.86   29.72 
   0   1   5  587.75   30.37 
   1   0   5  607.02   29.50 
   1   1   5    1.55    0.31 
  -1  -1  -5    2.11    0.46 
   1  -1  -5    1.72    0.39 
  -1  -1   5    2.29    0.38 
  -1   1   5    2.29    0.46 
   1   1  -5    1.82    0.45 
  -1  -1   5    1.99    0.34 
   1   1   5    1.80    0.40 
  -1   1   5    1.89    0.30 
  -1   1  -5    1.87    0.30 
   1  -1   5    1.96    0.27 
   1  -1   5    2.44    0.48 
   1  -2   5  456.38   23.47 
  -1   2   5  484.66   24.20 
   1  -2  -5  455.73   23.48 
   1  -2   5  478.99   24.27 
  -2  -1   5  480.07   23.65 
  -2  -1  -5  462.76   23.43 
  -2  -1  -5  460.33   23.52 
   2   1  -5  452.89   23.39 
  -2  -1   5  491.41   24.28 
  -1   2  -5  500.46   23.36 
  -1   2   5  460.42   23.85 
  -2   0  -5   53.00    2.88 
  -2   0  -5   55.07    2.98 
   0   2   5   61.51    3.09 
   0  -2   5   55.20    2.93 
   0   2   5   49.64    3.12 
   0  -2   5   56.84    3.09 
   2   0  -5   59.98    2.99 
   0  -2  -5   57.52    3.21 
   2   0   5   62.03    3.32 
  -2   0   5   55.72    3.21 
  -2   0   5   57.71    3.12 
  -1  -2   5  491.57   23.66 
   2  -1   5  448.34   24.52 
   1   2   5  436.87   23.70 
  -2   1   5  475.62   24.26 
   1   2  -5  485.94   23.53 
   2  -1  -5  495.69   23.52 
  -1  -2  -5  492.95   23.77 
  -2   1  -5  462.37   23.47 
  -2   1   5  476.39   23.87 
  -1  -2   5  467.92   24.31 
  -2   2  -5  156.23    7.73 
   2   2  -5  155.56    7.80 
   2  -2  -5  156.49    7.81 
  -2  -2   5  155.24    8.02 
  -2  -2   5  160.42    7.86 
  -2   2   5  148.93    8.14 
  -2  -2  -5  144.16    7.83 
   2  -2   5  159.88    8.15 
  -2  -2  -5  150.90    7.84 
   2   2   5  158.05    8.12 
  -2   2   5  149.28    7.98 
   3   2   5  310.22   13.95 
  -3  -2  -5  292.16   15.11 
   2  -3  -5  314.24   15.08 
  -2   3   5  292.50   14.92 
  -3  -2   5  295.06   13.35 
   3   2   5  304.32   15.62 
  -3  -2   5  300.84   15.49 
  -2   3   5  295.43   15.43 
  -2   3   5  301.57   13.57 
  -3  -2  -5  285.71   14.89 
  -2   3   5  303.11   15.50 
   3   2  -5  282.96   14.97 
  -3  -2  -5  309.97   15.04 
  -2   3  -5  314.20   14.96 
   2  -3   5  311.61   13.95 
  -3  -2   5  299.33   15.19 
  -3  -1   5    7.21    0.73 
   1  -3   5    5.74    0.58 
  -1   3   5    7.85    0.76 
   3   1   5    7.05    0.77 
  -3  -1   5    6.63    0.59 
  -3  -1  -5    7.36    0.58 
   3   1  -5    5.89    0.51 
  -1   3   5    5.91    0.52 
   1  -3  -5    7.74    0.73 
  -1   3  -5    6.56    0.55 
  -1   3   5    7.78    0.87 
  -1   3  -5    5.80    0.46 
  -3  -1  -5    6.77    0.59 
  -3  -1  -5    6.17    0.49 
  -3  -1   5    6.92    0.64 
   0  -3  -5  358.17   17.85 
   0   3   5  341.83   18.25 
  -3   0   5  346.59   15.83 
  -3   0  -5  368.34   17.65 
  -3   0   5  364.52   18.05 
   0  -3   5  330.21   17.69 
   3   0   5  325.34   18.46 
   0   3  -5  358.93   17.56 
   0   3  -5  358.21   16.30 
   0   3   5  358.20   17.93 
   0   3   5  359.99   15.77 
  -3   0  -5  359.32   17.49 
   0   3   5  359.58   16.31 
   0  -3   5  372.10   18.27 
   3   0  -5  353.63   17.63 
  -1  -3  -5    6.76    0.93 
  -3   1  -5    6.68    0.53 
   3  -1  -5    6.13    0.54 
  -1  -3   5    7.08    0.53 
  -3   1   5    6.29    0.54 
   1   3   5    7.35    0.55 
   3  -1   5    6.71    1.02 
  -3   1   5    6.72    0.78 
  -1  -3   5    6.62    0.52 
   1   3   5    6.81    0.60 
   1   3  -5    6.26    0.53 
   1   3   5    6.96    0.58 
  -3   1   5    5.85    0.42 
  -1  -3  -5    6.35    0.65 
  -3   1   5    6.23    0.81 
  -3   1  -5    5.33    0.50 
  -3   2   5  299.62   15.01 
   2   3   5  320.23   14.03 
  -3   2  -5  325.01   14.98 
   3  -2  -5  293.51   15.13 
   2   3   5  318.61   15.72 
  -3   2   5  302.04   13.66 
  -2  -3   5  291.05   13.39 
  -3   2   5  275.32   15.55 
  -2  -3   5  285.01   15.24 
  -3   2   5  296.34   15.52 
  -2  -3   5  313.02   15.63 
  -2  -3  -5  317.05   15.31 
  -2  -3  -5  303.85   15.21 
   2   3   5  289.37   13.44 
   3  -2   5  306.14   14.16 
   3  -2   5  315.60   15.86 
  -3  -3  -5    3.95    0.49 
  -3  -3  -5    3.78    0.49 
  -3  -3   5    3.58    0.51 
  -3   3  -5    3.67    0.40 
  -3  -3  -5    4.17    0.48 
  -3   3  -5    3.54    0.39 
   3  -3  -5    3.61    0.47 
  -3  -3   5    3.65    0.40 
   3   3   5    3.48    0.43 
  -3   3   5    5.17    0.90 
  -3  -3   5    3.70    0.44 
   3   3   5    3.85    0.51 
  -3   3   5    2.87    0.73 
  -3   3   5    3.50    0.39 
   3  -3   5    4.47    0.62 
  -3  -3  -5    3.86    0.48 
  -3   3   5    3.54    0.47 
   3  -3   5    3.81    0.52 
  -3   4   5  141.01    7.54 
  -3   4  -5  148.17    7.27 
  -4  -3  -5  137.24    7.31 
  -4  -3  -5  135.54    7.42 
  -4  -3  -5  147.82    7.27 
  -3   4   5  141.62    6.73 
   4   3   5  151.85    7.64 
   3  -4  -5  150.27    7.39 
  -4  -3  -5  142.91    6.53 
  -3   4   5  140.42    7.32 
  -4  -3   5  137.38    7.46 
   4   3   5  145.75    6.82 
  -4  -3   5  143.68    6.57 
  -3   4  -5  154.41    7.22 
  -3   4   5  139.93    7.68 
  -3   4   5  142.78    6.76 
   3  -4   5  148.78    6.88 
  -2   4  -5   34.36    1.70 
  -4  -2   5   29.72    1.87 
  -2   4   5   30.70    2.04 
   2  -4   5   29.02    1.86 
  -2   4   5   32.05    1.79 
   2  -4  -5   28.85    1.82 
  -4  -2  -5   29.94    1.75 
   4   2   5   31.23    1.88 
   4   2  -5   30.57    1.72 
  -2   4   5   30.08    1.83 
  -4  -2  -5   31.94    1.77 
  -4  -2  -5   31.72    1.75 
  -4  -2   5   30.86    1.67 
  -2   4   5   35.05    1.85 
  -2   4   5   30.81    1.60 
  -2   4  -5   30.33    1.66 
   4   2   5   29.68    1.68 
   1  -4  -5  220.99   11.54 
   4   1  -5  233.49   11.36 
  -4  -1  -5  221.58   11.37 
  -4  -1   5  229.17   10.24 
  -4  -1  -5  221.45   11.28 
   4   1   5  216.16   10.63 
  -4  -1   5  220.46   11.25 
  -1   4   5  232.25   10.52 
  -1   4  -5  236.17   10.54 
  -1   4   5  241.01   11.79 
  -1   4   5  240.78   11.73 
   1  -4  -5  216.40   11.43 
   4   1   5  213.88   11.89 
   1  -4   5  234.09   11.82 
  -1   4   5  221.54   10.29 
  -4  -1   5  230.21   11.65 
   0   4  -5   99.93    4.65 
  -4   0   5  101.57    4.98 
   0  -4   5   97.82    5.21 
   0  -4  -5   96.11    5.20 
  -4   0  -5   97.78    5.03 
  -4   0  -5  104.50    4.99 
   0  -4   5   95.18    5.00 
   0   4   5  106.98    5.23 
   0   4   5  101.30    4.62 
   4   0   5   85.58    5.50 
   4   0   5   86.77    4.94 
   0   4   5  103.37    5.27 
  -4   0   5   96.49    5.01 
  -4   0   5   99.81    4.75 
  -4   0   5   93.56    5.37 
   0   4   5  100.51    4.66 
   4  -1   5  223.44   11.88 
  -4   1  -5  220.49   11.17 
  -4   1   5  235.41   10.28 
  -4   1  -5  209.44   11.06 
  -1  -4   5  238.13   11.58 
   1   4  -5  221.93   10.32 
  -4   1   5  224.47   11.09 
  -4   1   5  208.03   11.17 
  -1  -4   5  222.13   11.24 
  -1  -4  -5  209.33   11.39 
   1   4   5  207.51   10.00 
   1   4   5  231.07   10.37 
   1   4   5  220.94   11.61 
   4  -1   5  247.35   10.65 
  -1  -4  -5  224.21   11.41 
  -1  -4   5  223.88    9.88 
  -4   2   5   34.19    1.92 
   2   4  -5   31.94    1.63 
  -2  -4  -5   33.78    1.86 
  -2  -4  -5   34.17    1.91 
  -4   2   5   32.23    2.12 
  -4   2  -5   33.40    1.76 
  -4   2   5   29.00    1.77 
  -2  -4   5   28.46    1.79 
   2   4   5   29.66    1.68 
   4  -2   5   34.64    2.01 
  -2  -4   5   32.18    1.80 
   2   4   5   29.21    1.68 
   2   4   5   31.76    1.88 
   4  -2   5   33.42    2.19 
  -2  -4   5   27.80    1.57 
  -4   2  -5   30.17    1.75 
   3   4   5  140.59    6.89 
  -4   3  -5  158.28    7.33 
   3   4   5  154.71    7.73 
  -3  -4   5  137.31    7.49 
  -4   3   5  146.23    7.05 
  -3  -4   5  139.40    7.60 
  -4   3  -5  139.72    7.37 
  -3  -4  -5  137.98    6.65 
  -4   3   5  163.28    8.11 
   4  -3  -5  139.30    7.43 
  -3  -4   5  135.94    6.58 
   4  -3   5  151.53    7.06 
  -3  -4  -5  151.89    7.57 
   4  -3   5  144.74    7.87 
   4   4   5   36.28    1.97 
   4  -4   5   40.40    2.12 
   4   4   5   38.38    2.20 
  -4   4  -5   37.37    2.04 
   4  -4   5   37.00    2.31 
  -4   4   5   37.79    2.15 
  -4   4  -5   31.38    2.01 
  -4   4   5   39.38    2.48 
  -4  -4  -5   33.70    2.20 
  -4  -4   5   38.93    2.20 
  -4   4   5   34.57    2.17 
  -4  -4  -5   38.72    1.98 
  -4  -4   5   39.51    1.96 
  -5  -4   5   59.55    3.14 
  -4   5   5   60.02    3.46 
   4  -5   5   61.73    3.29 
   5   4   5   69.92    3.58 
   4  -5   5   61.34    3.66 
  -5  -4  -5   71.85    3.64 
  -4   5   5   61.88    3.30 
   4  -5  -5   62.47    3.50 
  -5  -4   5   63.29    3.58 
  -4   5   5   67.18    3.79 
  -5  -4  -5   61.47    3.13 
  -3   5   5    0.90    0.51 
   5   3   5    1.32    0.39 
  -5  -3  -5    1.88    0.38 
  -3   5   5    0.67    0.30 
   3  -5  -5    1.90    0.46 
  -3   5   5    0.97    0.34 
  -3   5   5    0.94    0.41 
   3  -5   5    0.16    0.37 
  -5  -3   5    0.83    0.44 
  -5  -3   5    1.41    0.50 
  -5  -3  -5    2.02    0.39 
  -5  -3  -5    1.76    0.47 
  -3   5  -5    1.13    0.39 
  -3   5   5   -0.02    0.49 
  -5  -2   5  120.77    6.19 
  -5  -2  -5  129.48    5.97 
  -2   5   5  119.77    5.50 
  -2   5   5  106.58    5.48 
   2  -5  -5  109.37    6.06 
  -5  -2  -5  123.14    5.91 
  -5  -2   5  119.53    5.44 
   2  -5  -5  106.94    6.03 
   5   2   5  111.01    6.19 
   2  -5   5  115.54    6.21 
  -2   5   5  103.89    6.12 
  -2   5  -5  121.23    5.55 
   5   2  -5  119.89    5.93 
  -2   5   5  114.81    6.24 
  -5  -1   5    1.06    0.31 
  -1   5   5    1.44    0.55 
   1  -5   5    0.92    0.33 
  -5  -1  -5    0.49    0.28 
  -1   5  -5    1.09    0.32 
  -1   5   5    0.62    0.31 
  -1   5   5    0.72    0.44 
  -5  -1   5    1.13    0.31 
  -5  -1  -5    1.02    0.32 
  -5  -1   5    0.33    0.43 
  -5  -1   5    0.97    0.51 
   5   1   5    0.91    0.43 
  -1   5   5    1.19    0.34 
   0  -5   5  153.13    7.79 
   0  -5   5  149.15    7.51 
  -5   0   5  164.69    7.04 
  -5   0   5  148.66    7.97 
  -5   0   5  148.86    7.44 
   0  -5  -5  152.35    7.79 
   0   5   5  147.45    7.80 
  -5   0  -5  135.99    7.49 
   0   5   5  145.84    6.95 
  -5   0   5  159.36    7.52 
   0   5  -5  134.08    6.93 
  -5   0  -5  140.29    7.44 
   0   5   5  141.33    6.81 
   1   5   5    0.47    0.32 
  -1  -5  -5    0.64    0.43 
  -1  -5   5    0.84    0.31 
  -5   1   5    0.91    0.31 
   5  -1   5    0.56    0.53 
  -5   1   5    0.42    0.56 
  -1  -5   5    0.94    0.28 
   1   5   5    1.33    0.45 
   1   5   5    0.85    0.33 
   1   5  -5    1.19    0.30 
  -5   1   5    1.23    0.57 
  -5   1   5    1.21    0.33 
  -5   1  -5    0.52    0.28 
  -1  -5   5    1.50    0.33 
  -5   1  -5    1.07    0.31 
  -2  -5   5  112.96    5.29 
  -5   2   5  110.92    5.98 
  -5   2  -5  119.97    5.97 
  -5   2   5  114.51    6.37 
   5  -2   5  122.22    6.63 
   2   5   5  119.91    5.58 
   2   5  -5  117.57    5.51 
  -5   2   5  118.17    5.95 
   2   5   5  120.18    6.24 
  -2  -5   5  115.02    6.17 
  -2  -5  -5  118.49    5.43 
  -2  -5  -5  110.34    6.14 
  -2  -5   5  114.89    6.03 
  -5   2   5  118.23    5.64 
  -5   2  -5  113.17    5.91 
  -5   3  -5    1.40    0.33 
   5  -3  -5    3.29    0.48 
  -3  -5  -5    0.51    0.43 
  -3  -5   5    0.80    0.31 
   5  -3   5    1.79    0.65 
   5  -3   5    1.49    0.65 
   3   5   5    1.74    0.45 
  -3  -5  -5    1.19    0.45 
  -5   3  -5    1.59    0.38 
   3   5   5    1.37    0.38 
  -5   3   5    4.59    0.53 
  -5   3   5    0.61    0.68 
  -3  -5   5    1.12    0.40 
  -5   3   5    0.43    0.65 
  -3  -5   5    1.03    0.38 
  -5   4  -5   62.68    3.51 
  -4  -5  -5   68.89    3.78 
  -5   4   5   67.01    3.98 
  -5   4  -5   64.97    3.50 
  -4  -5   5   64.69    3.23 
   5  -4   5   62.18    3.49 
   5  -4   5   69.62    3.94 
  -5   4   5   63.90    3.49 
   4   5   5   66.38    3.71 
   4   5   5   61.51    3.30 
   5  -4  -5   67.72    3.61 
  -4  -5  -5   67.52    3.31 
  -5   4   5   72.75    3.60 
  -4  -5   5   68.50    3.68 
  -5   5   5    0.42    0.54 
  -5  -5  -5    1.31    0.62 
   5  -5  -5    0.23    0.44 
   5  -5   5    0.11    0.48 
  -5  -5   5    0.11    0.48 
  -5   5   5    0.33    0.44 
  -5  -5  -5    1.26    0.55 
   5  -5   5    0.11    0.50 
   5   5   5   -0.01    0.36 
  -5  -5   5   -0.21    0.44 
  -5   5   5   -0.24    0.55 
   5  -6   5   26.97    1.78 
  -5   6   5   25.34    1.76 
  -6  -5   5   26.36    1.84 
  -6  -5   5   26.45    1.66 
  -6  -5  -5   24.80    1.70 
  -5   6   5   24.37    1.74 
  -5   6   5   28.47    2.01 
  -4   6   5    8.03    1.09 
   4  -6   5    9.66    0.93 
  -6  -4   5    7.96    1.00 
  -4   6   5    9.66    1.04 
  -6  -4   5    8.90    0.96 
  -4   6   5    8.76    0.95 
  -3   6   5   54.63    2.90 
  -6  -3  -5   55.15    2.97 
  -3   6  -5   54.00    2.87 
  -6  -3  -5   56.13    2.97 
  -3   6   5   54.39    2.79 
  -3   6   5   56.34    3.12 
  -6  -3   5   58.39    3.27 
   3  -6   5   47.79    3.16 
  -6  -3   5   58.45    2.89 
  -3   6   5   54.06    3.28 
  -6  -2   5   22.65    1.49 
  -6  -2   5   23.14    1.66 
   2  -6  -5   21.58    1.63 
  -2   6   5   22.31    1.34 
  -6  -2  -5   21.91    1.40 
  -6  -2  -5   23.02    1.39 
  -2   6   5   21.19    1.45 
   2  -6   5   22.40    1.50 
  -2   6   5   21.90    1.45 
  -2   6  -5   23.33    1.35 
   1  -6  -5   82.52    4.60 
  -6  -1   5   80.25    4.26 
  -6  -1  -5   73.19    4.28 
  -1   6   5   83.31    4.49 
  -1   6   5   88.09    4.04 
  -6  -1  -5   73.44    4.26 
   1  -6   5   82.03    4.51 
  -6  -1   5   89.51    4.73 
  -1   6   5   96.62    4.12 
  -6  -1   5   78.14    4.11 
  -6  -1   5   78.09    4.29 
  -1   6  -5   80.52    4.02 
  -6   0  -5   16.82    1.13 
   0  -6  -5   16.85    1.36 
  -6   0   5   14.65    1.43 
   0   6   5   18.76    1.23 
   0  -6   5   14.94    1.16 
  -6   0   5   16.32    1.13 
   0   6  -5   18.42    1.11 
  -6   0   5   18.11    1.15 
   0   6   5   19.49    1.28 
  -6   0  -5   17.02    1.13 
   0   6   5   16.69    1.10 
  -6   0   5   18.09    1.63 
   1   6   5   84.37    3.99 
  -6   1   5   81.93    4.25 
  -1  -6   5   82.85    3.77 
  -1  -6   5   83.81    4.43 
  -1  -6  -5   75.62    4.45 
  -6   1   5   74.00    4.14 
  -1  -6   5   84.39    4.28 
  -6   1   5   74.39    4.25 
   1   6   5   82.26    3.97 
   1   6   5   85.91    4.48 
  -6   1  -5   77.28    4.22 
   1   6  -5   87.50    3.96 
  -6   1  -5   75.50    4.25 
  -6   1   5   84.07    4.74 
  -2  -6  -5   20.42    1.39 
  -6   2   5   21.68    1.41 
  -2  -6  -5   19.04    1.51 
   2   6  -5   22.74    1.30 
  -6   2  -5   26.07    1.44 
  -2  -6   5   22.63    1.44 
   2   6   5   23.75    1.36 
  -2  -6   5   21.37    1.40 
  -6   2   5   21.69    1.41 
  -6   2   5   20.68    1.59 
  -6   2   5   23.06    1.77 
  -2  -6   5   22.76    1.28 
  -6   2  -5   19.67    1.35 
   2   6   5   24.86    1.52 
  -6   3   5   56.83    3.07 
   3   6   5   53.36    2.84 
  -6   3   5   44.81    3.06 
  -3  -6   5   60.25    3.13 
   3   6   5   62.48    3.23 
  -6   3  -5   54.56    3.00 
  -3  -6   5   57.61    3.12 
  -3  -6  -5   49.86    2.82 
  -3  -6   5   54.49    2.73 
  -6   3   5   58.78    3.06 
  -3  -6  -5   56.27    3.22 
  -6   3  -5   55.49    3.02 
  -6   3   5   54.94    3.54 
  -6   4  -5    8.26    0.80 
  -6   4   5    9.07    1.10 
   6  -4  -5    8.82    0.87 
  -6   4   5    7.60    0.85 
  -4  -6  -5    9.89    1.10 
   4   6   5    8.71    0.91 
  -4  -6   5    9.30    0.87 
  -6   4  -5    6.94    0.73 
   4   6   5    8.75    0.79 
  -4  -6  -5    8.94    0.94 
  -6   4   5    8.71    1.26 
  -4  -6   5    8.81    0.86 
  -5  -6   5   24.67    1.60 
  -5  -6   5   25.07    1.76 
   6  -5  -5   26.47    1.71 
  -6   5   5   24.94    1.97 
  -6   5   5   27.39    1.77 
  -6   5   5   23.38    1.69 
  -6   5  -5   23.38    1.62 
  -5  -6  -5   26.03    1.70 
   5   6   5   26.51    1.56 
  -5  -6  -5   27.31    1.91 
  -6  -6   5    2.99    0.73 
  -6  -6  -5    4.25    0.87 
  -6   6   5    3.58    0.75 
  -7  -6   5   11.84    1.27 
  -7  -5   5    0.35    0.63 
  -5   7   5    0.51    0.65 
   5  -7   5    0.28    0.64 
  -7  -4   5   22.90    1.59 
   4  -7  -5   19.91    1.68 
  -4   7   5   20.88    1.51 
  -4   7  -5   21.52    1.52 
  -7  -4   5   23.39    1.73 
  -3   7   5    0.18    0.42 
   3  -7   5    0.82    0.50 
  -3   7  -5    0.14    0.45 
   3  -7  -5    0.55    0.60 
  -3   7   5    0.50    0.56 
  -7  -3   5    0.84    0.61 
  -7  -3   5    0.27    0.64 
  -3   7   5   -0.23    0.40 
  -2   7  -5   36.14    2.12 
  -2   7   5   36.94    2.36 
  -7  -2   5   38.61    2.33 
  -7  -2  -5   39.29    2.26 
  -2   7   5   37.48    2.11 
  -7  -2  -5   41.64    2.28 
  -2   7   5   36.54    2.21 
   2  -7   5   42.81    2.44 
  -7  -2   5   41.65    2.63 
   2  -7  -5   38.02    2.52 
  -7  -1  -5    0.84    0.41 
  -7  -1   5    1.73    0.44 
  -7  -1  -5    1.74    0.47 
   1  -7   5    0.82    0.42 
  -7  -1   5    0.48    0.61 
  -1   7  -5    0.49    0.42 
  -1   7   5    0.94    0.44 
   1  -7  -5    0.52    0.62 
  -1   7   5    1.36    0.61 
  -1   7   5    0.30    0.43 
  -7  -1   5    1.73    0.45 
  -7  -1   5    0.38    0.69 
   0   7   5   46.75    2.63 
   0  -7   5   44.06    2.80 
  -7   0   5   52.49    2.73 
  -7   0   5   48.37    2.69 
  -7   0   5   55.66    3.44 
   0   7   5   45.84    2.83 
  -7   0  -5   44.57    2.68 
   0  -7  -5   52.16    2.97 
  -7   0   5   50.14    2.96 
   0   7   5   41.97    2.53 
   0   7  -5   49.39    2.54 
  -7   0  -5   47.41    2.70 
   1   7   5    1.05    0.49 
  -7   1   5    1.79    0.47 
  -7   1   5    0.45    0.40 
  -7   1   5   -0.05    0.60 
   1   7   5    1.31    0.48 
  -7   1  -5    0.46    0.40 
  -7   1  -5    0.41    0.38 
  -1  -7  -5    0.47    0.53 
   1   7  -5    0.86    0.39 
  -1  -7  -5    0.68    0.49 
  -1  -7   5    1.23    0.44 
  -7   1   5    0.13    0.64 
  -2  -7  -5   37.16    2.45 
  -7   2   5   35.69    2.34 
  -7   2   5   43.68    2.32 
  -2  -7  -5   35.61    2.19 
  -7   2  -5   38.68    2.28 
  -2  -7   5   39.57    2.35 
  -2  -7   5   40.76    2.31 
   2   7  -5   39.15    2.11 
  -7   2   5   40.57    2.29 
  -2  -7   5   38.84    2.05 
  -7   2  -5   39.13    2.27 
   2   7   5   39.61    2.16 
  -7   2   5   39.31    2.67 
   2   7   5   39.37    2.40 
  -3  -7  -5    0.71    0.61 
  -7   3   5   -0.99    0.63 
  -7   3   5    0.70    0.92 
   3   7   5    0.14    0.44 
   3   7   5    0.34    0.43 
  -7   3  -5    0.09    0.42 
  -7   3   5    0.57    0.46 
  -3  -7   5    0.93    0.47 
  -3  -7   5    1.00    0.54 
  -7   3   5    0.05    0.43 
  -7   3  -5    0.17    0.38 
  -3  -7  -5   -0.18    0.49 
  -4  -7  -5   23.97    1.75 
   4   7   5   21.87    1.55 
   7  -4  -5   19.99    1.47 
  -4  -7   5   21.69    1.41 
   4   7   5   22.35    1.41 
  -7   4  -5   21.28    1.45 
  -7   4   5   22.12    1.67 
  -7   4   5   20.03    1.50 
  -4  -7  -5   20.28    1.54 
  -4  -7   5   20.67    1.52 
  -7   4  -5   22.14    1.47 
   5   7   5   -0.06    0.47 
  -7   5   5    0.10    0.52 
  -7   5  -5    0.54    0.47 
  -5  -7  -5    0.16    0.63 
  -5  -7   5    1.00    0.62 
  -6  -7   5   10.80    1.16 
  -6  -7  -5   10.83    1.27 
  -7   6   5   10.93    1.18 
  -8  -5   5    6.17    1.10 
   5  -8   5    9.29    1.13 
  -4   8   5    2.43    0.76 
  -8  -4   5    2.35    0.87 
  -4   8  -5    2.83    0.73 
  -3   8  -5   14.68    1.19 
  -8  -3   5   15.54    1.50 
  -3   8   5   14.75    1.16 
  -3   8   5   14.91    1.29 
  -8  -2   5    3.82    0.94 
  -2   8   5    4.68    0.85 
  -8  -2  -5    4.39    0.69 
  -2   8   5    2.60    0.65 
  -8  -2  -5    4.20    0.69 
  -2   8   5    3.84    0.63 
  -2   8  -5    4.39    0.66 
  -8  -1   5   22.64    1.85 
  -1   8   5   24.58    1.64 
  -8  -1   5   21.98    1.54 
  -1   8   5   25.37    1.69 
  -8  -1   5   24.21    2.14 
  -8  -1  -5   25.57    1.61 
   1  -8  -5   20.40    1.72 
  -1   8  -5   21.42    1.46 
  -8  -1  -5   24.55    1.59 
  -1   8   5   23.16    1.50 
  -8   0   5    4.93    1.10 
   0   8   5    5.43    0.83 
  -8   0  -5    7.51    0.79 
  -8   0   5    6.90    1.31 
   0  -8  -5    5.47    0.85 
   0   8  -5    5.53    0.70 
  -8   0  -5    6.83    0.80 
  -8   0   5    6.46    0.77 
   0   8   5    6.42    0.77 
   0  -8   5    5.62    0.78 
  -8   0   5    6.21    0.77 
   0  -8  -5    5.56    1.00 
  -8   1   5   25.83    1.63 
   1   8  -5   23.93    1.52 
  -8   1   5   24.86    1.85 
   1   8   5   23.59    1.56 
  -8   1   5   24.05    1.60 
  -8   1   5   26.97    2.06 
  -1  -8  -5   23.25    1.66 
  -8   1  -5   23.42    1.60 
  -1  -8   5   24.05    1.68 
  -8   2  -5    4.66    0.70 
  -2  -8   5    4.52    0.65 
  -2  -8  -5    3.75    0.80 
  -8   2   5    3.94    0.91 
  -2  -8   5    3.42    0.68 
   2   8   5    5.80    0.77 
   2   8  -5    5.24    0.67 
  -8   2   5    3.22    0.67 
  -8   3  -5   15.71    1.24 
  -8   3   5   14.10    1.23 
  -3  -8  -5   17.46    1.45 
   3   8   5   15.66    1.25 
  -3  -8   5   15.96    1.16 
  -8   4  -5    2.34    0.65 
  -4  -8   5    2.76    0.69 
  -4  -8  -5    3.00    0.82 
   4   8   5    2.98    0.68 
  -8   4   5    1.60    0.63 
  -8   5   5    9.26    1.09 
  -5  -8  -5    9.30    1.17 
  -5  -8   5    8.53    1.02 
  -8   5  -5    8.46    0.99 
   4  -9   5    6.77    0.99 
  -9  -4   5    6.65    1.20 
  -3   9  -5    0.86    0.65 
  -9  -3   5    0.13    0.80 
  -3   9   5   -0.45    0.67 
  -3   9   5   -0.88    0.50 
  -2   9  -5    8.87    1.01 
  -2   9   5   12.72    1.26 
  -2   9   5    9.40    1.03 
  -9  -2   5    9.75    1.43 
  -9  -2  -5   12.11    1.12 
  -1   9   5   -0.56    0.54 
  -1   9  -5    0.10    0.46 
  -9  -1  -5    0.58    0.54 
  -9  -1   5   -1.40    0.88 
   1  -9  -5    0.24    0.57 
  -9   0  -5   11.28    1.06 
   0  -9  -5   12.37    1.25 
   0   9  -5   10.54    1.00 
  -9   0   5   12.52    1.10 
   0   9   5   12.35    1.09 
  -9   0   5   11.77    1.41 
  -9   1  -5    0.12    0.53 
   1   9   5    0.04    0.57 
   1   9  -5    0.33    0.46 
  -1  -9  -5   -0.06    0.65 
  -9   1   5   -0.34    0.50 
  -2  -9  -5    8.80    1.15 
   2   9   5   11.88    1.10 
  -9   2   5    9.46    1.06 
   2   9  -5   10.69    0.99 
  -9   2  -5   11.14    1.07 
  -3  -9   5    0.19    0.56 
  -3  -9  -5    0.42    0.72 
  -9   3  -5   -0.12    0.55 
   3   9   5   -0.24    0.58 
  -9   3   5    0.02    0.55 
   4   9   5    5.71    0.87 
  -9   4   5    5.69    0.90 
  -4  -9   5    4.49    0.83 
  -9   4  -5    6.39    0.90 
  -4  -9  -5    6.20    1.08 
   0   0   6   55.46    3.26 
   0   0   6   64.94    3.45 
   0   0  -6   62.74    3.29 
   0  -1   6    0.09    0.36 
   0   1   6    1.93    0.44 
  -1   0   6    0.80    0.32 
  -1   0  -6    2.58    0.48 
   0   1  -6    0.37    0.31 
   0  -1  -6    0.52    0.38 
   1   0   6    0.33    0.28 
   0  -1   6    0.61    0.31 
   1   0   6    0.76    0.42 
   0   1   6    0.50    0.41 
  -1   0   6    0.65    0.35 
   1   0  -6    0.38    0.39 
   1   1  -6  411.74   19.86 
   1   1   6  396.02   20.59 
  -1  -1   6  411.78   20.53 
   1  -1   6  377.07   19.78 
   1   1   6  376.95   19.89 
   1  -1   6  398.03   20.60 
  -1   1   6  418.98   20.45 
  -1  -1   6  385.53   19.90 
   1  -1  -6  384.28   19.83 
  -1   1  -6  399.83   19.74 
   1  -2   6    8.16    0.72 
  -1   2   6    8.22    0.67 
  -1   2   6    9.80    1.09 
   1  -2  -6   10.28    0.89 
   2   1   6    9.24    1.00 
  -2  -1  -6    7.77    0.61 
  -2  -1   6    8.89    0.77 
   2   1  -6    9.18    0.75 
  -2  -1   6   10.57    0.88 
  -2  -1  -6    7.13    0.73 
  -1   2  -6    9.40    0.66 
   1  -2   6   10.48    0.81 
  -2   0  -6   51.19    2.75 
   0   2   6   53.05    3.07 
  -2   0  -6   48.61    2.86 
   2   0  -6   52.57    2.88 
   0   2   6   48.97    2.95 
   0  -2  -6   59.21    3.05 
   2   0   6   53.10    3.12 
   0  -2   6   53.18    2.82 
   0   2  -6   58.27    2.91 
  -2   0   6   52.96    2.98 
  -2   0   6   55.69    3.15 
   0  -2   6   56.00    2.99 
  -1  -2   6    8.19    0.68 
  -1  -2  -6   10.09    0.94 
   1   2   6    7.91    0.74 
   1   2  -6    9.37    0.73 
   1   2   6    6.92    0.71 
  -1  -2   6    9.19    0.66 
  -2   1   6    6.99    0.81 
   2  -1  -6    8.92    0.71 
  -2   1  -6    8.63    0.65 
   2  -1   6    9.52    1.06 
   1   2   6    8.48    0.67 
  -2   1   6    7.97    0.62 
  -2   1   6    7.51    0.71 
   2  -2  -6   24.33    1.46 
  -2  -2  -6   25.11    1.52 
   2  -2   6   23.92    1.43 
  -2  -2   6   24.13    1.43 
  -2   2  -6   24.60    1.36 
  -2  -2  -6   24.07    1.41 
  -2   2   6   20.99    1.43 
   2   2   6   21.74    1.36 
   2  -2   6   26.61    1.60 
  -2   2   6   23.51    1.62 
  -2  -2  -6   21.77    1.48 
   2   2  -6   28.11    1.54 
  -2   2   6   23.23    1.37 
  -2  -2   6   23.13    1.42 
   2   2   6   20.32    1.49 
  -2  -2   6   22.77    1.25 
  -2   2   6   22.07    1.44 
   2  -3   6    0.54    0.33 
  -3  -2  -6    0.36    0.31 
   3   2  -6    1.05    0.34 
  -3  -2  -6    0.41    0.28 
   2  -3   6    0.58    0.37 
   3   2   6    1.03    0.37 
  -2   3   6    0.21    0.54 
  -2   3   6    0.49    0.34 
  -2   3   6    0.44    0.23 
  -2   3  -6    0.52    0.23 
  -3  -2  -6    0.94    0.35 
   2  -3  -6    0.82    0.37 
  -3  -2   6    1.31    0.35 
  -2   3   6    0.87    0.58 
   3   2   6    0.33    0.36 
  -3  -2   6    1.02    0.39 
  -1   3  -6  227.70   11.73 
   1  -3   6  245.26   12.28 
  -1   3   6  263.44   12.26 
  -3  -1   6  225.07   11.69 
  -1   3   6  227.32   12.20 
  -3  -1   6  226.17   10.57 
  -3  -1   6  236.91   12.04 
   1  -3   6  222.30   10.94 
  -1   3   6  235.10   10.90 
   3   1  -6  235.41   11.80 
  -3  -1  -6  232.66   11.73 
  -3  -1  -6  228.54   11.81 
   3   1   6  236.50   12.45 
  -1   3   6  241.95   10.73 
   1  -3  -6  241.11   11.88 
  -3  -1  -6  242.15   11.84 
   1  -3  -6  234.01   11.98 
   3   1   6  233.53   11.13 
  -3   0   6    6.57    0.66 
   0  -3  -6    8.88    0.93 
  -3   0   6   10.12    1.05 
   3   0   6    9.94    0.99 
  -3   0  -6    8.72    0.70 
  -3   0  -6    7.76    0.66 
   0   3   6    8.33    0.67 
   0   3   6    9.11    0.90 
   0  -3   6    7.79    0.57 
   3   0  -6    8.10    0.65 
  -3   0   6    9.66    0.91 
   0   3   6    7.38    0.77 
   3   0   6    7.40    0.82 
   0   3  -6    8.47    0.61 
   0  -3   6    8.77    0.70 
   0   3  -6    7.68    0.63 
   0   3   6    7.89    0.63 
   0  -3  -6    8.23    0.89 
  -3   1   6  230.66   10.52 
   3  -1   6  210.07   12.28 
  -1  -3   6  250.17   12.06 
  -1  -3  -6  228.67   11.74 
   1   3   6  235.75   10.79 
  -3   1   6  227.49   11.55 
   1   3  -6  247.84   11.67 
  -3   1  -6  246.94   11.54 
   1   3  -6  243.74   10.76 
  -1  -3   6  223.58   11.68 
  -3   1  -6  228.00   11.62 
   3  -1   6  232.89   11.03 
  -3   1   6  229.36   11.95 
  -1  -3  -6  230.77   11.85 
   1   3   6  221.92   10.39 
   1   3   6  239.58   12.10 
  -1  -3  -6  215.40   11.82 
   3  -1  -6  230.13   11.64 
  -2  -3  -6    0.41    0.42 
  -2  -3  -6    1.45    0.39 
  -2  -3   6    0.36    0.27 
   3  -2  -6    0.49    0.30 
   3  -2   6   -0.16    0.44 
  -3   2   6   -0.04    0.28 
   2   3   6    1.86    0.41 
  -3   2  -6    0.63    0.25 
   2   3   6    0.48    0.29 
  -3   2   6   -0.02    0.40 
  -2  -3   6    0.76    0.27 
  -2  -3   6    0.33    0.26 
  -2  -3  -6    1.06    0.43 
  -3   2   6    0.66    0.22 
   2   3   6    0.85    0.37 
   2   3  -6    0.33    0.27 
  -3   2  -6    0.44    0.24 
  -3   2   6    0.28    0.39 
   3  -2   6    0.23    0.43 
  -3  -3  -6  161.29    8.10 
  -3   3   6  166.69    7.98 
   3   3   6  157.12    8.34 
  -3  -3  -6  166.53    8.06 
  -3   3   6  148.71    7.38 
  -3   3  -6  158.28    7.93 
  -3  -3   6  159.57    7.11 
  -3   3  -6  156.31    7.87 
   3  -3  -6  161.64    8.04 
   3  -3   6  149.43    7.50 
  -3   3   6  154.56    8.19 
   3   3   6  153.34    7.44 
  -3  -3  -6  173.43    7.17 
  -3   3   6  150.65    8.40 
  -3  -3   6  147.28    8.07 
  -3  -3  -6  157.96    7.98 
   3  -3   6  151.42    8.39 
   4   3   6    0.62    0.35 
  -4  -3  -6    0.44    0.35 
   3  -4   6    1.06    0.45 
  -4  -3   6    0.94    0.42 
  -3   4  -6    1.12    0.30 
   3  -4  -6    0.77    0.39 
   3  -4   6    0.55    0.42 
  -4  -3  -6    1.33    0.38 
  -3   4  -6    1.24    0.29 
  -4  -3  -6    1.37    0.40 
  -4  -3   6    0.91    0.39 
  -3   4   6    0.80    0.54 
  -3   4   6    0.35    0.37 
   4   3   6    0.99    0.35 
  -4  -3  -6    0.53    0.34 
  -3   4   6    0.85    0.30 
  -3   4   6   -0.67    0.47 
  -2   4   6   26.34    1.83 
   2  -4   6   22.49    1.59 
   2  -4  -6   25.27    1.61 
   2  -4   6   25.67    1.46 
  -4  -2  -6   24.32    1.51 
  -2   4   6   25.44    1.51 
   2  -4  -6   27.52    1.64 
  -4  -2   6   28.28    1.66 
  -4  -2  -6   24.57    1.51 
   4   2  -6   23.84    1.46 
  -2   4  -6   23.88    1.39 
  -2   4   6   26.71    1.65 
  -2   4   6   26.32    1.36 
   4   2   6   21.41    1.60 
  -4  -2   6   24.14    1.44 
   4   2   6   23.80    1.47 
   1  -4   6    0.02    0.27 
  -4  -1   6   -0.06    0.39 
  -4  -1  -6    0.45    0.29 
   4   1   6    0.45    0.45 
  -1   4   6    0.05    0.25 
   4   1   6    0.46    0.44 
   4   1  -6   -0.05    0.21 
   1  -4  -6   -0.05    0.43 
  -1   4  -6   -0.06    0.27 
   1  -4  -6    0.52    0.49 
  -1   4   6    0.50    0.42 
  -4  -1   6    0.28    0.37 
  -4  -1   6    0.30    0.27 
  -4  -1  -6    0.32    0.28 
  -1   4   6   -0.11    0.47 
  -1   4   6    0.16    0.25 
   0  -4  -6   22.49    1.48 
   0   4   6   21.17    1.22 
   4   0  -6   21.01    1.30 
  -4   0   6   23.43    1.70 
   0  -4   6   21.81    1.36 
   0   4   6   18.36    1.33 
   4   0   6   24.19    1.63 
  -4   0  -6   21.80    1.30 
   0  -4  -6   18.72    1.46 
   0   4   6   23.66    1.58 
   4   0   6   18.98    1.46 
   0  -4   6   20.86    1.24 
  -4   0   6   23.82    1.52 
   0   4  -6   21.60    1.22 
  -4   0   6   22.43    1.31 
  -4   0  -6   20.19    1.29 
   0   4   6   19.49    1.33 
  -1  -4  -6    0.46    0.51 
  -4   1  -6    0.30    0.24 
  -1  -4   6    0.28    0.26 
  -4   1   6   -0.35    0.45 
  -1  -4  -6    0.53    0.39 
  -4   1   6   -0.12    0.42 
   4  -1  -6    0.27    0.29 
   1   4   6    0.14    0.28 
  -1  -4  -6    0.00    0.50 
   4  -1   6    0.71    0.53 
  -4   1   6    0.30    0.30 
   1   4   6    0.39    0.30 
  -1  -4   6    0.31    0.24 
  -4   1  -6    0.33    0.26 
   1   4  -6    0.44    0.26 
  -1  -4   6    0.16    0.24 
   1   4   6    0.38    0.35 
   4  -1   6    0.98    0.54 
  -4   2   6   23.71    1.58 
   2   4   6   25.51    1.45 
   2   4   6   24.50    1.60 
   2   4   6   26.24    1.49 
  -2  -4   6   25.23    1.52 
   2   4  -6   25.18    1.38 
  -4   2   6   26.83    1.54 
  -2  -4   6   25.06    1.35 
  -2  -4   6   25.49    1.52 
   4  -2  -6   26.99    1.55 
   4  -2   6   26.94    1.93 
  -4   2  -6   24.80    1.48 
   4  -2   6   26.18    1.75 
  -4   2   6   27.95    1.81 
  -2  -4  -6   24.39    1.62 
  -2  -4  -6   25.17    1.62 
  -4   2  -6   23.33    1.47 
  -4   3   6    0.41    0.52 
  -3  -4   6    0.85    0.33 
   4  -3   6    1.26    0.58 
   4  -3   6    0.31    0.51 
  -4   3  -6    0.76    0.28 
   3   4   6    1.23    0.40 
  -4   3  -6    0.66    0.28 
   4  -3  -6    1.20    0.39 
  -3  -4  -6    0.19    0.38 
  -4   3   6    0.42    0.35 
  -4   3   6   -0.83    0.45 
  -3  -4  -6    0.36    0.39 
   3   4   6    0.98    0.39 
  -3  -4  -6    1.00    0.38 
  -3  -4   6    1.29    0.39 
   4  -4   6   12.41    1.04 
  -4  -4   6   12.88    1.01 
  -4   4   6   12.02    1.38 
  -4   4   6   14.31    1.06 
   4   4   6   12.58    1.01 
  -4   4  -6   11.36    0.89 
  -4  -4   6   11.27    0.90 
  -4   4  -6   13.33    0.89 
  -4  -4  -6   13.49    1.01 
  -4  -4  -6   13.03    1.05 
   4  -4   6   13.84    1.16 
   4  -4  -6   13.32    1.00 
  -4   4   6   12.82    1.26 
   4   4   6   12.74    0.95 
  -5  -4   6    0.51    0.47 
   5   4   6    0.83    0.43 
  -5  -4   6    0.24    0.43 
   4  -5  -6    0.69    0.44 
  -4   5   6    0.67    0.58 
   4  -5   6    1.00    0.55 
   5   4   6    0.66    0.42 
   4  -5   6    0.56    0.46 
  -4   5   6    0.59    0.43 
  -4   5   6    0.48    0.64 
  -3   5   6   88.39    4.57 
  -3   5   6   81.85    4.07 
  -3   5   6   89.53    4.83 
  -5  -3  -6   87.76    4.44 
   3  -5   6   79.64    4.19 
  -3   5   6   86.32    4.51 
   5   3   6   84.56    4.63 
  -5  -3   6   77.99    4.58 
  -5  -3  -6   83.33    4.39 
  -3   5   6   80.15    4.20 
   5   3   6   80.14    4.13 
  -5  -3   6   89.08    4.08 
   3  -5  -6   82.83    4.54 
   5   2   6    0.84    0.40 
   5   2   6    1.06    0.44 
  -2   5   6    0.78    0.56 
  -2   5   6    0.84    0.37 
   5   2  -6    0.72    0.34 
   2  -5   6    0.45    0.38 
  -5  -2   6    0.47    0.48 
  -5  -2  -6    1.59    0.39 
  -5  -2  -6    1.49    0.41 
  -2   5  -6    1.67    0.41 
  -2   5   6    0.68    0.51 
  -2   5   6    0.98    0.35 
   2  -5  -6    0.91    0.54 
   2  -5  -6    1.50    0.54 
  -5  -2   6    0.78    0.45 
  -5  -1   6  119.69    6.48 
   1  -5  -6  128.61    6.49 
  -5  -1   6  119.66    6.10 
   5   1  -6  123.32    6.16 
  -1   5  -6  112.93    5.72 
  -5  -1  -6  117.75    6.12 
  -5  -1   6  119.81    5.70 
  -1   5   6  129.23    6.55 
   5   1   6  113.41    6.53 
  -1   5   6  113.97    5.69 
   1  -5   6  116.09    6.41 
  -5  -1  -6  132.52    6.20 
  -1   5   6  113.22    6.39 
   5   1   6  118.29    5.86 
   5   0   6    0.58    0.68 
   0   5  -6    0.26    0.30 
  -5   0  -6    0.81    0.33 
  -5   0  -6    0.61    0.32 
  -5   0   6    1.11    0.60 
   0  -5   6    1.41    0.37 
  -5   0   6    0.19    0.55 
   0   5   6    0.68    0.33 
   5   0  -6    0.53    0.31 
  -5   0   6    0.77    0.34 
   0   5   6    0.67    0.35 
   5   0   6    0.07    0.60 
   0  -5  -6    0.59    0.51 
   0   5   6    0.97    0.47 
  -5   1   6  114.08    5.82 
  -5   1   6  129.90    6.18 
   1   5   6  112.18    5.65 
   1   5   6  115.61    6.46 
   5  -1  -6  116.42    6.21 
  -1  -5   6  123.53    5.46 
   1   5   6  121.30    5.78 
  -5   1  -6  114.60    6.19 
  -1  -5  -6  124.37    6.47 
  -5   1  -6  126.30    6.16 
  -1  -5   6  125.19    6.22 
  -5   1   6  118.32    6.60 
  -1  -5   6  118.28    6.41 
   1   5  -6  114.51    5.71 
   5  -1   6  133.28    6.72 
   5  -1   6  121.70    5.96 
  -5   2  -6    0.69    0.32 
  -5   2   6    1.06    0.40 
   5  -2   6    0.95    0.69 
   2   5   6    1.24    0.38 
  -5   2   6    0.82    0.54 
  -2  -5   6    0.56    0.31 
   2   5   6    1.04    0.44 
   2   5   6    0.74    0.39 
  -2  -5  -6    0.65    0.44 
  -2  -5   6    0.72    0.33 
   5  -2  -6    1.08    0.38 
   5  -2   6    0.74    0.63 
   2   5  -6    0.93    0.31 
  -2  -5   6    0.86    0.36 
  -5   2   6    0.54    0.55 
  -5   2  -6    1.05    0.34 
  -3  -5   6   84.05    4.05 
   5  -3   6  101.22    5.16 
  -5   3   6   84.56    4.91 
   3   5   6   91.94    4.77 
   3   5   6   91.48    4.27 
  -5   3  -6   84.24    4.48 
  -5   3   6   80.80    4.32 
   5  -3  -6   89.36    4.59 
  -3  -5  -6   89.02    4.18 
  -5   3   6   78.99    4.52 
  -3  -5  -6   75.74    4.65 
  -5   3  -6   85.60    4.51 
  -3  -5   6   83.31    4.59 
  -4  -5  -6    0.25    0.48 
   5  -4   6    0.42    0.58 
  -4  -5   6    0.68    0.41 
  -4  -5   6    0.19    0.40 
  -5   4  -6    0.65    0.34 
   5  -4  -6    0.55    0.41 
   4   5   6    0.71    0.39 
   4   5   6    0.69    0.44 
  -5   4   6   -0.60    0.55 
  -5   4   6    0.50    0.43 
  -5   4   6    0.21    0.69 
   5  -4   6    0.52    0.59 
  -5   4  -6    0.95    0.38 
  -4  -5  -6    0.76    0.51 
   5  -5  -6   39.23    2.45 
  -5  -5  -6   41.96    2.62 
  -5   5   6   39.93    2.45 
  -5  -5   6   44.50    2.26 
  -5   5   6   40.11    2.77 
   5  -5   6   44.75    2.73 
   5   5   6   40.43    2.25 
   5   5   6   42.03    2.52 
  -5  -5   6   41.20    2.52 
  -5   5   6   41.14    2.47 
   5  -5   6   42.59    2.45 
  -5  -5  -6   39.59    2.30 
  -6  -5   6   -0.28    0.51 
  -5   6   6   -0.81    0.57 
  -5   6   6   -0.01    0.74 
   5  -6   6   -0.47    0.55 
  -5   6   6   -0.58    0.47 
  -6  -5   6    0.10    0.54 
   5  -6   6   -0.22    0.61 
   4  -6   6    9.08    0.96 
  -6  -4   6    9.29    0.97 
  -4   6   6    8.58    0.99 
  -4   6   6    6.34    1.11 
  -4   6   6    8.35    1.06 
   4  -6   6   10.92    1.13 
  -6  -4   6    8.67    1.07 
  -3   6   6    0.52    0.65 
  -6  -3  -6    0.48    0.38 
  -3   6   6    0.25    0.56 
   3  -6   6   -0.25    0.47 
  -6  -3   6   -0.46    0.47 
  -3   6   6    0.84    0.40 
  -3   6  -6    0.17    0.45 
  -6  -3  -6   -0.14    0.36 
  -6  -3   6   -0.64    0.44 
  -6  -2  -6    9.79    0.89 
  -2   6   6    8.84    1.00 
  -2   6  -6    9.52    0.85 
  -2   6   6   11.62    1.26 
  -6  -2   6   11.13    1.17 
  -6  -2   6   11.03    1.05 
  -2   6   6    9.75    0.81 
  -6  -2  -6    9.73    0.85 
  -2   6   6    9.82    0.87 
   2  -6   6    9.65    0.92 
   1  -6   6    0.01    0.37 
  -1   6  -6    0.05    0.34 
   6   1  -6   -0.09    0.32 
  -1   6   6    0.08    0.36 
  -6  -1   6   -0.07    0.32 
  -1   6   6   -0.64    0.46 
  -6  -1   6    0.45    0.57 
  -6  -1   6   -0.32    0.53 
  -6  -1  -6   -0.08    0.31 
  -6  -1  -6   -0.12    0.32 
  -1   6   6   -0.09    0.31 
   1  -6  -6   -0.02    0.47 
  -6   0   6   18.44    1.62 
  -6   0  -6   13.61    1.04 
   0  -6   6   13.35    1.07 
   0   6  -6   14.97    0.99 
   0  -6  -6   15.01    1.30 
   6   0  -6   16.82    1.08 
  -6   0   6   14.80    1.08 
  -6   0   6   13.57    1.38 
   0   6   6   14.59    1.16 
  -6   0  -6   14.33    1.02 
   0   6   6   12.40    1.06 
   0   6   6   12.57    0.98 
  -1  -6  -6    0.09    0.47 
  -1  -6   6   -0.30    0.31 
  -6   1  -6   -0.23    0.31 
   1   6  -6   -0.06    0.32 
   6  -1  -6   -0.05    0.32 
   1   6   6   -0.37    0.36 
  -6   1   6    0.62    0.60 
  -6   1  -6   -0.17    0.31 
  -6   1   6    0.59    0.59 
   1   6   6    0.17    0.35 
   1   6   6   -0.35    0.46 
  -6   1   6   -0.32    0.34 
  -6   2   6   11.12    1.26 
  -2  -6   6    9.99    0.82 
  -2  -6  -6   10.15    0.97 
  -2  -6   6    9.63    0.85 
  -2  -6  -6   11.33    1.13 
   2   6   6   10.25    0.86 
   2   6   6   10.09    0.93 
   2   6  -6   10.26    0.82 
  -6   2   6   10.40    0.91 
  -6   2   6   11.04    1.12 
   6  -2  -6   10.23    0.87 
  -6   2  -6    9.38    0.85 
  -2  -6   6   10.74    0.89 
  -6   2  -6    9.34    0.82 
  -6   3  -6    0.46    0.36 
   3   6   6   -0.45    0.42 
  -6   3   6    0.91    0.69 
  -6   3   6    0.40    0.44 
  -3  -6   6    0.57    0.41 
  -3  -6   6    0.38    0.40 
   3   6   6    0.10    0.39 
  -6   3   6    0.56    0.63 
  -3  -6  -6    0.37    0.51 
  -6   3  -6    0.25    0.35 
  -3  -6  -6    0.06    0.45 
   6  -3  -6    0.13    0.36 
  -6   4  -6    6.48    0.75 
  -6   4   6    8.36    0.90 
  -6   4   6    8.82    1.33 
  -4  -6  -6    8.45    0.99 
  -4  -6   6    9.49    0.91 
  -4  -6  -6    8.19    1.06 
  -4  -6   6    7.47    0.83 
  -6   4  -6    8.81    0.85 
   6  -4  -6    9.04    0.87 
   4   6   6    8.67    0.81 
  -6   4   6    8.75    1.19 
   4   6   6    9.42    0.96 
   6  -5  -6   -0.42    0.43 
  -5  -6   6   -0.85    0.43 
  -5  -6   6    0.61    0.54 
  -5  -6  -6   -0.57    0.63 
   5   6   6   -0.28    0.44 
  -6   5   6   -0.04    0.72 
  -6   5  -6    0.30    0.43 
  -5  -6  -6   -0.49    0.54 
  -6   5   6   -0.85    0.59 
  -6   5   6   -0.58    0.48 
  -6   6   6    4.02    0.89 
  -6   6   6    3.33    0.76 
  -6  -6  -6    2.88    0.89 
  -6  -6   6    3.25    0.76 
  -7  -6   6   -0.18    0.65 
  -5   7   6   15.87    1.38 
   5  -7   6   17.11    1.40 
  -7  -5   6   15.61    1.36 
  -4   7   6   -1.25    0.54 
   4  -7   6   -0.81    0.55 
  -7  -4   6   -0.44    0.56 
  -7  -3   6   31.09    2.21 
   3  -7  -6   31.01    2.20 
  -3   7   6   28.49    1.78 
  -3   7  -6   30.21    1.88 
  -7  -3   6   32.18    2.00 
  -3   7   6   31.26    1.96 
  -2   7  -6    0.12    0.45 
   2  -7   6   -0.45    0.42 
  -7  -2   6    0.68    0.64 
  -2   7   6    0.44    0.59 
  -2   7   6    0.57    0.45 
  -7  -2  -6    0.08    0.44 
  -7  -2   6   -0.59    0.56 
  -2   7   6    0.67    0.46 
   2  -7  -6   -0.63    0.60 
  -7  -2  -6    0.41    0.42 
  -7  -1  -6   42.55    2.50 
  -7  -1   6   41.90    2.47 
  -7  -1   6   43.28    2.61 
   1  -7  -6   44.40    2.81 
   1  -7   6   44.12    2.64 
   7   1  -6   43.55    2.50 
  -1   7   6   43.76    2.63 
  -1   7   6   45.25    2.38 
  -7  -1  -6   42.77    2.50 
  -1   7  -6   41.91    2.34 
  -7  -1   6   46.28    2.99 
  -1   7   6   40.78    2.46 
   0  -7  -6   -0.18    0.55 
  -7   0  -6    0.31    0.42 
   0   7   6   -0.28    0.42 
  -7   0  -6    0.71    0.40 
   7   0  -6    0.40    0.44 
  -7   0   6    0.41    0.45 
   0  -7   6   -0.41    0.34 
  -7   0   6   -0.22    0.71 
   0   7   6    0.19    0.41 
   0   7   6   -0.50    0.55 
   0   7  -6   -0.33    0.37 
  -7   0   6    0.03    0.74 
  -1  -7   6   40.90    2.53 
   1   7   6   41.96    2.58 
  -7   1  -6   41.38    2.45 
   1   7   6   43.10    2.33 
  -7   1   6   43.60    2.83 
  -7   1   6   44.82    2.55 
  -7   1  -6   43.10    2.45 
   1   7  -6   41.66    2.29 
  -7   1   6   42.20    2.47 
  -1  -7  -6   43.66    2.42 
   7  -1  -6   43.13    2.49 
  -1  -7  -6   39.91    2.68 
  -2  -7   6    0.25    0.41 
  -2  -7  -6    0.26    0.56 
  -2  -7   6    0.53    0.44 
   2   7   6   -0.19    0.47 
  -7   2   6    0.49    0.45 
   2   7   6    0.17    0.46 
  -7   2   6   -0.41    0.67 
  -7   2   6   -0.38    0.55 
  -7   2  -6    0.17    0.35 
   2   7  -6    0.50    0.43 
  -2  -7  -6    1.07    0.61 
  -7   2  -6    0.55    0.45 
   7  -2  -6    0.01    0.41 
  -2  -7   6    0.19    0.42 
  -7   3  -6   28.89    1.83 
  -3  -7  -6   25.72    2.02 
  -7   3   6   26.71    1.95 
  -3  -7  -6   29.35    1.87 
  -7   3   6   32.92    2.31 
  -7   3  -6   29.66    1.87 
   7  -3  -6   29.43    1.89 
  -3  -7   6   27.80    1.87 
   3   7   6   28.27    1.79 
  -3  -7   6   32.73    1.74 
   3   7   6   34.74    2.07 
  -7   3   6   29.05    1.88 
   4   7   6   -0.16    0.49 
  -7   4   6    0.09    0.73 
  -7   4  -6   -0.17    0.45 
  -7   4   6    0.38    0.54 
   4   7   6   -0.17    0.52 
  -7   4   6   -0.74    0.82 
  -4  -7   6   -0.55    0.46 
  -4  -7  -6   -0.77    0.57 
  -5  -7  -6   16.95    1.47 
  -7   5   6   15.09    1.50 
  -5  -7   6   15.53    1.26 
   5   7   6   17.07    1.26 
  -7   5  -6   17.47    1.33 
  -7   5   6   17.76    1.42 
  -6  -7   6    1.02    0.66 
  -7   6   6   -0.27    0.60 
  -6  -7  -6   -0.84    0.67 
   5  -8   6   -1.09    0.64 
  -5   8   6    0.16    0.72 
  -8  -5   6   -0.16    0.77 
   4  -8   6    2.24    0.77 
  -8  -4   6    2.60    0.84 
  -4   8   6    3.89    0.86 
  -3   8   6   -0.11    0.51 
  -3   8  -6   -0.61    0.45 
  -3   8   6    0.16    0.64 
  -8  -3   6   -0.35    0.62 
  -8  -2   6    3.98    0.99 
  -2   8   6    5.58    0.96 
  -8  -2  -6    5.23    0.75 
  -2   8   6    5.21    0.71 
  -2   8  -6    3.12    0.70 
  -8  -1   6   -0.14    0.78 
  -1   8  -6   -0.45    0.44 
  -8  -1  -6    0.15    0.48 
  -1   8   6    2.19    0.72 
  -1   8   6   -0.55    0.42 
  -8  -1   6   -0.41    0.44 
  -8   0   6    3.39    0.97 
  -8   0   6    4.22    0.70 
  -8   0   6    4.58    1.11 
   0   8   6    4.70    0.92 
   8   0  -6    4.44    0.70 
   0   8  -6    4.63    0.65 
  -8   0  -6    4.56    0.70 
   0   8   6    3.21    0.65 
  -8   1   6    0.00    0.62 
  -1  -8  -6   -0.51    0.55 
  -8   1   6    0.10    0.69 
   1   8   6    0.21    0.51 
   1   8  -6    0.03    0.46 
  -8   1   6    0.27    0.46 
  -8   1  -6   -0.78    0.45 
  -8   2  -6    4.94    0.76 
  -2  -8  -6    3.47    0.81 
   2   8  -6    4.60    0.68 
   2   8   6    6.68    0.86 
  -8   2   6    4.04    0.86 
  -8   2   6    5.38    0.78 
   3   8   6    0.39    0.59 
  -8   3  -6   -0.49    0.45 
  -3  -8   6   -0.32    0.49 
  -3  -8  -6   -0.83    0.61 
  -8   3   6   -1.06    0.63 
  -8   3   6    0.31    0.53 
  -4  -8  -6    2.77    0.88 
  -8   4  -6    2.56    0.68 
  -8   4   6    2.62    0.73 
   4   8   6    2.95    0.70 
  -4  -8   6    3.10    0.70 
  -5  -8  -6    0.23    0.72 
   5   8   6   -0.66    0.51 
  -8   5  -6    0.01    0.56 
  -8   5   6    0.37    0.64 
  -5  -8   6   -0.22    0.58 
  -9  -3   6    8.59    1.32 
  -3   9   6    7.75    1.15 
  -3   9  -6    9.63    1.09 
  -2   9  -6   -0.27    0.60 
  -2   9   6   -0.22    0.70 
  -9  -2   6   -0.12    0.84 
  -9  -2  -6   -0.63    0.52 
  -2   9   6    0.23    0.54 
  -9  -1  -6   12.06    1.16 
  -9  -1   6   15.35    1.69 
   1  -9  -6    8.52    1.16 
  -1   9  -6   12.73    1.16 
  -1   9   6   13.96    1.19 
  -9   0   6    0.80    0.58 
   0  -9  -6    0.82    0.69 
   0   9   6    0.14    0.54 
   0   9  -6   -0.62    0.50 
  -9   0   6   -0.11    0.72 
  -9   0  -6    0.05    0.53 
  -1  -9  -6   14.22    1.41 
   1   9  -6   11.66    1.06 
  -9   1   6   11.39    1.36 
   1   9   6   15.41    1.25 
  -9   1   6   11.85    1.19 
  -9   1  -6   12.39    1.17 
   2   9  -6   -0.03    0.49 
  -2  -9  -6   -0.15    0.68 
  -9   2   6   -0.12    0.56 
  -9   2  -6   -0.91    0.51 
   2   9   6   -0.54    0.54 
  -9   3   6    7.99    1.07 
  -3  -9  -6    8.62    1.22 
   3   9   6   11.29    1.13 
  -9   3  -6    9.31    1.08 
   0   0   7   60.73    3.38 
   0   0  -7   59.57    3.23 
   0   0   7   58.78    3.21 
   0   1   7  179.21    9.26 
   1   0   7  163.44    8.19 
  -1   0   7  181.33    8.93 
   0  -1  -7  169.69    8.83 
   0  -1  -7  182.29    8.80 
  -1   0  -7  188.70    8.96 
  -1   0   7  170.52    9.10 
   1   0  -7  176.81    8.98 
   0  -1   7  173.89    8.88 
   0   1   7  159.54    8.91 
   0  -1   7  170.48    9.28 
   1   0   7  163.29    9.17 
   0   1  -7  171.10    8.80 
   1   0   7  174.35    8.86 
   1  -1  -7  245.74   11.82 
  -1   1   7  222.82   11.87 
   1  -1  -7  210.52   11.86 
   1  -1   7  242.79   11.10 
   1   1   7  225.92   11.87 
  -1  -1  -7  231.83   11.84 
  -1  -1  -7  212.90   11.71 
  -1   1  -7  216.08   11.76 
   1   1   7  228.86   11.01 
   1   1  -7  249.17   11.81 
   1   1   7  243.87   12.34 
  -1  -1   7  250.06   12.32 
  -1   1   7  230.84   12.18 
   1  -1   7  255.88   12.44 
  -1  -1   7  228.08   11.88 
   1  -2  -7  121.08    5.86 
  -1   2   7  106.33    5.78 
  -1   2  -7  115.12    5.61 
   1  -2  -7  116.59    5.79 
   2   1  -7  106.83    5.68 
  -1   2   7  103.09    5.81 
   2   1   7  112.20    5.42 
   2   1   7   99.50    5.99 
   1  -2   7  116.91    5.93 
  -2  -1  -7  102.41    5.64 
  -2  -1   7  112.04    5.76 
  -2  -1   7  110.87    5.86 
  -2  -1   7  110.78    5.06 
  -2  -1  -7  102.66    5.69 
  -1   2   7  104.04    5.11 
   1  -2   7   99.62    5.26 
  -2   0   7    1.39    0.51 
  -2   0   7    2.38    0.52 
   0  -2   7    1.23    0.42 
   0   2   7    1.16    0.34 
   0   2   7    1.69    0.40 
   0  -2  -7    1.20    0.48 
  -2   0   7    1.14    0.35 
  -2   0  -7    1.65    0.38 
  -2   0  -7    1.73    0.42 
   2   0  -7    2.12    0.46 
   2   0   7    1.79    0.47 
   2   0   7    1.88    0.53 
   0   2  -7    1.15    0.44 
   0  -2   7    1.41    0.38 
   0   2   7    2.08    0.60 
   2   0  -7    1.56    0.44 
   0  -2  -7    1.62    0.52 
  -2   1   7  111.12    5.22 
   1   2   7  114.71    5.41 
   2  -1   7  116.76    6.22 
  -1  -2   7  106.39    5.78 
  -2   1   7  118.41    5.94 
  -1  -2  -7  108.35    5.83 
  -2   1  -7  111.81    5.76 
   2  -1  -7  112.21    5.83 
  -1  -2  -7  117.25    5.91 
  -2   1  -7  104.78    5.70 
   2  -1   7  111.87    5.55 
  -2   1   7  116.35    5.94 
   2  -1  -7  105.91    5.78 
   1   2  -7  114.25    5.76 
   1   2   7  114.67    5.91 
   1   2   7  104.96    6.02 
  -2   2   7   16.19    1.13 
  -2   2   7   17.58    1.21 
   2  -2  -7   19.62    1.29 
   2  -2  -7   17.62    1.25 
  -2   2  -7   18.29    1.15 
  -2   2   7   17.17    1.33 
  -2   2  -7   18.33    1.14 
  -2  -2   7   17.75    1.23 
  -2  -2  -7   18.20    1.19 
   2  -2   7   20.31    1.29 
  -2  -2  -7   18.52    1.36 
  -2  -2   7   18.12    1.09 
   2   2   7   19.39    1.36 
  -2  -2   7   17.95    1.22 
   2   2  -7   19.22    1.39 
  -2  -2  -7   17.20    1.33 
   2  -2   7   18.26    1.39 
   2   2   7   18.55    1.22 
  -2   3   7   62.85    3.69 
   2  -3   7   66.96    3.25 
  -2   3   7   62.09    3.08 
  -3  -2  -7   69.27    3.49 
  -3  -2  -7   61.77    3.42 
  -3  -2  -7   68.21    3.40 
  -2   3  -7   62.23    3.29 
   2  -3  -7   64.84    3.48 
   3   2   7   60.44    3.62 
  -2   3  -7   60.12    3.30 
   3   2   7   63.31    3.25 
  -3  -2   7   62.96    3.49 
   2  -3   7   64.39    3.61 
   3   2  -7   60.59    3.38 
  -2   3   7   62.47    3.26 
  -3  -2   7   60.82    3.06 
   3   2  -7   61.36    3.41 
   2  -3  -7   59.78    3.47 
  -2   3   7   67.10    3.46 
   3   1   7  139.82    7.44 
   1  -3  -7  121.85    6.98 
  -3  -1   7  142.12    6.84 
  -3  -1  -7  138.83    6.88 
  -1   3   7  136.67    7.10 
  -3  -1  -7  134.49    6.92 
  -3  -1   7  135.58    6.24 
  -1   3   7  150.89    7.36 
   3   1   7  131.26    6.64 
   1  -3   7  132.35    6.41 
  -1   3   7  127.46    6.34 
  -3  -1   7  118.25    7.04 
   3   1  -7  132.08    6.89 
   1  -3  -7  134.59    7.09 
   1  -3   7  136.79    7.18 
  -1   3  -7  141.19    6.82 
  -1   3   7  130.92    6.40 
   0   3   7  106.59    4.86 
   3   0  -7  106.16    5.26 
   0  -3   7  107.64    4.88 
  -3   0  -7  106.15    5.23 
  -3   0   7  107.22    4.94 
   0  -3  -7  100.28    5.34 
   0   3   7   94.14    5.42 
   0   3  -7   96.19    5.18 
   0   3   7   96.45    4.85 
  -3   0   7   94.36    5.19 
   3   0   7  102.70    4.98 
   0  -3  -7   95.15    5.33 
   0  -3   7  103.98    5.45 
  -3   0   7  102.69    5.62 
  -3   0  -7  102.53    5.26 
   3   0   7   96.22    5.55 
   0   3   7   99.99    5.52 
  -1  -3   7  133.43    6.36 
  -3   1   7  130.42    7.09 
  -3   1  -7  133.95    6.87 
   1   3   7  134.21    6.40 
   3  -1  -7  136.12    6.91 
  -1  -3  -7  133.65    6.96 
  -1  -3   7  123.07    6.04 
  -1  -3   7  128.93    7.11 
  -1  -3   7  128.78    6.87 
  -3   1   7  144.68    6.86 
   3  -1   7  138.42    6.58 
  -3   1  -7  141.89    6.83 
   1   3   7  145.88    7.19 
  -1  -3  -7  131.91    7.05 
   3  -1   7  142.93    7.38 
   1   3  -7  133.52    6.87 
  -1  -3  -7  127.76    7.00 
   1   3   7  126.26    6.19 
  -3   1   7  137.34    6.27 
  -3   2  -7   61.91    3.39 
   3  -2   7   64.87    3.46 
  -3   2   7   65.51    3.48 
  -2  -3   7   60.96    3.55 
   3  -2   7   69.95    3.88 
  -2  -3   7   67.32    3.49 
   3  -2  -7   64.02    3.49 
  -2  -3   7   66.50    3.19 
  -3   2   7   65.89    3.23 
  -3   2  -7   63.62    3.42 
   2   3   7   55.86    3.61 
  -2  -3  -7   68.17    3.65 
  -3   2   7   62.56    3.64 
   2   3   7   67.58    3.16 
  -2  -3  -7   67.32    3.58 
   2   3   7   67.50    3.28 
  -2  -3   7   64.05    3.07 
  -2  -3  -7   63.33    3.66 
   3  -3   7   84.89    4.61 
  -3  -3  -7   83.25    4.38 
   3  -3  -7   75.57    4.32 
  -3   3   7   83.86    4.03 
  -3   3   7   83.58    4.31 
  -3  -3  -7   84.88    3.86 
  -3  -3   7   83.78    4.36 
  -3  -3   7   79.31    3.82 
  -3   3  -7   81.87    4.18 
  -3   3   7   77.87    4.54 
   3   3   7   75.60    4.02 
   3  -3   7   80.98    4.12 
   3   3   7   81.95    4.52 
  -3   3  -7   81.82    4.22 
  -3  -3  -7   80.80    4.33 
  -3  -3  -7   79.18    4.35 
   4   3   7   50.44    3.16 
   3  -4   7   56.29    2.91 
  -3   4   7   61.55    3.12 
  -4  -3   7   52.20    2.73 
  -3   4  -7   51.04    2.90 
   4   3   7   53.69    2.86 
  -3   4   7   58.60    3.49 
  -4  -3   7   56.43    3.12 
  -3   4  -7   52.72    2.89 
  -3   4   7   52.02    3.04 
  -4  -3  -7   58.42    3.04 
  -4  -3  -7   56.08    3.05 
   3  -4   7   52.43    3.22 
   3  -4  -7   54.03    3.08 
  -4  -2  -7    1.28    0.39 
   2  -4  -7    0.70    0.50 
   2  -4   7    0.71    0.41 
  -4  -2   7    0.17    0.41 
   4   2  -7    0.49    0.34 
  -2   4   7    0.31    0.29 
  -4  -2  -7    0.71    0.37 
  -2   4   7    0.50    0.58 
   2  -4   7    0.97    0.43 
   2  -4  -7    1.08    0.49 
   4   2   7    0.56    0.40 
   4   2   7    0.41    0.45 
  -4  -2   7    0.14    0.38 
  -2   4   7   -0.31    0.51 
  -2   4   7    0.61    0.31 
  -1   4   7   67.43    3.72 
  -1   4   7   73.42    3.54 
   1  -4  -7   64.14    3.80 
  -4  -1  -7   66.49    3.60 
  -1   4   7   66.78    3.32 
  -4  -1   7   64.45    3.57 
   4   1  -7   68.96    3.60 
  -4  -1   7   69.64    3.86 
   4   1   7   69.97    3.62 
  -4  -1  -7   69.59    3.64 
  -4  -1   7   66.35    3.39 
   1  -4  -7   62.01    3.83 
   1  -4   7   73.46    3.40 
  -1   4   7   70.50    3.99 
   4   1   7   63.58    3.97 
   1  -4   7   65.15    3.76 
  -4   0   7   11.20    1.27 
   0  -4  -7   10.75    0.97 
   0   4   7   10.83    1.07 
  -4   0   7    9.50    0.81 
   0   4   7   11.28    0.99 
   0   4   7   10.40    0.77 
   4   0   7   10.40    0.96 
   0   4   7    9.18    0.81 
  -4   0  -7    9.93    0.81 
  -4   0   7   10.05    1.06 
   0  -4  -7    9.45    0.93 
  -4   0  -7    9.51    0.80 
   4   0  -7    9.96    0.78 
   0   4  -7    9.40    0.76 
   0  -4   7    9.74    0.82 
   0  -4   7    9.59    0.75 
  -4   1   7   71.21    3.97 
   4  -1  -7   66.68    3.70 
   1   4   7   76.84    3.90 
  -1  -4  -7   67.79    3.89 
   1   4   7   72.66    3.47 
  -4   1  -7   74.50    3.70 
   1   4  -7   66.21    3.40 
   4  -1   7   71.95    4.06 
  -4   1  -7   74.85    3.68 
  -4   1   7   69.25    3.69 
  -1  -4  -7   62.06    3.79 
   1   4   7   67.30    3.43 
   4  -1   7   67.68    3.60 
  -1  -4   7   66.45    3.65 
  -4   1   7   68.21    3.50 
  -1  -4   7   70.92    3.82 
  -1  -4  -7   69.13    3.84 
  -1  -4   7   65.72    3.22 
   4  -2   7    0.33    0.60 
  -2  -4   7    0.39    0.32 
  -4   2  -7    0.47    0.30 
  -2  -4   7    0.58    0.30 
  -2  -4  -7    0.27    0.38 
   2   4  -7    0.36    0.30 
  -2  -4   7    0.51    0.32 
   4  -2   7   -0.24    0.53 
  -4   2   7    0.30    0.49 
   4  -2  -7    0.48    0.35 
   2   4   7    0.33    0.33 
   2   4   7    0.58    0.42 
  -4   2   7    0.03    0.41 
  -2  -4  -7    1.23    0.49 
  -4   2  -7    0.19    0.26 
  -4   2   7    0.61    0.37 
   2   4   7    0.56    0.37 
  -2  -4  -7    0.20    0.44 
  -3  -4  -7   57.59    2.76 
   3   4   7   57.13    3.17 
  -4   3  -7   53.87    2.90 
   3   4   7   54.37    2.83 
  -3  -4   7   48.84    2.63 
  -4   3   7   55.17    2.88 
  -3  -4  -7   54.16    3.03 
  -4   3  -7   56.65    2.94 
  -3  -4  -7   54.62    3.09 
  -4   3   7   55.14    3.00 
  -4   3   7   52.39    3.24 
   4  -3   7   52.19    2.99 
  -3  -4   7   54.82    3.02 
   4  -3   7   54.45    3.34 
   4  -3  -7   50.33    2.98 
  -4   4   7    1.43    0.51 
  -4   4  -7    1.49    0.38 
  -4   4  -7    2.10    0.41 
   4   4   7    1.97    0.51 
  -4   4   7    1.45    0.66 
  -4  -4  -7    1.12    0.51 
   4  -4  -7    1.54    0.48 
   4  -4   7    1.16    0.62 
   4  -4   7    1.48    0.56 
  -4  -4   7    2.78    0.52 
  -4   4   7    1.61    0.70 
   4   4   7    1.95    0.54 
  -4  -4   7    2.06    0.52 
  -4  -4  -7    0.87    0.51 
   4  -5   7   24.43    1.80 
  -4   5   7   24.44    1.76 
  -5  -4   7   23.51    1.69 
  -4   5   7   26.10    2.01 
   4  -5  -7   24.17    1.69 
  -5  -4   7   26.02    1.56 
  -4   5   7   24.88    1.71 
   5   4   7   26.63    1.73 
   5   4   7   26.39    1.57 
   4  -5   7   22.45    1.60 
  -3   5   7   37.15    2.43 
  -5  -3   7   31.13    1.91 
  -5  -3   7   33.27    2.16 
  -3   5   7   35.98    2.16 
   3  -5  -7   34.24    2.16 
   3  -5   7   33.69    1.97 
   3  -5  -7   35.61    2.15 
   3  -5   7   33.07    2.18 
   5   3   7   31.42    1.91 
  -5  -3  -7   35.03    2.03 
   5   3   7   32.44    2.14 
  -5  -3  -7   33.50    2.01 
  -2   5   7   47.36    2.80 
   2  -5  -7   45.49    2.87 
  -5  -2  -7   46.67    2.73 
   2  -5   7   48.51    2.61 
  -2   5   7   52.36    2.79 
   2  -5   7   45.81    2.88 
   5   2   7   45.97    2.63 
  -2   5   7   49.54    2.51 
  -5  -2  -7   54.20    2.79 
  -2   5   7   52.92    3.14 
  -5  -2   7   52.85    2.63 
   2  -5  -7   48.84    2.93 
  -5  -2   7   47.21    2.92 
   5   2   7   49.14    2.95 
  -5  -1  -7   53.31    2.90 
   1  -5  -7   47.94    3.09 
   1  -5   7   51.66    3.04 
  -1   5   7   53.08    3.01 
  -1   5   7   48.30    3.20 
   5   1  -7   57.22    2.91 
  -5  -1   7   51.71    2.88 
  -1   5  -7   54.94    2.73 
  -5  -1   7   53.80    2.83 
   5   1   7   58.92    2.98 
  -1   5   7   51.81    2.69 
  -1   5   7   54.76    2.87 
   5   1   7   47.73    3.18 
   1  -5  -7   48.84    3.08 
  -5  -1   7   54.04    3.21 
  -5  -1  -7   55.44    2.94 
   0   5   7   48.74    2.71 
  -5   0   7   58.26    3.34 
   5   0   7   48.45    2.81 
  -5   0  -7   46.63    2.76 
  -5   0   7   48.81    2.75 
  -5   0   7   58.51    2.93 
   0  -5   7   46.01    2.87 
   0  -5  -7   50.19    3.07 
   0   5  -7   49.29    2.58 
   0   5   7   52.49    2.91 
   0   5   7   51.47    2.60 
  -5   0  -7   44.93    2.73 
   5   0  -7   47.89    2.75 
   1   5   7   53.04    3.11 
  -5   1   7   61.92    2.99 
   1   5   7   52.63    2.79 
   5  -1   7   55.06    2.95 
  -5   1   7   56.50    3.31 
   5  -1   7   56.66    3.29 
  -5   1   7   50.12    2.95 
  -5   1  -7   52.75    2.96 
  -5   1  -7   55.05    2.95 
  -1  -5   7   49.90    3.06 
   5  -1  -7   55.44    3.00 
  -1  -5  -7   52.07    3.19 
   1   5  -7   51.46    2.74 
   1   5   7   56.17    2.86 
   5  -2   7   52.11    3.18 
  -2  -5   7   48.20    2.44 
  -5   2   7   46.66    3.00 
  -2  -5   7   51.62    2.86 
  -5   2  -7   51.01    2.76 
  -5   2  -7   46.85    2.73 
   2   5  -7   48.86    2.54 
  -5   2   7   47.13    2.66 
   2   5   7   46.92    2.62 
   5  -2   7   51.33    2.84 
  -2  -5  -7   44.99    2.92 
  -2  -5   7   53.83    2.79 
   2   5   7   52.09    2.63 
   2   5   7   48.00    2.91 
  -5   2   7   59.28    2.84 
   3   5   7   35.22    2.15 
  -5   3   7   31.81    1.99 
  -3  -5  -7   34.68    1.95 
   5  -3   7   37.08    2.32 
   3   5   7   34.91    1.92 
  -3  -5  -7   32.13    2.13 
  -3  -5   7   32.31    2.01 
  -5   3  -7   32.86    1.95 
  -5   3   7   33.60    2.28 
  -5   3  -7   33.02    1.95 
   5  -3   7   34.61    2.48 
  -5   3   7   34.96    2.05 
   5  -3  -7   30.87    2.01 
  -3  -5   7   34.06    1.81 
  -5   4  -7   27.80    1.60 
   5  -4   7   23.86    1.75 
  -4  -5  -7   23.89    1.57 
  -5   4  -7   23.91    1.54 
  -5   4   7   23.80    1.66 
  -4  -5   7   26.62    1.69 
   5  -4   7   26.72    1.98 
  -4  -5  -7   23.46    1.75 
  -5   4   7   26.80    1.98 
  -4  -5   7   25.51    1.51 
   5  -4  -7   26.16    1.68 
   4   5   7   26.45    1.74 
   4   5   7   24.97    1.56 
  -5   4   7   23.59    1.73 
  -5   5   7   14.06    1.41 
   5   5   7   14.31    1.11 
   5  -5   7   14.56    1.38 
  -5  -5   7   14.14    1.14 
  -5   5   7   15.72    1.64 
   5  -5   7   14.11    1.28 
  -5  -5   7   13.80    1.19 
   5   5   7   13.67    1.20 
  -5   5   7   14.71    1.22 
   5  -5  -7   13.40    1.17 
   5  -6   7   13.69    1.35 
  -5   6   7   13.06    1.37 
   5  -6   7   13.65    1.22 
  -5   6   7   12.90    1.24 
  -6  -5   7   14.21    1.23 
   4  -6  -7   -0.18    0.55 
   4  -6   7    0.35    0.59 
  -6  -4   7   -0.23    0.53 
   4  -6   7   -0.19    0.46 
  -4   6   7   -0.43    0.63 
  -6  -4   7    0.11    0.51 
  -4   6   7    0.05    0.64 
   3  -6   7   19.08    1.45 
  -3   6   7   21.54    1.64 
   3  -6   7   22.31    1.64 
  -6  -3   7   22.75    1.55 
  -6  -3   7   21.73    1.69 
  -6  -3  -7   24.61    1.54 
  -6  -3  -7   23.03    1.52 
  -3   6   7   23.43    1.84 
  -6  -2  -7    0.59    0.45 
  -6  -2   7    0.07    0.53 
  -2   6  -7    0.24    0.42 
  -2   6   7    0.93    0.62 
  -2   6   7    0.57    0.67 
  -6  -2  -7    1.15    0.47 
   2  -6   7    0.28    0.45 
  -2   6   7    1.03    0.44 
  -6  -2   7    0.83    0.61 
  -2   6   7    1.32    0.40 
  -1   6   7   31.17    1.82 
   6   1  -7   35.45    1.95 
  -6  -1  -7   33.28    1.97 
  -6  -1   7   32.92    1.93 
   1  -6   7   30.70    2.04 
  -1   6   7   30.38    1.99 
   1  -6  -7   33.32    2.26 
  -1   6   7   34.01    2.04 
  -6  -1   7   30.08    2.25 
  -1   6  -7   31.82    1.83 
  -6  -1  -7   31.60    1.94 
  -6  -1   7   31.16    2.02 
  -6   0   7   -0.29    0.37 
  -6   0  -7   -0.08    0.36 
   0   6  -7    0.28    0.41 
  -6   0   7   -0.04    0.66 
   0  -6   7   -0.13    0.39 
  -6   0   7   -0.80    0.58 
  -6   0  -7   -0.30    0.34 
   0   6   7   -0.10    0.38 
   0   6   7    0.31    0.41 
   0  -6  -7    0.27    0.60 
   0   6   7    0.35    0.57 
   6   0  -7   -0.24    0.34 
   6  -1  -7   32.69    1.99 
  -6   1  -7   31.88    1.94 
   1   6   7   33.80    2.10 
  -6   1   7   32.70    1.98 
  -6   1   7   32.10    2.26 
  -6   1  -7   30.01    1.93 
  -1  -6  -7   32.36    2.19 
   1   6   7   33.88    1.89 
   1   6  -7   33.62    1.86 
  -1  -6   7   33.66    2.05 
   1   6   7   32.12    1.99 
  -6   1   7   34.56    2.07 
   2   6  -7    1.21    0.44 
  -6   2   7    0.54    0.46 
  -6   2   7   -0.06    0.53 
  -6   2   7    0.29    0.57 
  -2  -6   7    0.97    0.41 
   2   6   7    1.13    0.51 
   2   6   7    0.45    0.44 
  -2  -6  -7   -0.02    0.48 
   6  -2  -7    1.10    0.45 
  -2  -6   7    0.95    0.42 
  -6   2  -7    0.96    0.41 
  -6   2  -7    0.28    0.36 
  -2  -6  -7    1.25    0.62 
  -2  -6   7    0.65    0.44 
  -6   3  -7   25.06    1.52 
   3   6   7   24.63    1.66 
  -3  -6   7   21.75    1.53 
   6  -3  -7   22.63    1.54 
   3   6   7   23.71    1.49 
  -6   3   7   23.60    1.64 
  -3  -6  -7   20.82    1.66 
  -6   3   7   23.93    1.57 
  -6   3   7   24.17    1.83 
  -3  -6   7   22.72    1.39 
  -6   3  -7   19.55    1.45 
  -3  -6  -7   23.74    1.57 
  -6   4   7   -0.20    0.50 
  -4  -6  -7   -0.53    0.57 
   6  -4  -7   -0.08    0.46 
  -4  -6   7   -0.07    0.44 
  -6   4  -7    0.08    0.38 
  -4  -6   7   -0.34    0.46 
   4   6   7    0.14    0.43 
  -6   4  -7    0.51    0.43 
  -6   4   7   -0.93    0.60 
  -6   4   7   -0.17    0.68 
   4   6   7   -0.60    0.42 
  -4  -6  -7    0.19    0.60 
   5   6   7   13.80    1.23 
   5   6   7   13.12    1.11 
  -6   5   7   12.70    1.41 
  -5  -6  -7   15.17    1.36 
  -6   5   7   15.57    1.27 
  -5  -6   7   12.98    1.11 
  -6   5   7   13.21    1.62 
  -6   6   7   -0.52    0.69 
  -6   6   7    0.51    0.62 
  -6  -6   7    0.62    0.64 
  -6   7   7    6.34    1.11 
  -7  -6   7    4.80    0.91 
  -7  -5   7    4.25    0.89 
   5  -7   7    4.99    0.93 
  -5   7   7    4.41    0.94 
   4  -7   7   14.13    1.25 
  -7  -4   7   13.90    1.33 
  -4   7   7    9.65    1.23 
   3  -7  -7   11.48    1.33 
  -3   7   7   11.18    1.20 
  -7  -3   7   10.84    1.19 
  -7  -3  -7   11.01    1.04 
   3  -7   7   11.27    1.21 
   3  -7   7    8.37    0.98 
  -7  -2  -7   15.38    1.20 
  -2   7   7   14.60    1.13 
  -7  -2   7   15.83    1.59 
  -2   7  -7   13.63    1.17 
  -7  -2   7   14.52    1.40 
  -2   7   7   15.66    1.42 
  -2   7   7   14.25    1.20 
   2  -7  -7   15.15    1.41 
  -7  -2  -7   14.36    1.19 
   7   1  -7   13.24    1.13 
   1  -7   7   14.89    1.25 
  -1   7   7   12.77    1.16 
  -1   7   7   13.84    1.09 
  -1   7  -7   13.90    1.15 
  -7  -1   7   17.82    1.77 
  -7  -1  -7   13.95    1.16 
  -7  -1   7   14.66    1.18 
  -7  -1  -7   15.04    1.15 
  -1   7   7   16.25    1.37 
   1  -7  -7   14.32    1.55 
  -7  -1   7   16.16    1.50 
  -7   0   7   24.85    1.99 
  -7   0   7   22.36    1.56 
   0   7   7   21.53    1.66 
  -7   0  -7   24.51    1.56 
   0   7  -7   22.09    1.44 
   0   7   7   24.97    1.63 
   7   0  -7   22.02    1.53 
   0   7   7   23.02    1.46 
  -7   0  -7   23.26    1.53 
  -7   0   7   21.90    1.76 
   0  -7   7   21.60    1.59 
   0  -7  -7   18.64    1.72 
   1   7  -7   15.38    1.13 
   1   7   7   14.74    1.25 
  -7   1   7   15.32    1.44 
  -7   1   7   14.87    1.24 
   1   7   7   15.23    1.37 
   1   7   7   15.67    1.15 
  -1  -7   7   13.84    1.19 
  -7   1   7   16.04    1.35 
  -1  -7  -7   11.53    1.38 
  -7   1  -7   14.04    1.16 
   7  -1  -7   16.69    1.22 
  -7   1  -7   11.93    1.08 
   2   7   7   14.75    1.16 
  -7   2   7   17.71    1.34 
   2   7   7   15.42    1.30 
  -7   2  -7   13.75    1.12 
  -2  -7   7   15.21    1.23 
  -2  -7  -7   13.56    1.28 
  -7   2   7   17.37    1.28 
  -7   2  -7   13.23    1.17 
  -2  -7  -7   13.95    1.35 
   7  -2  -7   15.68    1.20 
  -7   2   7   14.85    1.41 
   2   7  -7   14.64    1.09 
  -7   3   7    9.81    1.32 
  -3  -7  -7    9.92    1.24 
  -3  -7   7   10.29    0.98 
  -7   3  -7    9.70    0.93 
  -7   3   7   11.21    1.19 
   3   7   7   11.40    1.19 
  -3  -7   7   11.10    0.96 
   3   7   7   10.67    1.04 
  -7   3  -7   10.07    0.99 
  -7   3   7   11.25    1.07 
  -3  -7  -7   11.96    1.19 
  -7   4   7   10.58    1.15 
   4   7   7   12.82    1.14 
  -7   4  -7   11.64    1.06 
  -4  -7   7   12.50    1.05 
  -4  -7  -7   12.44    1.29 
  -7   4   7   11.18    1.27 
  -7   5   7    3.38    1.00 
  -7   5   7    3.73    0.82 
  -7   5  -7    4.85    0.76 
  -5  -7  -7    4.42    0.97 
  -5  -7   7    4.30    0.78 
   5   7   7    3.97    0.74 
  -7   6   7    5.33    0.93 
  -7   6   7    5.37    1.07 
  -6  -7   7    3.81    0.89 
  -8  -5   7    3.69    0.98 
   5  -8   7    4.85    0.96 
  -5   8   7    5.64    1.06 
   4  -8   7    0.45    0.70 
  -4   8   7   -0.33    0.69 
  -8  -4   7   -0.60    0.68 
  -8  -3   7    9.52    1.27 
  -3   8   7    9.09    1.17 
   3  -8   7    8.32    1.05 
  -2   8   7    0.25    0.54 
  -8  -2   7   -0.21    0.67 
  -2   8  -7   -0.37    0.60 
  -2   8   7   -0.51    0.62 
  -8  -2  -7    0.08    0.54 
  -1   8   7   10.68    1.26 
  -1   8   7    9.45    0.99 
  -8  -1   7    7.82    1.30 
  -1   8  -7   10.40    1.01 
  -8  -1  -7   11.24    1.09 
   0   8  -7    0.22    0.52 
   0   8   7   -1.53    0.62 
  -8   0  -7   -0.13    0.46 
   0   8   7    0.38    0.56 
  -8   0   7    0.73    0.57 
  -8   0   7   -0.06    0.74 
  -8   1   7    9.22    1.16 
  -8   1   7   10.92    1.09 
   1   8   7   11.34    1.10 
  -8   1  -7   12.04    1.06 
  -1  -8  -7    8.79    1.14 
   1   8  -7   11.82    1.03 
  -8   2   7   -0.66    0.56 
  -2  -8  -7    0.54    0.72 
   2   8  -7   -0.91    0.46 
  -8   2  -7    0.06    0.54 
   2   8   7    0.31    0.53 
  -8   2   7   -0.42    0.55 
  -8   3   7    8.00    1.02 
   3   8   7    8.02    0.97 
  -8   3  -7    7.99    0.98 
  -3  -8  -7    8.73    1.13 
  -3  -8   7    8.77    0.92 
  -8   3   7    9.39    1.18 
  -4  -8   7    0.09    0.54 
  -8   4   7   -0.51    0.76 
  -8   4  -7    0.18    0.58 
  -8   4   7   -0.38    0.61 
  -4  -8  -7   -1.35    0.65 
   4   8   7   -0.07    0.59 
  -8   5  -7    4.68    0.84 
  -5  -8   7    4.72    0.84 
   5   8   7    5.16    0.90 
  -5  -8  -7    4.09    1.01 
  -8   5   7    4.60    0.94 
  -2   9   7    4.06    0.84 
  -9  -2   7    5.81    1.27 
  -2   9  -7    7.35    0.98 
   2  -9   7    6.59    0.92 
  -9  -2  -7    7.18    0.98 
  -2   9   7    6.69    1.13 
  -9  -1  -7    4.68    0.84 
  -1   9  -7    2.34    0.72 
  -9  -1   7    2.40    1.05 
  -1   9   7    2.78    0.69 
  -1   9   7    2.00    0.92 
   0   9  -7    6.63    0.87 
   0  -9  -7    4.05    0.93 
   0   9   7    6.14    0.92 
  -9   0   7    6.92    0.94 
  -9   0   7    5.94    1.06 
  -9   0  -7    5.88    0.90 
  -9   1  -7    3.01    0.75 
  -9   1   7    3.33    0.81 
   1   9   7    2.14    0.73 
  -1  -9  -7    3.16    0.99 
  -9   1   7    3.90    0.91 
   1   9  -7    2.69    0.70 
  -9   2   7    4.44    0.93 
   2   9   7    7.30    1.00 
  -9   2  -7    5.07    0.89 
   2   9  -7    6.74    0.84 
  -2  -9  -7    4.54    1.00 
  -9   2   7    5.59    0.91 
   0   0   8  440.42   20.91 
   0   0   8  472.99   22.76 
   0   0   8  457.51   23.44 
   0   0  -8  450.97   22.61 
   0   0  -8  444.28   22.41 
   0  -1  -8    0.47    0.41 
   0   1  -8    0.76    0.37 
   0   1   8    2.33    0.45 
   1   0   8    0.93    0.41 
   1   0  -8    0.16    0.44 
   1   0   8    0.87    0.43 
   0  -1   8    0.73    0.45 
   0  -1   8    0.53    0.49 
   0   1   8    4.26    0.61 
  -1   0   8    0.73    0.35 
   0  -1  -8    0.75    0.43 
   0   1   8    0.58    0.36 
  -1   0   8    0.70    0.35 
   1   0  -8    0.57    0.47 
   0   1  -8    0.54    0.36 
  -1   0  -8    0.72    0.42 
  -1   0  -8    0.38    0.46 
  -1  -1  -8  125.31    6.55 
   1   1   8  121.66    6.86 
  -1   1   8  131.80    6.14 
   1  -1  -8  126.42    6.73 
  -1  -1   8  128.87    6.72 
   1   1   8  131.75    6.71 
  -1   1   8  133.26    5.84 
   1   1  -8  133.75    6.58 
  -1  -1   8  111.64    6.81 
   1  -1   8  112.46    6.16 
  -1   1   8  118.82    6.60 
  -1  -1   8  133.89    6.14 
   1   1  -8  125.12    6.52 
  -1  -1  -8  129.33    6.61 
  -1   1  -8  133.12    6.61 
   1   1   8  125.89    6.15 
   1  -1   8  122.61    6.92 
   1  -1  -8  131.89    6.69 
  -1   1  -8  134.29    6.67 
  -1   1   8  127.50    6.85 
  -1   2   8   -0.08    0.33 
   2   1  -8   -0.27    0.40 
   1  -2   8   -0.29    0.41 
  -1   2  -8    0.33    0.30 
  -2  -1   8   -0.09    0.33 
   1  -2  -8    0.92    0.61 
  -2  -1   8    0.88    0.47 
   2   1   8   -0.30    0.42 
  -2  -1  -8    0.43    0.46 
  -1   2   8    0.28    0.37 
  -1   2  -8    0.11    0.32 
   1  -2  -8    0.73    0.59 
   1  -2   8   -0.14    0.46 
  -2  -1   8    0.65    0.40 
  -1   2   8   -0.31    0.26 
  -2  -1  -8    0.24    0.46 
   2   1  -8    0.02    0.46 
  -1   2   8    0.19    0.28 
   2   1   8   -0.06    0.43 
   0  -2  -8  449.49   21.04 
   0   2  -8  412.80   20.96 
  -2   0   8  426.84   21.24 
   0  -2   8  409.26   21.78 
  -2   0  -8  384.92   20.82 
   2   0  -8  427.42   20.87 
  -2   0  -8  417.62   21.05 
   0   2   8  423.08   21.29 
   0   2   8  417.14   18.70 
   2   0  -8  459.19   21.09 
   0  -2  -8  411.59   20.84 
  -2   0   8  402.76   18.66 
   2   0   8  420.38   19.45 
   0   2  -8  421.47   20.78 
   0   2   8  415.03   21.76 
   2   0   8  427.82   21.79 
  -2   0   8  403.36   21.65 
   0   2   8  427.31   19.44 
   0  -2   8  415.61   19.47 
  -1  -2  -8    0.14    0.40 
  -1  -2   8    0.20    0.38 
  -2   1   8    0.35    0.31 
   1   2   8    0.36    0.38 
   1   2   8   -0.32    0.31 
   2  -1   8    0.02    0.45 
   2  -1  -8    0.29    0.41 
  -1  -2   8    0.42    0.39 
   2  -1  -8   -0.02    0.41 
  -2   1  -8   -0.01    0.30 
   2  -1   8   -0.10    0.45 
   1   2   8    0.25    0.42 
  -1  -2   8   -0.12    0.27 
   1   2  -8    0.09    0.31 
  -2   1   8   -0.36    0.31 
   1   2   8    0.20    0.42 
  -2   1   8   -0.47    0.31 
  -1  -2  -8   -0.64    0.37 
  -1  -2   8    0.57    0.34 
  -2   1  -8   -0.04    0.29 
  -2  -2  -8  236.29   12.09 
  -2  -2   8  235.49   10.64 
  -2   2   8  227.78   12.16 
  -2   2   8  236.06   10.70 
  -2  -2   8  229.54   12.44 
   2   2   8  245.07   11.24 
  -2  -2  -8  246.83   12.22 
   2   2  -8  225.30   12.01 
   2   2   8  234.83   12.57 
  -2   2   8  234.35   11.02 
   2   2  -8  254.67   11.96 
   2  -2   8  240.16   11.27 
  -2   2   8  230.06   12.33 
  -2  -2   8  234.37   12.09 
  -2   2  -8  241.99   11.86 
   2  -2   8  237.98   12.60 
   2  -2  -8  244.23   12.10 
  -2   2  -8  225.17   11.93 
  -2  -2  -8  237.90   12.10 
  -2  -2   8  245.51   11.14 
  -2   3   8    1.04    0.52 
   2  -3   8    0.40    0.43 
  -3  -2  -8    1.22    0.46 
  -3  -2   8    1.13    0.43 
  -3  -2   8    1.21    0.46 
  -3  -2  -8    1.16    0.48 
  -2   3   8    1.26    0.34 
   3   2  -8    2.00    0.50 
   2  -3  -8    0.05    0.44 
  -2   3   8    1.18    0.51 
  -2   3   8    0.88    0.32 
   3   2   8    0.30    0.48 
   2  -3   8    0.51    0.44 
  -2   3  -8    1.32    0.31 
   3   2  -8    1.10    0.47 
   3   2   8    1.88    0.54 
  -2   3  -8    0.97    0.31 
   2  -3  -8    1.16    0.49 
  -1   3   8   72.80    3.53 
   1  -3   8   72.69    3.50 
  -1   3  -8   60.18    3.60 
   3   1   8   63.10    3.95 
  -3  -1   8   71.80    3.90 
   1  -3  -8   72.36    3.94 
  -3  -1   8   68.28    3.42 
   3   1  -8   65.65    3.69 
   1  -3  -8   73.42    3.96 
   1  -3   8   69.50    3.89 
   3   1  -8   72.81    3.74 
   3   1   8   62.47    3.55 
  -1   3   8   67.15    3.96 
  -1   3   8   67.93    3.40 
  -3  -1  -8   69.53    3.73 
  -3  -1  -8   70.15    3.76 
  -1   3  -8   72.12    3.61 
  -1   3   8   64.93    3.78 
  -3   0  -8   -0.01    0.30 
   0  -3  -8   -0.32    0.39 
   0   3   8   -0.40    0.29 
   3   0  -8   -0.08    0.32 
   0  -3  -8   -0.40    0.37 
  -3   0   8    0.39    0.47 
   3   0   8    0.31    0.41 
   0  -3   8    0.20    0.34 
   3   0   8   -0.13    0.38 
  -3   0  -8    0.38    0.35 
   0   3   8   -0.33    0.26 
   0   3   8    0.54    0.47 
   3   0  -8    0.07    0.36 
   0  -3   8    0.14    0.32 
   0   3  -8    0.41    0.32 
   0   3   8   -0.60    0.44 
  -3   0   8    0.67    0.52 
  -3   1   8   71.23    3.92 
  -1  -3  -8   76.12    3.87 
   3  -1  -8   77.19    3.82 
   1   3   8   67.98    3.95 
  -3   1   8   72.25    3.47 
  -3   1  -8   68.94    3.74 
   1   3   8   73.32    3.54 
   3  -1   8   69.25    3.62 
   1   3   8   70.03    3.94 
  -1  -3   8   64.73    3.71 
  -1  -3  -8   69.62    3.82 
   1   3   8   65.17    3.44 
  -1  -3   8   73.68    3.51 
   3  -1  -8   68.33    3.79 
  -1  -3   8   73.50    3.91 
  -3   1  -8   66.31    3.71 
   3  -1   8   62.68    4.02 
   2   3   8    1.22    0.47 
  -2  -3  -8    1.57    0.67 
  -2  -3  -8    1.28    0.61 
   3  -2  -8    0.46    0.42 
  -3   2   8    0.55    0.45 
  -2  -3   8    0.79    0.39 
  -2  -3   8    0.52    0.33 
  -3   2  -8    2.59    0.42 
   2   3   8    0.62    0.38 
  -2  -3   8    0.98    0.38 
   3  -2   8    0.59    0.57 
   3  -2   8    0.33    0.55 
  -2  -3  -8    1.07    0.44 
   2   3   8    1.15    0.43 
   3  -2  -8    0.77    0.42 
  -3   2  -8    2.91    0.43 
  -2  -3   8    0.61    0.33 
  -3   2   8    1.19    0.43 
   3   3   8   45.82    2.44 
  -3   3   8   41.93    2.36 
   3  -3  -8   43.90    2.59 
  -3  -3  -8   44.40    2.57 
  -3  -3   8   41.20    2.54 
  -3  -3   8   42.59    2.26 
   3  -3   8   42.40    2.76 
   3  -3   8   44.68    2.52 
   3  -3  -8   47.59    2.61 
  -3  -3  -8   45.22    2.65 
   3   3   8   46.85    2.73 
  -3   3  -8   38.85    2.40 
  -3   3   8   48.90    2.73 
  -3  -3  -8   46.10    2.64 
  -3   3  -8   44.66    2.45 
  -3   4   8    0.62    0.54 
  -4  -3   8   -0.03    0.42 
   4   3   8   -0.02    0.41 
   3  -4   8   -0.47    0.45 
   3  -4  -8   -0.38    0.40 
  -4  -3  -8    1.08    0.47 
  -3   4   8    0.75    0.54 
  -4  -3   8   -0.02    0.38 
   3  -4   8   -0.17    0.43 
  -4  -3  -8    1.91    0.52 
   3  -4  -8   -0.11    0.40 
   4   3   8   -0.48    0.37 
  -4  -2   8  168.35    9.00 
   2  -4  -8  166.03    8.96 
   2  -4  -8  179.98    8.91 
   4   2  -8  178.93    8.85 
  -2   4   8  165.57    8.09 
   4   2   8  162.03    9.28 
  -2   4   8  168.97    9.22 
   2  -4   8  163.20    9.19 
   2  -4   8  171.38    8.24 
  -4  -2  -8  178.77    8.82 
  -4  -2   8  178.32    7.94 
  -2   4   8  168.95    9.08 
  -4  -2  -8  184.67    8.90 
   4   2   8  182.96    8.34 
  -2   4   8  167.95    8.10 
  -4  -1   8   -0.07    0.50 
  -4  -1  -8   -0.02    0.33 
   4   1   8    0.44    0.56 
  -1   4   8    0.00    0.29 
   1  -4   8   -0.35    0.30 
   1  -4   8   -0.03    0.34 
   4   1   8    0.39    0.56 
   1  -4  -8   -0.10    0.46 
  -1   4   8    0.53    0.34 
  -1   4   8   -0.16    0.67 
   1  -4  -8    0.17    0.54 
  -4  -1   8   -0.27    0.30 
   4   1  -8   -0.04    0.32 
  -4  -1   8   -0.17    0.45 
  -1   4   8   -0.37    0.52 
  -4  -1  -8    0.12    0.35 
  -4   0   8  178.20    9.27 
   0  -4  -8  185.09    9.35 
   0  -4  -8  177.55    9.40 
   0  -4   8  190.78    9.72 
   0   4   8  183.71    8.55 
   0   4   8  182.55    8.67 
   0   4   8  193.97    9.75 
  -4   0  -8  181.51    9.36 
   0  -4   8  182.38    8.67 
   4   0   8  169.40    8.73 
  -4   0   8  179.71    8.57 
  -4   0   8  187.26    9.77 
  -4   0  -8  174.36    9.27 
   4   0  -8  195.99    9.38 
   0   4   8  189.93    9.71 
  -1  -4  -8    0.51    0.47 
  -4   1   8   -0.30    0.43 
  -4   1   8   -0.33    0.33 
  -4   1  -8    0.09    0.31 
  -1  -4  -8   -0.21    0.41 
   4  -1   8    0.82    0.51 
  -1  -4  -8    0.04    0.45 
  -1  -4   8    0.12    0.29 
   1   4   8    0.05    0.34 
  -4   1   8    0.47    0.45 
   4  -1  -8    0.10    0.33 
   1   4   8    0.64    0.47 
   1   4   8    0.45    0.42 
  -1  -4   8    0.32    0.36 
  -4   1  -8    0.01    0.33 
   4  -1   8   -0.26    0.48 
  -4   2   8  196.89    9.37 
   2   4   8  162.96    8.18 
  -2  -4   8  175.14    8.40 
  -4   2  -8  176.47    8.99 
   4  -2  -8  171.98    9.12 
  -4   2   8  187.49    8.23 
  -2  -4   8  188.40    9.43 
  -4   2   8  186.90    9.07 
  -2  -4   8  173.65    9.14 
  -2  -4  -8  181.93    9.34 
   2   4   8  171.94    8.48 
  -2  -4  -8  173.56    9.24 
   2   4   8  186.56    9.52 
  -2  -4   8  180.43    8.05 
   4  -2   8  159.85    8.62 
   4  -2   8  183.64    9.72 
  -4   2  -8  170.58    9.07 
  -2  -4  -8  181.70    9.32 
  -3  -4  -8    0.71    0.47 
   4  -3   8    0.03    0.56 
  -3  -4  -8   -0.21    0.38 
   3   4   8    0.19    0.40 
  -3  -4  -8   -0.05    0.43 
  -4   3  -8   -0.42    0.28 
   4  -3  -8    0.06    0.40 
   3   4   8   -0.17    0.39 
   4  -3   8   -0.11    0.52 
  -4   3   8   -0.65    0.37 
  -3  -4  -8    0.26    0.43 
  -4   3   8    0.37    0.44 
  -4   3   8    0.04    0.48 
  -4   3  -8   -0.08    0.27 
  -3  -4   8   -0.67    0.32 
  -3  -4   8   -0.17    0.33 
  -4  -4   8   80.31    4.59 
   4   4   8   86.39    4.28 
  -4   4   8   92.75    4.85 
  -4   4   8   76.36    4.51 
  -4  -4   8   84.74    4.06 
   4  -4   8   85.87    4.41 
   4  -4  -8   79.12    4.56 
   4   4   8   85.89    4.76 
  -4   4   8   88.19    4.24 
  -4   4  -8   78.40    4.40 
   4  -4   8   85.69    4.91 
  -4   4  -8   85.88    4.40 
   4  -5  -8    0.48    0.54 
  -4   5   8    0.37    0.66 
  -5  -4   8    0.09    0.47 
  -4   5   8   -0.13    0.67 
  -5  -4   8    0.09    0.54 
   4  -5   8   -0.17    0.59 
   4  -5  -8   -0.05    0.51 
   4  -5   8   -0.08    0.54 
   5   4   8   -0.25    0.44 
   5   4   8   -0.65    0.47 
   5   3   8   22.91    1.54 
  -5  -3   8   26.40    1.74 
   3  -5  -8   23.40    1.71 
   5   3   8   24.12    1.71 
   3  -5  -8   23.50    1.69 
  -5  -3  -8   22.48    1.59 
   3  -5   8   22.92    1.59 
  -5  -3   8   21.89    1.51 
  -5  -3  -8   24.48    1.60 
  -3   5   8   23.82    1.79 
   3  -5   8   21.69    1.67 
  -3   5   8   27.19    2.04 
   5   2   8   -0.15    0.45 
   2  -5   8   -0.40    0.38 
  -5  -2  -8   -0.05    0.40 
  -2   5   8   -1.04    0.51 
  -5  -2  -8   -0.24    0.39 
   2  -5  -8    2.12    0.70 
  -5  -2   8   -0.70    0.40 
  -2   5   8    1.55    0.38 
  -2   5   8   -0.91    0.53 
  -5  -2   8   -0.42    0.47 
   2  -5   8   -0.50    0.33 
   2  -5  -8    2.76    0.70 
   5   2   8   -0.29    0.48 
  -2   5   8    1.48    0.45 
  -1   5   8   36.28    2.43 
   5   1  -8   33.79    2.04 
  -1   5   8   29.39    1.87 
  -1   5   8   31.83    2.09 
  -5  -1  -8   36.85    2.09 
   5   1   8   36.40    2.28 
   1  -5   8   34.28    2.17 
  -5  -1  -8   33.99    2.06 
   5   1   8   36.74    2.43 
  -5  -1   8   31.14    2.29 
  -1   5   8   37.21    2.17 
   1  -5  -8   36.08    2.20 
   1  -5   8   35.92    1.98 
  -5  -1   8   35.64    2.06 
   1  -5  -8   30.71    2.16 
  -5  -1   8   34.53    2.06 
   5   0   8    0.40    0.53 
   0  -5   8    1.18    0.39 
   5   0   8    0.07    0.50 
  -5   0   8   -0.89    0.46 
  -5   0   8    0.37    0.58 
   0   5   8   -0.25    0.48 
   0   5   8    0.39    0.37 
  -5   0   8    0.18    0.39 
  -5   0  -8   -0.11    0.33 
   0  -5  -8    0.06    0.44 
   0  -5   8    0.04    0.41 
   0  -5  -8   -0.66    0.48 
   5   0  -8   -0.16    0.36 
   0   5   8    0.27    0.37 
   0  -5  -8   -0.34    0.41 
  -5   0  -8    0.19    0.35 
   1   5   8   36.22    2.13 
  -1  -5   8   37.78    2.24 
   5  -1  -8   39.56    2.18 
  -5   1  -8   31.43    2.09 
   1   5   8   36.27    2.02 
   5  -1   8   35.48    2.13 
  -1  -5  -8   35.24    2.37 
  -1  -5   8   35.17    1.97 
   5  -1   8   41.13    2.40 
   1   5   8   34.51    2.23 
  -5   1  -8   34.46    2.10 
  -5   1   8   36.65    2.38 
  -5   1   8   35.42    2.15 
  -5   1   8   38.02    2.16 
  -2  -5   8   -0.19    0.35 
  -2  -5   8    0.21    0.31 
  -5   2   8    0.85    0.44 
  -5   2  -8   -0.15    0.31 
  -5   2   8   -0.65    0.42 
  -5   2  -8   -0.43    0.29 
  -2  -5   8    0.20    0.33 
   5  -2  -8    1.14    0.44 
   5  -2   8   -0.19    0.55 
   2   5   8    1.00    0.46 
  -2  -5  -8   -0.37    0.47 
   2   5   8    0.35    0.51 
  -5   2   8   -0.08    0.47 
   5  -2   8   -0.04    0.54 
  -2  -5   8    0.63    0.40 
   2   5   8    0.10    0.39 
   3   5   8   21.15    1.44 
  -3  -5  -8   20.09    1.60 
  -5   3   8   24.48    1.73 
   3   5   8   23.59    1.62 
   5  -3  -8   22.49    1.51 
  -3  -5   8   19.99    1.46 
   5  -3   8   23.15    1.75 
  -3  -5  -8   22.03    1.47 
   5  -3   8   26.83    1.96 
  -5   3   8   21.33    1.49 
  -5   3  -8   21.63    1.42 
  -3  -5   8   22.52    1.34 
  -5   3   8   21.34    1.54 
  -5   3  -8   19.73    1.39 
   4   5   8    0.02    0.47 
  -5   4   8    0.22    0.55 
   4   5   8    0.54    0.46 
  -4  -5  -8    0.05    0.54 
   5  -4   8    0.03    0.65 
  -4  -5  -8    0.05    0.51 
   5  -4  -8    0.15    0.47 
  -4  -5   8    0.70    0.48 
  -5   4   8   -0.29    0.54 
   5  -4   8   -0.63    0.64 
  -5   4  -8    0.17    0.40 
  -5   4  -8    0.69    0.40 
  -4  -5   8    0.48    0.45 
  -5   4   8    0.46    0.53 
  -5  -5   8    9.95    1.01 
   5  -5   8    9.51    1.15 
   5   5   8   10.93    1.08 
  -5  -5   8   11.52    1.09 
   5   5   8   10.57    0.99 
   5  -5   8   11.42    1.35 
  -5   5   8   11.53    1.39 
   5  -5  -8   10.41    1.10 
  -5   5   8   10.32    1.08 
  -5   5   8   10.91    1.22 
   5  -6  -8    0.03    0.60 
  -5   6   8   -0.84    0.72 
  -6  -5   8   -0.47    0.54 
   5  -6   8   -0.60    0.63 
   4  -6  -8   32.42    2.43 
  -4   6   8   38.43    2.72 
   4  -6   8   40.22    2.36 
  -6  -4   8   40.77    2.55 
  -6  -4   8   39.69    2.24 
   4  -6   8   38.05    2.55 
  -4   6   8   38.15    2.42 
   3  -6   8    0.12    0.50 
  -6  -3  -8    0.39    0.48 
  -3   6   8   -0.09    0.69 
   3  -6   8    0.68    0.56 
  -3   6   8    0.21    0.75 
  -6  -3  -8   -0.04    0.47 
  -6  -3   8    1.00    0.64 
  -6  -3   8    0.53    0.65 
  -2   6   8   63.89    3.07 
   2  -6   8   54.45    3.10 
  -2   6   8   57.31    3.23 
  -2   6   8   55.19    3.65 
  -6  -2  -8   58.06    3.29 
  -6  -2   8   62.42    3.18 
  -6  -2  -8   65.68    3.36 
  -6  -2   8   59.51    3.58 
  -2   6   8   53.35    3.36 
   2  -6   8   57.27    3.48 
   6   1  -8    0.30    0.42 
   1  -6   8   -0.22    0.42 
   1  -6  -8   -0.34    0.56 
  -1   6   8   -0.01    0.39 
  -1   6   8    0.61    0.62 
  -6  -1  -8    0.29    0.43 
  -6  -1   8   -0.37    0.56 
  -6  -1   8   -0.04    0.42 
  -6  -1   8    0.22    0.66 
  -1   6   8   -0.46    0.41 
   1  -6   8    0.06    0.44 
  -6  -1  -8   -0.36    0.38 
  -6   0  -8   81.88    4.46 
   0  -6  -8   84.13    4.84 
  -6   0   8   81.66    4.44 
   0   6   8   80.39    4.13 
   6   0  -8   82.33    4.45 
  -6   0  -8   85.18    4.44 
  -6   0   8   87.93    4.89 
   0   6   8   84.31    4.66 
   0   6   8   79.01    4.24 
   0  -6   8   83.12    4.64 
   0   6  -8   72.19    4.10 
  -6   0   8   89.75    4.34 
  -6   1  -8    0.14    0.38 
  -6   1   8    1.15    0.53 
   6  -1  -8    0.48    0.45 
  -6   1  -8    0.03    0.39 
   1   6  -8   -0.25    0.42 
   1   6   8   -0.40    0.39 
  -6   1   8   -0.16    0.53 
  -6   1   8   -0.64    0.49 
  -1  -6   8    0.00    0.43 
   1   6   8    0.58    0.47 
  -1  -6  -8   -0.50    0.51 
   1   6   8   -0.26    0.59 
  -2  -6  -8   64.07    3.15 
   2   6   8   58.71    3.44 
  -6   2   8   56.18    3.28 
  -6   2   8   57.65    3.48 
  -2  -6   8   55.10    3.34 
   2   6  -8   56.33    3.00 
  -6   2  -8   58.90    3.22 
  -6   2   8   59.15    3.10 
  -6   2  -8   57.17    3.23 
   6  -2  -8   59.48    3.29 
  -2  -6  -8   59.95    3.52 
   2   6   8   54.02    3.06 
  -3  -6   8    0.22    0.44 
  -6   3   8   -0.02    0.62 
  -6   3  -8   -0.12    0.40 
  -6   3   8   -0.23    0.51 
  -6   3  -8    0.13    0.40 
  -3  -6  -8   -0.11    0.52 
   6  -3  -8    0.60    0.49 
   3   6   8    0.15    0.52 
  -6   3   8    0.72    0.59 
  -3  -6   8   -0.01    0.43 
  -3  -6  -8    0.41    0.62 
   3   6   8    0.78    0.50 
  -6   4  -8   37.63    2.19 
  -6   4   8   37.63    2.24 
  -4  -6   8   33.02    2.25 
  -4  -6  -8   34.19    2.15 
   4   6   8   38.03    2.19 
  -6   4   8   41.26    2.55 
   4   6   8   38.62    2.42 
  -4  -6   8   34.92    2.03 
  -6   4  -8   36.74    2.20 
   6  -4  -8   32.74    2.25 
  -4  -6  -8   36.28    2.46 
  -6   4   8   38.30    2.32 
  -5  -6   8   -0.51    0.50 
  -6   5   8   -1.45    0.66 
   5   6   8    0.12    0.54 
  -6   5   8   -0.13    0.56 
  -6   6   8   17.54    1.70 
   6  -6  -8   16.51    1.53 
  -6  -6   8   16.69    1.34 
  -6   6   8   15.24    1.41 
   5  -7   8    3.53    0.91 
  -7  -5   8    4.83    0.89 
  -5   7   8    4.40    1.02 
  -4   7   8    0.00    0.74 
   4  -7   8   -0.54    0.61 
  -7  -4   8    0.19    0.69 
  -3   7   8    8.40    1.12 
   3  -7   8    6.70    0.91 
  -7  -3  -8    8.06    0.95 
  -7  -3   8    7.55    1.09 
  -7  -2  -8    1.23    0.55 
  -2   7   8    1.15    0.53 
  -2   7   8    0.32    0.49 
  -2   7   8   -0.40    0.64 
  -7  -2   8   -0.10    0.61 
  -7  -2  -8   -0.30    0.45 
   2  -7   8    0.35    0.56 
  -7  -1   8   12.83    1.40 
  -7  -1  -8   11.66    1.01 
  -7  -1   8   11.99    1.53 
  -7  -1   8   11.12    1.07 
   1  -7   8   10.14    1.00 
   1  -7   8   11.08    1.11 
  -1   7   8   10.97    1.04 
  -1   7   8   11.95    1.31 
  -1   7   8    8.04    0.91 
   1  -7  -8   10.42    1.40 
  -7  -1  -8   10.77    1.06 
   7   0  -8    0.51    0.47 
   0   7  -8    0.51    0.54 
  -7   0   8   -0.78    0.60 
   0   7   8   -0.07    0.68 
  -7   0   8    1.04    0.54 
   0   7   8   -0.01    0.48 
   0   7   8    0.38    0.47 
  -7   0  -8    0.03    0.45 
  -7   0  -8   -0.56    0.42 
  -7   0   8    0.80    0.72 
   0  -7  -8   -0.95    0.64 
   0  -7   8   -0.66    0.45 
  -7   1   8   12.96    1.17 
  -7   1   8   13.22    1.26 
   1   7  -8   11.25    1.02 
  -7   1   8   11.07    1.32 
   7  -1  -8   11.35    1.06 
  -7   1  -8   10.16    1.01 
   1   7   8   10.80    1.08 
  -7   1  -8   12.27    1.04 
   1   7   8    8.62    0.97 
  -1  -7   8   11.67    1.11 
   1   7   8   14.44    1.36 
  -1  -7  -8    9.35    1.29 
  -2  -7   8    0.14    0.52 
   2   7   8    1.91    0.57 
  -2  -7  -8    0.56    0.61 
  -7   2   8    0.89    0.66 
   2   7  -8    0.69    0.47 
  -7   2  -8    0.29    0.49 
  -7   2   8    0.52    0.55 
  -2  -7  -8   -0.17    0.68 
  -7   2   8    0.47    0.60 
  -3  -7  -8    5.88    0.98 
  -7   3   8    7.06    0.97 
  -3  -7   8    8.05    0.84 
   3   7   8    8.19    0.92 
  -7   3   8    8.42    1.00 
  -7   3  -8    7.35    0.87 
   4   7   8   -0.49    0.56 
  -7   4  -8    0.31    0.52 
  -4  -7   8    0.93    0.55 
  -7   4   8   -0.53    0.57 
  -7   4   8   -0.70    0.63 
  -4  -7  -8    0.50    0.74 
   5   7   8    3.63    0.77 
  -5  -7  -8    3.93    0.95 
  -5  -7   8    4.17    0.79 
  -7   5   8    3.75    0.84 
  -7   5   8    2.80    0.92 
   4  -8   8   12.17    1.31 
  -8  -4   8   13.49    1.44 
  -4   8   8   10.14    1.32 
  -3   8   8   -0.16    0.72 
  -8  -3   8    0.62    0.80 
   3  -8   8    0.07    0.64 
  -2   8   8   19.68    1.65 
  -8  -2  -8   19.99    1.57 
   2  -8   8   21.70    1.55 
  -2   8   8   21.15    1.50 
  -8  -2   8   20.01    1.75 
  -8  -1   8    0.56    0.78 
  -1   8   8    0.30    0.53 
  -1   8   8    0.80    0.81 
   1  -8   8    0.84    0.55 
  -8  -1  -8    0.26    0.59 
   0   8   8   19.10    1.50 
   0   8  -8   23.59    1.56 
  -8   0   8   22.32    1.77 
  -8   0   8   21.27    1.64 
   0   8   8   22.94    1.82 
  -8   0  -8   23.39    1.65 
  -8   1   8   -1.15    0.61 
   1   8  -8    0.08    0.57 
  -8   1  -8    0.88    0.57 
   1   8   8    0.66    0.56 
  -1  -8  -8   -0.02    0.64 
  -8   1   8   -0.34    0.57 
  -2  -8  -8   19.21    1.61 
  -8   2  -8   18.33    1.46 
   2   8   8   19.93    1.47 
   2   8  -8   19.76    1.40 
  -8   2   8   20.32    1.57 
  -8   2   8   18.49    1.50 
  -3  -8  -8    0.25    0.72 
  -8   3  -8   -0.33    0.53 
  -8   3   8   -0.51    0.59 
   3   8   8   -0.89    0.54 
  -8   3   8    0.07    0.63 
  -8   4   8   12.50    1.34 
  -4  -8   8   12.65    1.17 
  -8   4  -8   12.14    1.23 
   4   8   8   11.77    1.23 
  -8   4   8   12.97    1.33 
  -4  -8  -8   13.26    1.44 
   2  -9   8   -0.18    0.60 
  -2   9   8   -0.48    0.57 
   1  -9   8    3.77    0.82 
  -9  -1  -8    2.80    0.83 
  -1   9   8    2.57    0.77 
  -9  -1   8    2.84    1.02 
  -1   9   8    3.98    1.01 
  -9   0   8    0.10    0.71 
   0   9  -8   -0.05    0.60 
   0   9   8   -0.15    0.57 
  -9   0  -8   -0.96    0.58 
  -9   0   8    1.20    0.69 
   0  -9  -8   -0.40    0.75 
  -1  -9  -8    2.38    0.97 
  -9   1   8    3.90    0.89 
   1   9  -8    3.84    0.78 
  -9   1   8    2.49    0.80 
   1   9   8    4.43    0.87 
  -9   1  -8    3.80    0.83 
   2   9   8    0.09    0.63 
   2   9  -8   -0.55    0.60 
   0   0   9   27.64    1.70 
   0   0  -9   27.60    1.74 
   0   0   9   32.43    1.86 
   0   0  -9   28.11    1.74 
   0   0   9   28.59    1.64 
   1   0  -9   39.27    2.26 
   0   1  -9   40.70    2.18 
  -1   0   9   35.15    2.21 
   0   1   9   38.04    1.94 
   0   1  -9   40.17    2.17 
   1   0   9   42.73    2.36 
  -1   0   9   34.81    2.18 
   0  -1   9   37.53    2.10 
  -1   0  -9   34.93    2.19 
   0   1   9   37.33    2.17 
  -1   0   9   40.06    2.03 
   0  -1  -9   38.14    2.20 
  -1   0   9   38.25    1.96 
  -1   0  -9   34.31    2.20 
   1   0  -9   35.24    2.21 
   0  -1  -9   37.63    2.21 
   0   1   9   35.06    2.27 
   0  -1   9   41.10    2.39 
   0   1   9   34.30    2.04 
   1   0   9   41.00    2.10 
  -1   1   9   10.78    0.86 
  -1   1  -9   10.31    0.94 
   1  -1  -9   10.42    1.01 
  -1   1  -9   10.99    0.95 
   1   1   9    7.72    0.84 
  -1   1   9   10.18    0.92 
   1   1   9   10.66    0.92 
  -1  -1  -9   10.86    0.94 
   1  -1  -9   10.89    1.00 
  -1  -1   9    9.32    0.90 
   1  -1   9    9.75    1.02 
   1   1   9    9.99    0.95 
  -1  -1   9   11.29    0.88 
   1   1  -9   10.35    0.88 
  -1   1   9   11.07    0.89 
   1   1  -9   12.08    0.92 
  -1   1   9   11.14    0.82 
   1  -1   9   11.50    0.97 
  -1  -1  -9   10.91    0.94 
  -1  -1   9   10.41    0.94 
  -1  -1   9   10.77    0.88 
   2   1   9   38.21    2.22 
   1  -2   9   42.68    2.35 
  -2  -1   9   43.03    2.39 
  -1   2   9   42.39    2.12 
   2   1   9   40.52    2.47 
   2   1  -9   42.77    2.44 
   2   1  -9   38.98    2.42 
   1  -2  -9   38.86    2.45 
   1  -2   9   41.58    2.59 
  -2  -1   9   41.28    2.51 
  -2  -1   9   37.16    2.16 
  -2  -1  -9   39.53    2.47 
  -1   2   9   38.23    2.35 
  -1   2   9   40.71    2.18 
   1  -2  -9   40.53    2.47 
  -1   2  -9   41.21    2.37 
  -1   2  -9   39.46    2.34 
  -1   2   9   39.88    2.41 
  -2  -1  -9   36.50    2.45 
  -2  -1   9   40.05    2.12 
   0   2  -9   30.61    1.78 
   2   0   9   30.47    1.74 
  -2   0   9   28.54    1.85 
   0  -2  -9   30.12    1.85 
   2   0   9   28.28    1.90 
   0   2   9   28.16    1.66 
   0   2   9   30.79    1.90 
   0  -2  -9   29.60    1.82 
   0  -2   9   29.99    2.00 
   2   0  -9   29.30    1.95 
   0   2  -9   30.80    1.78 
  -2   0  -9   28.32    1.91 
  -2   0   9   30.92    1.62 
  -2   0   9   28.46    1.77 
   0  -2   9   28.74    1.79 
   0   2   9   28.78    1.94 
  -2   0   9   28.19    1.64 
   0   2   9   26.92    1.72 
   2   0  -9   29.22    1.93 
  -2   0  -9   30.09    1.91 
   2  -1  -9   38.26    2.39 
  -2   1   9   42.22    2.40 
  -2   1   9   40.28    2.14 
   1   2   9   40.47    2.27 
   2  -1  -9   40.89    2.41 
  -1  -2  -9   40.80    2.32 
  -1  -2   9   34.25    2.26 
  -1  -2   9   41.47    2.25 
  -1  -2   9   34.66    2.41 
   1   2   9   39.35    2.21 
   1   2   9   40.31    2.53 
   2  -1   9   41.70    2.51 
  -2   1   9   36.83    2.05 
  -1  -2  -9   38.43    2.30 
  -2   1  -9   37.71    2.32 
  -2   1  -9   38.30    2.31 
   1   2  -9   40.24    2.21 
   2  -1   9   38.24    2.21 
   1   2  -9   36.12    2.20 
   1   2   9   44.88    2.50 
  -2   1   9   40.98    2.33 
  -2   2   9   38.95    2.36 
   2  -2   9   42.91    2.44 
   2   2  -9   44.19    2.38 
  -2   2  -9   39.35    2.33 
   2  -2  -9   42.91    2.51 
  -2  -2   9   37.87    2.50 
  -2  -2   9   38.80    2.13 
   2   2  -9   38.39    2.33 
   2  -2   9   42.03    2.68 
   2  -2  -9   39.36    2.50 
   2   2   9   39.86    2.65 
  -2  -2   9   37.65    2.38 
  -2   2   9   37.44    2.11 
  -2   2  -9   39.12    2.31 
   2   2   9   43.83    2.42 
  -2  -2   9   47.01    2.33 
  -2   2   9   42.71    2.44 
  -2  -2  -9   38.99    2.49 
  -2  -2  -9   39.89    2.50 
  -2   2   9   41.82    2.14 
  -2   3  -9   23.98    1.52 
  -2   3   9   23.95    1.53 
   2  -3  -9   25.91    1.77 
   2  -3   9   26.79    1.84 
  -2   3   9   22.28    1.57 
   3   2  -9   26.59    1.79 
   3   2  -9   27.13    1.79 
  -2   3   9   26.37    1.74 
  -3  -2  -9   26.01    1.76 
  -3  -2  -9   27.26    1.79 
   3   2   9   25.96    1.72 
   2  -3   9   28.38    1.69 
  -3  -2   9   24.91    1.53 
  -3  -2   9   22.93    1.69 
   3   2   9   23.02    1.85 
  -2   3  -9   24.62    1.54 
  -2   3   9   24.99    1.45 
   2  -3  -9   25.30    1.77 
   3   1   9    3.37    0.58 
  -3  -1   9    2.12    0.56 
  -1   3  -9    2.50    0.46 
  -3  -1   9    3.13    0.71 
   3   1  -9    2.28    0.57 
   1  -3  -9    3.06    0.67 
   3   1  -9    2.83    0.60 
  -1   3   9    2.96    0.46 
  -1   3   9    3.17    0.65 
   3   1   9    2.75    0.64 
  -1   3   9    2.58    0.50 
  -1   3   9    1.34    0.51 
   1  -3   9    3.33    0.66 
   1  -3   9    2.63    0.55 
   1  -3  -9    2.99    0.66 
  -3  -1  -9    1.98    0.56 
  -1   3  -9    2.90    0.46 
  -3  -1  -9    3.27    0.62 
   0   3   9   37.54    2.40 
   3   0  -9   42.88    2.41 
   0   3  -9   39.13    2.31 
   3   0   9   35.81    2.19 
  -3   0  -9   35.95    2.31 
  -3   0  -9   39.95    2.36 
   0   3   9   42.27    2.19 
   0   3   9   40.56    2.56 
   0   3   9   39.50    2.26 
  -3   0   9   40.20    2.21 
  -3   0   9   37.78    2.43 
   0  -3  -9   40.19    2.36 
   0  -3   9   42.33    2.47 
   0  -3   9   41.81    2.22 
   0  -3  -9   41.23    2.36 
   3   0  -9   39.53    2.36 
  -1  -3  -9    5.19    0.68 
   3  -1  -9    2.92    0.58 
  -3   1  -9    2.96    0.52 
  -1  -3   9    1.76    0.52 
  -3   1   9    2.64    0.55 
   1   3   9    2.21    0.51 
  -1  -3   9    2.35    0.53 
   1   3   9    3.09    0.78 
   1   3   9    2.35    0.60 
   1   3   9    2.69    0.59 
  -3   1  -9    2.14    0.49 
   3  -1  -9    2.20    0.55 
   3  -1   9    4.52    0.75 
  -3   1   9    3.31    0.63 
   3  -1   9    1.82    0.54 
  -2  -3  -9   25.04    1.80 
   2   3   9   24.24    1.58 
  -3   2   9   26.03    1.51 
  -3   2   9   25.40    1.68 
   3  -2   9   29.69    1.94 
  -2  -3   9   25.17    1.67 
  -2  -3   9   24.50    1.50 
   2   3   9   25.40    1.76 
  -3   2  -9   22.53    1.54 
   3  -2   9   24.59    1.70 
   3  -2  -9   25.13    1.68 
  -2  -3  -9   26.21    1.73 
  -2  -3   9   25.03    1.44 
  -2  -3   9   23.97    1.59 
   3  -2  -9   23.41    1.67 
  -3   2  -9   25.31    1.56 
  -2  -3  -9   24.23    1.78 
  -3   3  -9    2.00    0.44 
  -3  -3  -9    1.39    0.61 
  -3   3  -9    1.36    0.40 
   3  -3   9    1.12    0.65 
  -3   3   9    1.55    0.56 
  -3  -3   9    1.27    0.45 
   3  -3   9    0.95    0.55 
   3  -3  -9    1.36    0.53 
  -3  -3   9    1.88    0.51 
   3   3   9    2.64    0.64 
   3   3   9    1.67    0.52 
   3  -3  -9    1.90    0.58 
  -3  -3  -9    1.60    0.62 
  -3   3   9    1.20    0.47 
   3  -4  -9   21.76    1.63 
  -3   4   9   24.99    1.73 
   3  -4  -9   23.47    1.69 
   4   3   9   22.63    1.56 
  -4  -3  -9   24.82    1.67 
  -4  -3   9   21.08    1.45 
   3  -4   9   24.74    1.79 
   3  -4   9   22.79    1.63 
   4   3   9   22.83    1.73 
  -4  -3  -9   24.56    1.69 
  -4  -3   9   23.23    1.64 
  -3   4   9   23.46    1.55 
   2  -4   9   16.44    1.22 
  -2   4   9   16.38    1.27 
  -2   4   9   17.77    1.44 
   2  -4  -9   15.35    1.37 
   2  -4  -9   16.79    1.39 
  -2   4   9   14.86    1.16 
  -4  -2  -9   16.35    1.27 
  -2   4   9   14.36    1.04 
   2  -4   9   17.35    1.34 
   4   2   9   15.16    1.31 
   4   2   9   16.50    1.43 
  -4  -2   9   16.16    1.21 
  -4  -2  -9   16.27    1.29 
  -4  -2   9   17.23    1.36 
   1  -4   9   27.73    1.63 
   1  -4   9   25.98    1.76 
  -1   4   9   23.88    1.66 
   4   1   9   27.74    1.73 
  -1   4   9   27.29    1.78 
  -1   4   9   25.39    1.52 
  -4  -1  -9   25.83    1.70 
  -4  -1   9   27.11    1.93 
   1  -4  -9   24.75    1.78 
   4   1  -9   25.53    1.68 
  -4  -1   9   25.74    1.70 
  -1   4   9   27.23    1.99 
   1  -4  -9   23.62    1.74 
  -4  -1  -9   28.05    1.73 
   4   1   9   25.09    1.82 
   4   1  -9   24.62    1.66 
   0   4   9   23.66    1.81 
  -4   0  -9   20.98    1.44 
   4   0  -9   20.75    1.44 
   0  -4  -9   19.25    1.43 
   0  -4   9   20.82    1.35 
  -4   0  -9   20.86    1.43 
  -4   0   9   22.49    1.63 
   4   0   9   20.65    1.41 
   0  -4   9   20.53    1.48 
  -4   0   9   22.04    1.50 
   4   0   9   19.09    1.51 
   0   4   9   24.06    1.65 
   0   4   9   18.07    1.42 
   4   0  -9   20.61    1.43 
   0   4   9   22.46    1.36 
   0  -4  -9   21.59    1.49 
  -4   1   9   25.81    1.68 
  -4   1   9   25.84    1.78 
   4  -1  -9   25.42    1.69 
  -4   1  -9   22.21    1.61 
  -1  -4   9   27.81    1.60 
   1   4   9   25.64    1.72 
  -4   1  -9   24.55    1.64 
  -1  -4  -9   30.10    1.94 
   4  -1  -9   27.24    1.72 
  -4   1   9   26.31    1.62 
   4  -1   9   30.47    1.71 
  -1  -4  -9   23.48    1.68 
  -1  -4  -9   23.60    1.67 
   4  -1   9   28.64    1.85 
   1   4   9   28.21    1.62 
   1   4   9   24.18    1.73 
  -1  -4   9   24.10    1.70 
  -2  -4   9   16.86    1.20 
  -2  -4  -9   16.38    1.35 
   4  -2   9   16.49    1.41 
  -2  -4   9   16.65    1.23 
   2   4   9   16.44    1.28 
   2   4   9   16.27    1.30 
  -2  -4   9   16.59    1.06 
  -4   2  -9   14.04    1.14 
   4  -2   9   17.46    1.31 
  -2  -4  -9   17.05    1.39 
  -4   2  -9   14.12    1.13 
  -4   2   9   18.05    1.20 
  -2  -4   9   15.88    1.12 
  -2  -4  -9   15.99    1.40 
  -4   2   9   18.10    1.28 
  -4   2   9   16.41    1.28 
   2   4   9   16.25    1.20 
   4  -2  -9   15.74    1.23 
  -3  -4  -9   25.61    1.75 
  -3  -4   9   22.99    1.58 
  -3  -4   9   22.72    1.41 
   3   4   9   23.29    1.71 
  -3  -4  -9   22.00    1.49 
   4  -3   9   24.58    1.93 
  -3  -4  -9   23.97    1.68 
   3   4   9   23.01    1.55 
  -4   3  -9   22.67    1.50 
  -4   3  -9   24.07    1.51 
  -4   3   9   23.75    1.57 
   4  -3   9   25.42    1.78 
   4  -3  -9   21.27    1.62 
   4  -3  -9   25.02    1.64 
  -3  -4  -9   22.62    1.70 
  -4   3   9   26.99    1.75 
   4   4   9   10.07    1.11 
   4  -4  -9    9.37    1.06 
  -4  -4  -9   10.23    1.08 
   4  -4   9   11.84    1.33 
  -4  -4  -9   10.98    1.10 
   4  -4   9   11.30    1.16 
  -4   4   9   12.48    1.23 
  -4  -4   9   10.30    1.02 
   4  -4  -9   10.58    1.09 
  -4   4   9    9.56    1.03 
   4   4   9    9.28    0.99 
  -4  -4   9    9.88    0.94 
  -4   4  -9    9.87    0.89 
  -4   5   9   12.14    1.20 
   5   4   9   12.03    1.25 
   4  -5  -9   10.22    1.14 
  -5  -4   9   12.31    1.11 
   5   4   9   11.57    1.08 
   4  -5   9   12.21    1.37 
  -5  -4   9   11.13    1.12 
   4  -5   9   11.32    1.20 
  -4   5   9   11.39    1.34 
   4  -5  -9    9.56    1.16 
   3  -5   9    0.32    0.60 
  -5  -3   9    1.94    0.60 
   3  -5   9    1.12    0.58 
  -5  -3  -9    1.05    0.55 
  -3   5   9    0.01    0.54 
  -3   5   9   -0.32    0.60 
  -5  -3  -9    0.45    0.51 
  -5  -3   9    1.54    0.60 
   5   3   9    2.23    0.69 
   3  -5  -9    1.18    0.59 
   3  -5  -9    0.46    0.60 
   5   3   9    1.63    0.62 
  -2   5   9   19.45    1.46 
   2  -5   9   22.89    1.63 
  -5  -2   9   21.45    1.50 
   2  -5  -9   20.15    1.70 
   2  -5   9   22.13    1.49 
  -5  -2  -9   22.32    1.54 
  -2   5   9   20.97    1.65 
   5   2   9   20.73    1.59 
   2  -5  -9   20.84    1.70 
  -5  -2   9   22.88    1.70 
  -2   5   9   20.82    1.34 
  -5  -2  -9   23.69    1.58 
   5   2   9   19.91    1.69 
  -2   5   9   23.99    1.87 
   5   1  -9    2.00    0.52 
  -5  -1  -9    1.90    0.53 
   1  -5   9    1.54    0.53 
  -5  -1   9    2.01    0.54 
  -5  -1   9    1.90    0.69 
   5   1   9    0.81    0.61 
  -1   5   9    1.41    0.75 
  -1   5   9    1.64    0.82 
  -5  -1   9    3.48    0.86 
  -5  -1  -9    1.53    0.53 
  -1   5   9    2.28    0.54 
   1  -5  -9    1.50    0.60 
   1  -5   9    1.99    0.58 
  -1   5   9    1.87    0.45 
   5   1   9    2.19    0.71 
   1  -5  -9    1.23    0.58 
   5   0   9   18.11    1.33 
  -5   0  -9   15.96    1.24 
   5   0  -9   19.15    1.30 
   0  -5   9   16.44    1.17 
   5   0   9   17.01    1.38 
   0   5   9   15.24    1.26 
  -5   0   9   18.38    1.29 
  -5   0   9   18.49    1.44 
   0  -5  -9   15.39    1.27 
   0   5   9   17.72    1.19 
   0  -5  -9   18.08    1.56 
   0   5   9   19.35    1.51 
   0  -5  -9   15.99    1.25 
  -5   0   9   16.16    1.46 
  -5   0  -9   16.25    1.24 
   0  -5   9   16.15    1.29 
   1   5   9    1.43    0.52 
  -5   1   9    1.67    0.60 
   1   5   9    1.96    0.70 
   1   5   9    0.62    0.47 
  -1  -5  -9    1.47    0.70 
  -5   1  -9    1.35    0.48 
  -5   1   9    2.25    0.56 
   5  -1  -9    1.45    0.51 
   5  -1   9    1.82    0.59 
   5  -1   9    3.01    0.68 
  -5   1   9    1.44    0.59 
  -1  -5   9    1.49    0.49 
  -1  -5   9    1.32    0.52 
  -5   1  -9    1.68    0.50 
  -5   2   9   21.68    1.52 
   5  -2   9   25.08    1.75 
  -5   2  -9   20.03    1.40 
  -2  -5   9   22.37    1.42 
   5  -2  -9   22.38    1.51 
  -2  -5  -9   19.90    1.61 
   5  -2   9   17.93    1.44 
   2   5   9   20.36    1.42 
  -5   2   9   21.17    1.58 
  -2  -5   9   20.79    1.48 
  -5   2  -9   21.11    1.41 
   2   5   9   20.41    1.55 
  -5   2   9   21.22    1.44 
   2   5   9   21.17    1.55 
  -5   3  -9    0.74    0.43 
  -5   3   9    0.04    0.47 
  -5   3   9    0.23    0.53 
   3   5   9    1.20    0.58 
  -3  -5   9    1.09    0.52 
   5  -3  -9    0.52    0.50 
  -3  -5  -9    0.56    0.53 
   5  -3   9    0.22    0.69 
  -5   3   9    0.33    0.52 
  -5   3  -9    0.77    0.41 
  -3  -5  -9   -0.27    0.60 
  -3  -5   9    0.68    0.45 
   3   5   9    0.27    0.47 
   5  -3   9    1.09    0.71 
  -5   4   9   11.56    1.16 
  -5   4   9   12.63    1.28 
   5  -4   9   12.02    1.45 
   5  -4   9   10.19    1.26 
  -4  -5   9   11.90    0.99 
  -5   4   9   10.76    1.09 
  -5   4  -9    9.37    0.92 
  -4  -5   9   10.28    1.03 
   4   5   9   11.50    1.12 
   5  -4  -9   12.06    1.10 
   4   5   9   10.45    1.09 
  -5   4  -9   11.37    0.97 
   5   5   9    0.54    0.59 
   5  -5   9    0.15    0.77 
   5  -5  -9   -0.29    0.57 
  -5   5   9   -0.42    0.58 
  -5  -5   9    0.32    0.54 
   5   5   9    0.06    0.54 
   5  -5  -9   -0.71    0.54 
   5  -5   9   -0.19    0.71 
   5  -6   9    9.24    1.18 
  -5   6   9    7.03    1.16 
   5  -6  -9    8.87    1.16 
  -6  -5   9    8.64    1.06 
   4  -6  -9    5.13    0.93 
   4  -6   9    4.49    0.86 
  -4   6   9    2.69    0.92 
  -6  -4   9    3.35    0.80 
  -3   6   9   11.89    1.39 
  -6  -3  -9   10.05    1.10 
  -3   6   9    9.75    1.47 
   3  -6   9   10.17    1.18 
  -6  -3   9   12.86    1.35 
   3  -6   9    9.28    1.09 
  -6  -3  -9   11.96    1.14 
   3  -6  -9   10.30    1.26 
  -6  -3   9   11.94    1.18 
  -6  -2   9    9.34    1.22 
   2  -6   9    7.97    0.95 
   2  -6   9    9.48    1.08 
  -6  -2  -9    7.01    0.94 
  -2   6   9    8.67    0.86 
  -6  -2  -9    8.98    1.00 
  -2   6   9   11.55    1.27 
  -2   6   9    9.61    1.39 
  -6  -2   9    8.47    1.07 
  -2   6   9    7.94    0.95 
  -1   6   9   17.24    1.56 
   6   1  -9   12.89    1.19 
  -1   6   9   15.69    1.16 
  -6  -1   9   15.68    1.26 
  -1   6   9   13.57    1.22 
   1  -6  -9   15.32    1.54 
   1  -6   9   14.17    1.28 
  -6  -1  -9   14.23    1.22 
   1  -6   9   17.47    1.24 
  -6  -1  -9   16.22    1.26 
  -6  -1   9   15.91    1.49 
  -6  -1   9   18.88    1.66 
   0   6   9    8.21    0.89 
  -6   0  -9    9.00    0.94 
   0   6   9    9.48    0.96 
   6   0  -9    8.60    0.95 
   0  -6   9    8.84    1.04 
  -6   0   9   10.87    1.18 
  -6   0  -9    9.49    0.95 
   0  -6   9    8.71    0.88 
  -6   0   9    9.91    0.98 
   0  -6  -9    7.38    1.24 
   0   6   9    7.59    1.12 
  -6   0   9    9.46    1.20 
  -6   1   9   14.71    1.28 
  -6   1  -9   15.00    1.22 
   6  -1  -9   14.31    1.21 
  -1  -6  -9   14.43    1.46 
  -1  -6   9   16.60    1.31 
   1   6   9   18.45    1.53 
  -6   1   9   16.26    1.40 
  -1  -6   9   14.16    1.12 
  -6   1  -9   15.54    1.20 
   1   6   9   13.96    1.16 
   1   6   9   14.56    1.27 
  -6   1   9   16.92    1.34 
  -6   2  -9    8.27    0.87 
  -6   2   9    7.20    0.95 
   2   6   9    7.99    1.07 
  -6   2   9    8.19    1.02 
  -2  -6   9    7.39    0.82 
  -2  -6   9    7.41    0.94 
  -6   2  -9    8.21    0.86 
   6  -2  -9    9.21    0.98 
  -6   2   9    8.41    0.99 
   2   6   9    9.94    1.08 
   2   6   9    8.62    0.90 
  -2  -6  -9    6.75    1.11 
  -6   3   9    9.12    1.19 
   6  -3   9   10.06    1.13 
  -6   3   9   11.37    1.13 
  -3  -6   9   11.54    0.96 
  -3  -6  -9   10.10    1.27 
  -6   3   9   11.62    1.13 
  -6   3  -9    9.50    0.94 
  -6   3  -9   10.15    0.98 
   3   6   9   11.34    1.11 
   3   6   9   13.18    1.19 
   6  -3  -9   11.05    1.11 
  -3  -6  -9    8.31    1.08 
  -6   4  -9    3.99    0.68 
  -4  -6  -9    3.74    0.85 
  -6   4   9    4.75    0.86 
  -4  -6   9    4.30    0.74 
  -4  -6   9    4.46    0.81 
  -6   4  -9    4.54    0.73 
  -6   4   9    6.03    0.89 
   6  -4   9    4.31    0.93 
   4   6   9    4.21    0.80 
  -5  -6   9    7.55    0.96 
  -6   5   9    7.34    1.04 
  -6   5   9    6.25    1.02 
   5   6   9   10.44    1.08 
   6  -5  -9    8.94    1.14 
   6  -6  -9    2.06    0.82 
  -6  -6   9    2.20    0.75 
  -6   6   9    1.03    0.93 
   5  -7   9    0.21    0.74 
  -7  -5   9   -0.36    0.67 
  -5   7   9   -1.12    0.84 
  -7  -4   9    6.82    1.04 
  -4   7   9    6.63    1.16 
   4  -7   9    8.80    1.11 
   3  -7   9    0.06    0.64 
  -7  -3   9   -0.61    0.67 
  -7  -3  -9   -0.23    0.55 
  -3   7   9   -0.64    0.73 
  -2   7   9    7.05    1.16 
  -7  -2  -9    9.13    1.04 
  -7  -2   9    7.54    1.12 
   2  -7   9    9.27    1.07 
  -2   7   9    7.28    0.96 
  -2   7   9    6.31    0.85 
  -1   7   9   -0.31    0.47 
  -7  -1   9   -0.89    0.69 
  -1   7   9   -0.72    0.69 
  -7  -1  -9    0.38    0.54 
   1  -7   9   -0.38    0.46 
  -1   7   9    0.35    0.53 
   0   7   9   11.75    1.12 
  -7   0  -9   10.95    1.11 
  -7   0   9   12.16    1.32 
   0  -7   9   12.71    1.13 
   7   0  -9   10.30    1.12 
   0  -7   9   12.56    1.21 
   0   7   9   14.40    1.49 
  -7   0   9   13.09    1.21 
   1   7   9    0.50    0.73 
  -7   1   9   -0.19    0.56 
  -1  -7   9   -0.11    0.53 
  -7   1  -9   -0.33    0.44 
  -1  -7   9   -0.24    0.47 
   1   7   9    0.33    0.49 
  -7   1   9   -0.22    0.61 
  -7   2   9    8.14    1.04 
  -2  -7   9    8.87    0.90 
  -7   2   9    7.65    0.97 
  -7   2  -9    5.56    0.84 
  -2  -7  -9    5.46    0.98 
   2   7   9    7.13    0.93 
  -7   3   9   -0.37    0.54 
  -7   3   9   -0.12    0.61 
  -7   3  -9   -0.19    0.50 
  -3  -7  -9   -0.36    0.63 
   3   7   9   -0.76    0.58 
  -4  -7  -9    7.85    1.19 
  -4  -7   9    9.91    0.99 
  -7   4   9    8.03    1.06 
  -7   4   9    7.82    1.06 
  -7   4  -9    5.99    0.92 
   4   7   9    7.79    0.96 
  -5  -7   9   -0.85    0.56 
   5   7   9   -0.47    0.64 
  -7   5   9   -0.17    0.72 
  -7   5   9   -0.35    0.67 
  -8  -3   9    5.12    1.10 
  -3   8   9    5.64    1.13 
   3  -8   9    5.33    0.99 
  -8  -2  -9    1.97    0.76 
  -8  -2   9    2.85    1.00 
   2  -8   9    2.23    0.73 
  -2   8   9    2.94    0.97 
  -2   8   9    2.75    0.71 
  -1   8   9    5.37    0.89 
  -8  -1   9    7.33    1.18 
  -1   8   9    7.88    1.26 
  -8  -1  -9    7.70    1.00 
   1  -8   9    5.64    0.88 
   0   8   9    4.08    1.08 
  -8   0   9    3.21    0.80 
   0   8   9    2.63    0.73 
  -8   0  -9    3.34    0.79 
  -8   0   9    2.35    0.86 
   0  -8   9    2.67    0.67 
  -8   1  -9    6.66    0.95 
  -8   1   9    5.91    0.97 
  -1  -8  -9    6.30    1.11 
  -8   1   9    8.98    1.10 
  -1  -8   9    6.55    0.91 
   1   8   9    6.40    0.95 
  -8   2  -9    2.05    0.70 
  -2  -8   9    3.56    0.77 
  -8   2   9    2.69    0.82 
  -8   2   9    3.23    0.79 
  -2  -8  -9    1.83    0.85 
   2   8   9    2.58    0.77 
  -8   3   9    4.92    0.96 
  -8   3   9    5.05    0.87 
  -8   3  -9    4.70    0.87 
  -3  -8  -9    5.25    1.07 
   3   8   9    6.10    1.00 
   0   0  10   58.45    2.78 
   0   0 -10   52.00    2.92 
   0   0 -10   51.12    2.95 
   0   0  10   52.53    3.07 
  -1   0  10   30.12    1.65 
   0  -1 -10   32.09    1.89 
   0  -1  10   32.18    1.81 
   0  -1  10   32.34    2.04 
   1   0  10   32.06    1.98 
  -1   0  10   28.48    1.84 
   1   0  10   30.60    1.77 
   1   0 -10   31.06    1.90 
   0   1  10   30.99    1.95 
   0   1  10   33.13    1.77 
  -1   0  10   33.58    1.75 
   0   1  10   30.83    1.65 
   0  -1 -10   30.37    1.87 
   0   1 -10   32.02    1.86 
   0   1 -10   29.84    1.84 
  -1   0  10   31.22    1.90 
  -1   0 -10   31.17    1.90 
   0   1  10   31.18    1.85 
   1   0 -10   29.41    1.88 
  -1   0 -10   30.37    1.89 
   1  -1  10  280.82   13.71 
  -1  -1  10  254.50   13.19 
  -1   1  10  250.76   11.59 
   1   1 -10  263.11   13.08 
  -1   1  10  255.73   12.10 
   1  -1  10  266.78   12.21 
  -1   1 -10  243.57   12.98 
   1  -1 -10  251.05   13.14 
   1   1 -10  283.89   13.00 
  -1   1  10  252.72   13.54 
  -1  -1 -10  257.04   13.00 
  -1   1  10  264.85   13.21 
  -1   1 -10  265.60   13.13 
   1   1  10  266.52   13.61 
   1  -1 -10  240.84   13.03 
  -1  -1  10  245.60   13.56 
   1   1  10  266.55   12.17 
  -1  -1  10  263.63   12.12 
  -1  -1 -10  252.74   13.11 
  -1   2  10   27.75    1.95 
   1  -2  10   30.46    1.91 
  -1   2 -10   27.73    1.87 
   2   1 -10   29.91    1.92 
  -2  -1  10   28.61    1.74 
  -2  -1  10   31.90    1.88 
   1  -2 -10   29.48    1.94 
   2   1  10   32.63    1.81 
  -1   2 -10   29.35    1.89 
  -1   2  10   31.86    1.80 
   2   1  10   29.58    1.96 
  -1   2  10   32.70    1.89 
   1  -2  10   29.72    2.09 
  -1   2  10   32.31    1.69 
  -2  -1  10   28.94    1.93 
   1  -2 -10   35.21    2.02 
   2   1 -10   27.61    1.86 
  -2  -1 -10   28.50    1.93 
  -2  -1 -10   30.80    1.94 
  -2   0 -10   93.09    5.11 
   0   2  10   98.91    4.52 
  -2   0  10   95.78    5.16 
  -2   0  10   94.05    5.12 
   0  -2  10  103.49    4.88 
  -2   0  10   93.98    4.51 
   0   2 -10   98.97    5.03 
   2   0 -10   90.15    5.17 
   2   0  10  102.29    5.30 
   0   2  10   93.57    5.33 
   0  -2 -10   95.45    5.07 
   0  -2  10   94.07    5.40 
   0   2  10   97.61    5.14 
   2   0  10  104.94    4.75 
   2   0 -10   92.77    5.14 
   0   2 -10   94.61    4.97 
   0  -2 -10   93.83    5.03 
  -2   0 -10   84.53    5.12 
  -1  -2  10   31.00    2.03 
   2  -1 -10   32.60    2.09 
  -2   1  10   30.37    1.70 
   1   2 -10   30.88    1.80 
   2  -1  10   27.41    1.77 
  -1  -2 -10   32.14    1.90 
  -2   1  10   31.04    1.91 
  -2   1  10   29.78    1.67 
   1   2 -10   31.80    1.81 
   1   2  10   30.55    1.82 
  -2   1  10   31.86    1.89 
   2  -1  10   32.41    2.04 
   2  -1 -10   30.76    2.06 
   1   2  10   29.23    1.90 
   1   2  10   27.85    2.00 
  -2   1 -10   29.35    1.96 
  -1  -2  10   27.69    1.80 
  -1  -2 -10   29.64    1.88 
  -2   1 -10   29.48    1.96 
  -2   2  10   48.10    2.99 
  -2   2 -10   52.68    2.95 
  -2  -2  10   51.53    3.03 
  -2   2  10   54.69    2.66 
   2   2 -10   54.40    2.90 
  -2  -2 -10   56.11    3.05 
  -2  -2  10   47.27    2.73 
   2   2  10   54.13    3.19 
   2  -2  10   55.90    3.25 
  -2   2  10   50.89    2.97 
  -2  -2 -10   47.87    2.98 
  -2  -2  10   50.73    2.67 
   2  -2  10   52.26    2.90 
   2   2  10   50.61    2.83 
  -2  -2  10   48.58    3.05 
   2  -2 -10   55.64    3.15 
   2   2 -10   52.38    2.88 
  -2   2 -10   49.81    2.93 
   2  -2 -10   54.89    3.17 
  -2   3  10   18.09    1.25 
  -2   3 -10   18.76    1.30 
   2  -3 -10   16.96    1.50 
   2  -3  10   20.52    1.59 
   3   2 -10   19.23    1.42 
  -2   3 -10   18.91    1.29 
  -3  -2  10   19.65    1.47 
  -3  -2 -10   22.27    1.61 
   3   2  10   18.81    1.53 
  -3  -2 -10   18.96    1.56 
   3   2  10   17.41    1.36 
   2  -3  10   20.04    1.44 
  -3  -2  10   17.56    1.31 
  -2   3  10   20.03    1.25 
  -2   3  10   18.38    1.33 
   2  -3 -10   21.26    1.59 
  -2   3  10   18.48    1.39 
  -1   3  10  176.25    9.71 
  -3  -1 -10  181.90    9.45 
  -3  -1  10  175.05    8.46 
  -3  -1  10  189.56    9.67 
  -1   3 -10  193.84    9.30 
   1  -3  10  169.94    8.78 
  -3  -1 -10  184.07    9.53 
   3   1  10  183.99    9.77 
   1  -3 -10  168.51    9.35 
   3   1 -10  181.57    9.50 
  -1   3  10  190.49    8.69 
   1  -3 -10  192.88    9.46 
   1  -3  10  171.00    9.81 
  -1   3 -10  193.89    9.37 
   3   1 -10  188.71    9.43 
  -1   3  10  190.77    8.39 
  -1   3  10  183.88    9.53 
   3   1  10  174.32    8.71 
   3   0 -10   22.38    1.61 
  -3   0 -10   25.69    1.64 
   3   0 -10   24.47    1.67 
   0  -3 -10   22.26    1.52 
   0  -3  10   21.55    1.52 
   3   0  10   22.18    1.58 
   3   0  10   22.63    1.47 
   0  -3 -10   20.48    1.51 
  -3   0  10   24.12    1.59 
   0   3  10   23.78    1.48 
   0   3  10   19.84    1.56 
   0   3  10   23.37    1.64 
  -3   0  10   22.21    1.43 
  -3   0 -10   23.22    1.60 
   0   3  10   21.91    1.45 
   0  -3  10   22.27    1.65 
  -1  -3 -10  204.70    9.68 
   3  -1  10  182.52   10.14 
   1   3  10  202.64    9.14 
  -3   1  10  193.10    8.67 
  -3   1 -10  184.73    9.69 
   1   3  10  191.16   10.20 
   3  -1 -10  169.60    9.78 
   1   3  10  198.51    8.75 
  -1  -3  10  180.67   10.13 
  -1  -3 -10  190.59    9.74 
  -3   1 -10  187.08    9.76 
   1   3  10  183.91    9.94 
  -3   1  10  187.82    9.84 
   3  -1  10  203.51    9.09 
   3  -1 -10  188.33    9.74 
   3  -2 -10   20.62    1.53 
   2   3  10   19.53    1.42 
  -2  -3  10   17.21    1.35 
   3  -2  10   21.18    1.48 
   2   3  10   18.68    1.54 
  -2  -3 -10   20.64    1.49 
   3  -2  10   20.44    1.59 
  -2  -3  10   20.02    1.48 
  -2  -3  10   18.84    1.34 
  -3   2 -10   17.76    1.32 
   3  -2 -10   20.56    1.50 
  -2  -3 -10   20.10    1.50 
  -3   2 -10   18.76    1.35 
  -3   2  10   19.46    1.28 
  -3   2  10   19.23    1.40 
   3  -3 -10  113.82    6.35 
  -3  -3 -10  125.60    6.49 
  -3  -3  10  111.65    6.33 
   3   3  10  124.85    6.68 
  -3   3  10  123.38    5.59 
   3   3  10  130.17    6.01 
   3  -3 -10  111.19    6.29 
   3  -3  10  105.15    5.96 
  -3   3 -10  114.23    6.18 
  -3  -3 -10  126.57    6.54 
  -3  -3  10  119.44    5.60 
  -3   3  10  119.60    6.35 
   3  -3  10  121.30    6.73 
  -3   3 -10  115.07    6.14 
  -4  -3 -10    9.48    1.08 
  -4  -3  10    9.23    1.09 
   3  -4 -10    7.83    1.03 
  -3   4  10   11.41    1.12 
  -4  -3  10    9.15    0.94 
   3  -4  10    8.21    1.01 
   3  -4 -10    8.33    1.03 
   3  -4  10    8.43    1.15 
   4   3  10    7.90    1.11 
   4   3  10    8.62    1.02 
  -3   4  10    9.23    0.94 
  -4  -3 -10   10.76    1.16 
   4   2  10   37.09    2.55 
  -2   4  10   38.04    2.10 
  -4  -2  10   38.53    2.20 
  -4  -2  10   42.67    2.53 
   4   2  10   34.73    2.29 
   2  -4 -10   42.32    2.53 
  -4  -2 -10   41.20    2.47 
  -2   4  10   36.17    2.32 
  -2   4  10   38.32    2.45 
   2  -4  10   39.76    2.29 
   2  -4 -10   33.08    2.42 
  -2   4  10   40.19    2.19 
  -4  -2 -10   42.00    2.47 
   2  -4  10   33.87    2.46 
   4   1 -10   12.36    1.13 
  -1   4  10   13.83    1.18 
   4   1  10   12.53    1.16 
   1  -4  10   13.50    1.19 
   4   1 -10   13.89    1.22 
  -1   4  10   15.63    1.31 
  -4  -1 -10   12.97    1.15 
  -1   4  10   12.62    1.04 
   4   1  10   13.58    1.10 
  -1   4  10   14.30    1.13 
   1  -4  10   13.66    1.15 
   1  -4 -10   11.22    1.09 
  -4  -1  10   15.09    1.26 
  -4  -1 -10   13.38    1.21 
   1  -4 -10   11.10    1.12 
  -4  -1  10   14.38    1.36 
   0   4  10   29.79    2.05 
   0   4  10   30.73    1.88 
  -4   0  10   32.07    1.91 
   4   0 -10   33.63    2.10 
   0  -4  10   31.33    1.89 
   0  -4 -10   30.32    1.95 
  -4   0  10   29.17    2.07 
   0   4  10   30.62    2.19 
   4   0  10   32.15    2.09 
   4   0 -10   30.45    2.00 
   0   4  10   33.78    1.98 
   4   0  10   32.15    1.89 
  -4   0 -10   35.22    2.05 
  -4   0 -10   32.52    2.03 
   0  -4  10   30.98    2.09 
   0  -4 -10   34.20    1.99 
  -4   1 -10   11.99    1.07 
  -4   1  10   14.63    1.10 
  -1  -4  10   12.13    1.11 
  -1  -4 -10   14.46    1.12 
   1   4  10   15.80    1.33 
   1   4  10   11.63    1.14 
   4  -1  10   12.79    1.14 
   4  -1  10   13.36    1.19 
  -4   1 -10   13.60    1.10 
   1   4  10   16.33    1.17 
  -1  -4 -10   13.32    1.12 
  -1  -4  10   13.03    1.04 
  -4   1  10   15.25    1.21 
  -1  -4 -10   14.61    1.35 
   4  -1 -10   13.39    1.14 
   4  -1 -10   12.73    1.14 
   2   4  10   36.35    2.25 
   2   4  10   37.63    2.50 
   4  -2  10   42.49    2.34 
  -4   2  10   37.84    2.13 
   4  -2 -10   41.07    2.43 
   2   4  10   38.19    2.29 
  -2  -4  10   37.00    2.41 
   4  -2  10   40.19    2.57 
   4  -2 -10   39.78    2.41 
  -2  -4 -10   39.42    2.43 
  -4   2  10   41.20    2.43 
  -4   2 -10   38.28    2.29 
  -2  -4 -10   35.64    2.49 
  -4   2 -10   40.50    2.32 
  -2  -4 -10   39.93    2.43 
  -2  -4  10   36.78    2.17 
   4  -3 -10    8.79    1.01 
  -3  -4 -10    9.77    1.18 
  -3  -4  10   10.62    0.91 
   4  -3  10    8.28    1.18 
  -4   3 -10    8.38    0.81 
  -4   3  10    7.75    0.88 
  -4   3 -10    8.58    0.86 
   3   4  10    8.42    0.96 
  -3  -4 -10   11.21    1.20 
   4  -3 -10    8.53    1.01 
   4  -3  10    8.78    1.07 
   3   4  10    8.57    1.08 
  -3  -4  10    9.14    0.91 
  -4   3  10    9.63    1.02 
   4  -4  10   16.19    1.42 
   4   4  10   14.00    1.26 
   4  -4 -10   15.28    1.32 
  -4  -4  10   14.84    1.27 
   4  -4  10   16.66    1.52 
  -4  -4 -10   15.74    1.39 
  -4   4  10   14.56    1.29 
   4  -4 -10   14.70    1.38 
  -4  -4  10   14.93    1.19 
  -4   4  10   15.49    1.22 
  -4   4 -10   17.76    1.19 
  -4  -4 -10   15.66    1.35 
   4   4  10   15.16    1.38 
  -4   5  10    2.85    0.74 
  -5  -4  10    3.55    0.77 
  -4   5  10    4.08    0.90 
   4  -5  10    3.47    0.85 
  -5  -4  10    3.18    0.75 
   4  -5 -10    3.97    0.84 
  -5  -4 -10    4.45    0.84 
   5   4  10    3.50    0.84 
   4  -5  10    3.66    0.91 
   4  -5 -10    3.83    0.82 
   5   4  10    2.85    0.78 
   3  -5  10   53.47    3.39 
  -3   5  10   54.04    2.92 
  -5  -3 -10   59.13    3.26 
   5   3  10   54.65    3.41 
  -5  -3  10   56.16    3.32 
  -3   5  10   56.76    3.33 
   3  -5 -10   57.87    3.35 
   3  -5 -10   48.88    3.22 
  -5  -3  10   50.92    2.89 
   3  -5  10   53.86    3.07 
   5   3  10   51.58    3.05 
  -5  -3 -10   50.13    3.17 
  -2   5  10    7.90    1.08 
  -5  -2 -10    7.21    0.93 
  -2   5  10    6.07    0.73 
   2  -5  10    6.91    0.97 
  -2   5  10    6.83    0.85 
   2  -5 -10    7.28    1.01 
   2  -5  10    7.68    0.96 
  -5  -2  10    5.80    1.01 
  -2   5  10    7.66    1.00 
   5   2  10    7.71    1.19 
   5   2  10    6.58    1.03 
  -5  -2  10    7.30    0.95 
  -5  -2 -10    7.68    0.98 
   2  -5 -10    5.85    0.96 
   1  -5  10   73.80    4.40 
  -1   5  10   75.09    4.33 
  -1   5  10   81.39    4.53 
  -5  -1  10   79.69    4.03 
  -5  -1 -10   83.30    4.28 
  -1   5  10   80.54    3.99 
   1  -5 -10   77.34    4.19 
   5   1 -10   74.66    4.22 
  -1   5  10   70.37    3.86 
   1  -5 -10   74.33    4.19 
   5   1  10   76.46    4.01 
   1  -5  10   67.33    3.92 
  -5  -1  10   79.97    4.59 
   5   1 -10   75.89    4.22 
  -5  -1 -10   79.64    4.28 
   5   1  10   73.98    4.44 
  -5   0  10    9.43    1.12 
  -5   0 -10    7.70    0.89 
   0   5  10    9.22    1.15 
   0  -5 -10    9.22    0.90 
  -5   0 -10    7.11    0.88 
   0  -5 -10    8.25    0.85 
   5   0 -10    7.16    0.90 
   0   5  10    7.55    0.83 
   5   0 -10    6.24    0.86 
   0  -5 -10    6.88    1.12 
   5   0  10    8.33    1.01 
   0  -5  10    6.87    0.81 
   0  -5  10    6.42    0.89 
   0   5  10    6.89    0.89 
  -5   0  10   10.16    1.05 
   5   0  10    7.54    0.88 
   1   5  10   79.40    4.12 
   5  -1 -10   79.73    4.35 
  -5   1  10   74.64    3.93 
  -1  -5  10   81.57    4.48 
   5  -1 -10   75.64    4.32 
  -5   1 -10   71.79    4.23 
  -1  -5 -10   82.22    4.69 
   1   5  10   73.62    4.48 
  -5   1  10   78.94    4.45 
  -1  -5 -10   85.11    4.32 
   1   5  10   82.49    4.07 
  -1  -5  10   75.89    4.00 
  -1  -5 -10   80.23    4.26 
  -5   1 -10   77.44    4.30 
   5  -2 -10    7.07    0.94 
   2   5  10    7.16    1.04 
  -5   2  10    8.95    1.05 
  -2  -5 -10    5.85    1.02 
   2   5  10    6.00    0.83 
  -2  -5  10    6.84    0.81 
  -5   2  10    8.98    0.93 
   5  -2  10    8.68    1.08 
   2   5  10    7.66    0.99 
   5  -2 -10    6.70    0.93 
  -5   2 -10    6.89    0.82 
   5  -2  10   10.08    1.03 
  -5   2 -10    6.31    0.80 
   3   5  10   58.31    3.43 
   5  -3 -10   53.71    3.23 
   5  -3  10   51.10    3.06 
  -5   3 -10   52.36    3.09 
   5  -3  10   58.04    3.50 
   5  -3 -10   50.99    3.22 
  -3  -5 -10   52.65    2.98 
  -5   3  10   60.92    3.33 
   3   5  10   56.88    3.10 
  -3  -5  10   54.45    2.82 
  -5   3  10   60.36    2.98 
  -5   3 -10   51.03    3.10 
  -5   4  10    3.04    0.69 
   5  -4  10    3.06    0.95 
   5  -4  10    2.32    0.78 
  -5   4  10    3.25    0.79 
   5  -4 -10    3.71    0.83 
   5  -4 -10    2.40    0.73 
  -4  -5  10    4.83    0.81 
   4   5  10    3.15    0.73 
   4   5  10    3.98    0.80 
  -5   4 -10    3.47    0.63 
  -4  -5  10    4.17    0.71 
   5   5  10   26.73    1.84 
  -5  -5  10   24.32    1.69 
  -5   5  10   26.63    1.77 
   5  -5 -10   26.18    1.95 
   5  -5  10   27.14    1.98 
   6   5  10    1.31    0.69 
  -5   6  10    1.08    0.77 
   5  -6 -10    1.69    0.77 
   5  -6  10    1.38    0.80 
  -6  -5  10    1.24    0.71 
   4  -6 -10    8.73    1.18 
  -6  -4  10    8.72    1.11 
   6   4  10    8.17    1.06 
  -4   6  10   10.24    1.20 
   4  -6  10    8.29    1.14 
   6   3  10    3.38    0.80 
  -6  -3 -10    3.46    0.78 
   3  -6  10    2.94    0.82 
   3  -6 -10    4.22    0.94 
  -3   6  10    1.75    0.79 
  -6  -3 -10    3.11    0.79 
  -6  -3  10    3.11    0.78 
  -6  -2  10   11.54    1.41 
  -2   6  10   14.08    1.55 
  -2   6  10   11.14    1.01 
  -6  -2 -10   11.86    1.19 
  -6  -2  10   12.59    1.29 
   6   2  10   12.30    1.29 
  -6  -2 -10   11.87    1.18 
   2  -6  10   10.47    1.26 
  -2   6  10   10.92    1.27 
   2  -6  10   13.39    1.17 
   1  -6  10    5.61    0.84 
  -6  -1 -10    5.22    0.84 
  -6  -1 -10    5.74    0.80 
   1  -6 -10    4.12    1.00 
  -6  -1  10    5.68    1.07 
   6   1  10    5.17    0.89 
  -1   6  10    3.23    0.61 
   1  -6  10    5.94    0.91 
   6   1 -10    4.01    0.77 
  -1   6  10    3.58    0.76 
  -6  -1  10    6.39    1.01 
  -1   6  10    4.59    1.01 
   0   6  10   19.08    1.73 
   0   6  10   17.82    1.43 
   0   6  10   20.06    1.38 
   0  -6 -10   18.53    1.77 
   6   0 -10   15.36    1.34 
  -6   0  10   18.03    1.43 
  -6   0 -10   16.84    1.38 
  -6   0 -10   17.03    1.36 
  -6   0  10   18.93    1.54 
   0  -6  10   17.81    1.34 
  -6   0  10   18.46    1.40 
   6   0  10   16.65    1.37 
   0  -6  10   15.68    1.39 
  -6   1  10    7.84    1.02 
  -1  -6 -10    6.49    1.14 
   6  -1  10    4.98    0.80 
  -1  -6  10    6.38    0.83 
  -6   1 -10    5.09    0.78 
  -1  -6  10    3.61    0.76 
   6  -1 -10    4.63    0.81 
   1   6  10    7.21    1.15 
  -6   1  10    5.26    0.86 
  -6   1 -10    4.39    0.75 
   1   6  10    3.51    0.71 
  -6   1  10    4.57    0.81 
   1   6  10    4.93    0.85 
   2   6  10   12.27    1.21 
   6  -2 -10   11.49    1.14 
  -2  -6 -10   12.37    1.47 
  -6   2 -10   10.31    1.02 
  -6   2  10   12.82    1.22 
   2   6  10   10.54    1.08 
  -6   2  10   14.09    1.20 
  -6   2  10   11.46    1.18 
  -6   2 -10   11.48    1.09 
   2   6  10   10.62    1.30 
   6  -2  10   13.04    1.16 
  -2  -6  10   11.65    1.10 
  -6   3  10    3.77    0.81 
   3   6  10    3.84    0.79 
  -3  -6 -10    2.43    0.80 
  -6   3 -10    3.34    0.65 
   6  -3  10    3.06    0.77 
  -6   3  10    1.99    0.65 
  -3  -6 -10    2.03    0.88 
  -6   4 -10    8.78    1.01 
   6  -4 -10    9.24    1.15 
  -6   4  10    9.69    1.07 
  -4  -6  10   10.16    1.02 
   6  -4  10    9.42    1.13 
   4   6  10    9.90    1.12 
  -5  -6  10    0.47    0.64 
   6  -5  10    2.59    0.86 
   6  -5 -10    1.07    0.74 
  -6   5  10    2.49    0.76 
   5   6  10    1.59    0.67 
  -6  -6  10    3.03    0.85 
  -6   6  10    1.47    0.86 
   6  -6 -10    2.98    0.89 
   6  -6  10    3.20    0.97 
   4  -7  10   -0.25    0.70 
  -4   7  10    0.31    0.82 
  -7  -4  10    1.15    0.77 
  -7  -3  10   17.87    1.65 
  -7  -3 -10   20.39    1.63 
   3  -7  10   20.23    1.63 
  -3   7  10   19.55    1.68 
   2  -7  10    2.34    0.69 
  -2   7  10    3.21    0.98 
  -2   7  10    1.78    0.64 
  -7  -2  10    1.47    0.84 
  -7  -2 -10    0.53    0.68 
  -7  -1  10   29.81    2.06 
  -1   7  10   30.77    2.18 
  -7  -1 -10   25.69    1.94 
  -1   7  10   26.40    1.81 
   1  -7  10   27.51    1.91 
   0   7  10    2.93    1.06 
  -7   0  10    2.26    0.80 
   0  -7  10    1.74    0.75 
  -7   0 -10    2.21    0.71 
  -7   0  10    3.27    0.77 
   0   7  10    3.67    0.72 
  -7   1  10   31.58    1.97 
   1   7  10   31.31    2.19 
  -1  -7  10   30.02    1.99 
   1   7  10   28.93    1.92 
  -7   1  10   29.29    2.06 
  -7   1 -10   26.57    1.95 
  -7   2  10    1.16    0.65 
  -7   2  10    2.39    0.80 
   2   7  10    2.24    0.67 
  -7   2 -10    1.64    0.64 
  -2  -7 -10    0.24    0.70 
  -2  -7  10    2.65    0.72 
  -7   3  10   21.75    1.49 
   3   7  10   18.73    1.56 
  -7   3  10   20.50    1.63 
  -3  -7 -10   19.46    1.63 
  -7   3 -10   21.26    1.58 
  -7   4  10    0.80    0.75 
   4   7  10    0.16    0.65 
  -7   4 -10    1.16    0.65 
  -7   4  10    0.92    0.71 
   7  -4 -10    1.47    0.80 
  -8  -3 -10    1.51    0.77 
  -8  -3  10    0.54    0.81 
   3  -8  10   -0.18    0.79 
  -3   8  10    0.02    0.89 
   2  -8  10    5.41    0.96 
  -8  -2  10    6.50    1.21 
  -8  -2 -10    4.75    1.00 
  -2   8  10    5.27    0.86 
  -2   8  10    3.17    1.11 
  -8  -1  10    0.48    0.80 
  -1   8  10    1.47    0.70 
  -8  -1 -10    1.82    0.73 
  -1   8  10   -0.38    0.94 
   1  -8  10    1.48    0.75 
  -8   0 -10    5.98    0.96 
   0   8  10    4.42    0.89 
   0  -8  10    6.75    0.97 
  -8   0  10    4.24    0.92 
   0   8  10    5.92    1.22 
  -8   0  10    5.95    0.99 
  -8   1  10    1.91    0.82 
   1   8  10    1.17    0.71 
  -1  -8 -10   -0.22    0.73 
  -8   1  10    0.82    0.70 
  -8   1 -10   -0.60    0.61 
  -1  -8  10    1.49    0.72 
  -8   2 -10    4.99    0.90 
  -8   2  10    4.43    0.86 
  -8   2  10    6.34    1.03 
  -2  -8 -10    3.33    0.99 
   2   8  10    4.26    0.93 
  -3  -8 -10    1.21    0.90 
  -8   3 -10    0.56    0.65 
  -8   3  10    0.59    0.69 
  -8   3  10    0.15    0.67 
   3   8  10   -0.22    0.77 
   0   0 -11   16.05    1.13 
   0   0 -11   15.71    1.12 
   0   0  11   14.82    1.06 
   0   0  11   14.29    1.13 
  -1   0  11   68.78    3.28 
   0   1 -11   69.93    3.70 
   0  -1  11   65.50    3.48 
   1   0  11   67.46    3.88 
  -1   0 -11   62.00    3.68 
  -1   0  11   71.32    3.44 
   0   1 -11   70.01    3.67 
   1   0 -11   71.07    3.72 
  -1   0 -11   70.01    3.74 
  -1   0  11   63.22    3.69 
   0   1  11   70.19    3.87 
   1   0 -11   66.96    3.72 
   0   1  11   70.02    3.46 
   0  -1  11   65.15    3.89 
   1   0  11   71.04    3.50 
  -1   0  11   69.59    3.83 
   0  -1 -11   69.79    3.73 
   0  -1 -11   74.25    3.73 
   1   1 -11   10.41    0.85 
  -1  -1  11    9.68    0.84 
   1  -1 -11   10.31    0.97 
   1   1  11   10.50    0.88 
   1  -1 -11    9.04    0.88 
  -1  -1 -11    9.49    0.87 
  -1   1 -11    9.51    0.89 
  -1   1  11   10.18    0.86 
   1  -1  11    9.78    0.98 
  -1   1  11    8.12    0.85 
   1   1  11    9.72    0.93 
  -1   1  11   10.66    0.87 
   1  -1  11   11.10    0.93 
   1   1 -11    8.35    0.84 
  -1  -1 -11   10.76    0.94 
  -1   1  11   10.29    0.88 
  -1   1 -11    9.03    0.90 
  -1  -1  11    9.85    0.90 
  -1   2  11   65.82    3.35 
  -1   2 -11   67.18    3.78 
  -1   2 -11   77.69    3.79 
   1  -2  11   69.70    4.07 
   2   1 -11   68.87    3.78 
  -2  -1  11   67.23    3.83 
   2   1  11   65.49    3.93 
   1  -2  11   68.11    3.62 
   1  -2 -11   66.65    3.80 
  -1   2  11   70.11    3.95 
   2   1  11   77.01    3.58 
  -2  -1 -11   68.99    3.83 
  -2  -1 -11   70.01    3.81 
  -1   2  11   64.19    3.78 
  -2  -1  11   69.72    3.40 
   1  -2 -11   65.09    3.79 
   2   1 -11   73.26    3.80 
  -1   2  11   70.46    3.55 
   0   2  11    9.76    0.92 
   2   0  11    8.82    0.83 
   0   2  11    7.62    0.82 
   2   0 -11    7.72    0.91 
  -2   0  11    8.22    0.83 
   0   2 -11    8.43    0.81 
   0  -2  11    8.13    1.02 
   0  -2 -11    8.75    0.86 
  -2   0  11   10.24    0.82 
   0  -2 -11    9.39    0.85 
   0  -2  11    8.47    0.92 
   0   2  11    7.34    0.90 
  -2   0 -11    9.49    0.94 
   2   0  11    8.81    0.87 
   0   2 -11    8.25    0.80 
  -2   0 -11    8.82    0.92 
   0   2  11    8.39    0.78 
   2   0 -11    8.57    0.92 
  -2   1 -11   65.85    3.86 
   2  -1 -11   62.20    3.87 
   2  -1 -11   68.41    3.93 
  -1  -2  11   68.22    3.59 
   1   2 -11   66.12    3.73 
   1   2  11   71.58    3.59 
  -2   1 -11   66.64    3.84 
  -2   1  11   66.23    3.38 
  -1  -2 -11   70.79    3.83 
  -1  -2  11   77.48    4.07 
   2  -1  11   77.00    4.06 
   2  -1  11   79.04    3.66 
   1   2  11   70.01    4.01 
  -1  -2 -11   73.13    3.80 
  -2   1  11   65.72    3.82 
   1   2 -11   70.23    3.72 
   2   2 -11    9.64    0.90 
   2  -2  11   11.47    1.19 
   2   2  11    9.79    0.92 
   2  -2  11    9.39    0.99 
  -2  -2 -11   10.70    1.01 
  -2   2 -11   10.36    1.02 
  -2  -2 -11   10.44    1.02 
  -2   2 -11    8.59    0.99 
   2   2 -11    9.90    0.87 
  -2   2  11    8.32    0.86 
  -2  -2  11   10.42    1.12 
   2  -2 -11   10.35    1.12 
   2   2  11    9.58    1.06 
   2  -2 -11    9.00    1.08 
  -2   2  11   10.37    0.85 
  -3  -2 -11   47.25    2.82 
  -2   3  11   48.60    2.38 
  -2   3 -11   46.02    2.62 
   3   2  11   45.03    2.81 
  -3  -2 -11   44.77    2.78 
  -2   3 -11   43.13    2.60 
  -2   3  11   45.13    2.66 
   2  -3  11   44.10    2.93 
  -3  -2  11   43.43    2.47 
   2  -3  11   42.90    2.64 
  -3  -2  11   44.79    2.80 
   3   2  11   40.92    2.48 
   2  -3 -11   44.20    2.76 
   2  -3 -11   46.68    2.78 
  -1   3  11    6.86    0.88 
   1  -3  11    7.52    1.03 
  -1   3  11    5.61    0.73 
  -3  -1 -11    7.94    1.00 
   3   1 -11    7.97    0.96 
   1  -3  11    6.07    0.89 
  -3  -1 -11    6.56    0.96 
  -3  -1  11    8.27    0.89 
   1  -3 -11    7.98    0.88 
  -1   3  11    7.79    0.81 
  -3  -1  11    7.39    0.96 
   1  -3 -11    8.48    0.92 
   3   1  11    8.14    0.85 
   3   1  11    8.08    0.93 
   3   1 -11    7.19    0.94 
  -1   3  11    9.64    0.96 
   0  -3 -11   58.35    3.28 
   0  -3 -11   59.27    3.30 
   0   3  11   59.60    3.18 
   0  -3  11   60.62    3.59 
  -3   0  11   59.90    3.38 
   3   0  11   57.03    3.08 
   3   0 -11   60.92    3.47 
  -3   0  11   54.42    2.96 
   0  -3  11   64.08    3.26 
   3   0  11   56.02    3.43 
   3   0 -11   54.03    3.43 
  -3   0 -11   63.86    3.48 
   0   3  11   60.05    3.00 
  -3   0 -11   57.69    3.46 
   0   3  11   58.61    3.38 
   0   3  11   62.02    3.56 
   1   3  11    9.19    1.09 
  -1  -3 -11    6.66    0.82 
   3  -1  11    8.35    0.86 
  -1  -3  11    6.78    0.98 
  -1  -3 -11    7.90    0.86 
  -1  -3  11    7.05    0.91 
  -3   1 -11    8.98    0.97 
   3  -1 -11    8.29    1.01 
   3  -1  11    8.61    0.97 
  -3   1  11    7.28    0.76 
   1   3  11    6.07    0.84 
  -3   1  11    8.17    0.87 
   3  -1 -11    7.84    1.01 
  -3   1 -11    8.45    0.97 
   2   3  11   45.19    3.01 
   3  -2  11   46.16    2.96 
   3  -2 -11   52.38    2.96 
   3  -2  11   46.48    2.66 
  -3   2  11   49.38    2.81 
   2   3  11   49.49    2.75 
  -2  -3 -11   47.01    2.80 
  -2  -3 -11   47.50    2.79 
  -3   2  11   48.83    2.47 
   3  -2 -11   48.70    2.93 
  -3   2 -11   42.97    2.72 
  -3   2 -11   44.62    2.75 
   3   3  11    7.61    1.11 
   3  -3 -11    5.50    0.94 
  -3  -3 -11    5.77    0.98 
  -3   3 -11    5.67    0.76 
  -3  -3  11    5.65    0.88 
   3  -3  11    5.50    1.00 
  -3   3 -11    4.92    0.73 
  -3   3  11    6.39    0.75 
   3  -3  11    7.22    0.94 
   3   3  11    5.46    0.94 
  -3  -3  11    6.88    0.83 
   3  -3 -11    6.30    0.95 
  -3   3  11    7.14    0.85 
  -3  -3 -11    5.81    0.98 
  -4  -3 -11   24.27    1.93 
   3  -4  11   29.25    2.10 
  -4  -3 -11   29.01    2.05 
  -3   4  11   25.80    1.65 
   3  -4 -11   25.76    1.93 
  -3   4  11   26.09    1.82 
   4   3  11   25.90    1.93 
   3  -4 -11   24.72    1.94 
  -4  -3  11   25.00    1.71 
   4   3  11   28.07    2.11 
  -4  -3  11   29.03    1.97 
   3  -4  11   26.68    1.90 
   4   2  11    1.91    0.64 
   2  -4  11    2.34    0.76 
  -4  -2 -11    0.71    0.64 
  -4  -2  11    2.62    0.82 
  -4  -2  11    2.15    0.68 
   2  -4 -11    1.84    0.66 
  -2   4  11    2.82    0.56 
  -2   4  11    3.06    0.61 
   4   2  11    2.74    0.73 
  -4  -2 -11    2.12    0.75 
   2  -4  11    1.98    0.73 
   2  -4 -11    1.95    0.68 
  -2   4  11    2.14    0.68 
  -1   4  11   32.58    2.21 
  -4  -1  11   35.58    2.34 
   4   1 -11   35.38    2.28 
  -1   4  11   35.42    2.02 
  -4  -1 -11   32.76    2.27 
   4   1 -11   35.14    2.29 
  -4  -1 -11   34.23    2.29 
   1  -4 -11   35.27    2.17 
   1  -4 -11   36.99    2.17 
  -1   4  11   33.42    2.03 
   1  -4  11   34.15    2.13 
   1  -4  11   35.01    2.35 
   4   1  11   33.55    2.24 
  -1   4  11   39.10    2.31 
  -4  -1  11   35.83    2.12 
   4   1  11   33.50    2.04 
   0  -4 -11    5.96    0.74 
   0   4  11    6.27    0.77 
   4   0  11    5.66    0.79 
   0   4  11    5.43    0.77 
  -4   0  11    5.52    0.77 
   4   0 -11    5.92    0.85 
   4   0 -11    3.76    0.77 
   4   0  11    6.07    0.75 
   0  -4 -11    5.25    0.73 
  -4   0 -11    4.45    0.78 
  -4   0 -11    6.64    0.89 
   0  -4  11    5.70    0.82 
  -4   0  11    6.78    0.87 
   0  -4  11    5.08    0.86 
   0   4  11    3.78    0.75 
   0   4  11    7.24    0.96 
  -4   1  11   36.35    2.23 
  -1  -4 -11   34.93    2.12 
  -1  -4  11   32.45    2.05 
  -1  -4  11   31.86    2.26 
   1   4  11   37.02    2.06 
   4  -1  11   39.95    2.30 
  -1  -4 -11   35.14    2.26 
   4  -1 -11   31.44    2.21 
  -4   1 -11   35.78    2.20 
   4  -1  11   36.62    2.07 
  -4   1  11   35.32    1.98 
   1   4  11   33.52    2.32 
   4  -1 -11   32.74    2.26 
  -4   1 -11   32.82    2.17 
   1   4  11   33.33    2.10 
  -1  -4 -11   37.21    2.15 
   2   4  11    2.25    0.66 
   2   4  11    2.40    0.72 
   4  -2 -11    1.41    0.66 
  -4   2  11    2.02    0.55 
   4  -2  11    1.63    0.57 
  -2  -4 -11    2.34    0.64 
  -4   2 -11    2.83    0.60 
  -2  -4 -11    1.95    0.66 
  -4   2  11    1.69    0.57 
   4  -2  11    1.49    0.69 
  -4   2 -11    2.99    0.64 
   4  -2 -11    2.45    0.74 
  -3  -4 -11   25.71    1.97 
  -4   3 -11   26.12    1.74 
   4  -3 -11   26.84    1.93 
   4  -3  11   25.66    1.81 
   4  -3  11   31.04    2.09 
  -4   3  11   28.73    1.67 
   4  -3 -11   21.84    1.87 
   3   4  11   30.24    1.88 
  -3  -4 -11   24.25    1.92 
  -4   3  11   31.69    1.90 
   3   4  11   28.12    2.07 
  -4   3 -11   24.68    1.75 
  -4  -4 -11    1.94    0.73 
  -4   4  11    2.15    0.63 
   4  -4  11    1.49    0.85 
   4   4  11    1.07    0.68 
  -4   4  11    1.35    0.62 
  -4  -4 -11    0.88    0.70 
   4  -4  11    0.98    0.69 
   4  -4 -11    1.94    0.73 
  -4  -4  11    2.30    0.63 
  -4  -4  11    1.46    0.68 
   4  -4 -11    1.23    0.70 
   4   4  11    1.00    0.71 
  -5  -4 -11   12.35    1.34 
  -4   5  11   11.75    1.15 
   4  -5 -11   11.23    1.32 
  -5  -4  11   13.83    1.25 
   5   4  11   14.64    1.37 
   4  -5  11   11.35    1.30 
   3  -5 -11    5.03    0.95 
   5   3  11    4.92    1.04 
  -5  -3  11    5.13    0.86 
  -5  -3  11    4.15    0.91 
   3  -5 -11    3.26    0.85 
  -3   5  11    5.07    0.92 
  -5  -3 -11    4.28    0.90 
  -5  -3 -11    4.23    0.88 
  -3   5  11    5.18    0.81 
   5   3  11    4.76    0.90 
   3  -5  11    3.24    0.93 
   3  -5  11    5.60    0.92 
   2  -5 -11   22.57    1.70 
  -2   5  11   22.71    1.72 
  -5  -2 -11   24.91    1.81 
  -5  -2  11   25.93    1.93 
  -2   5  11   20.74    1.47 
  -2   5  11   24.33    1.61 
   5   2  11   22.55    1.80 
   2  -5 -11   20.49    1.64 
   5   2  11   21.34    1.62 
   2  -5  11   22.70    1.68 
   2  -5  11   22.72    1.80 
  -5  -2 -11   24.04    1.75 
  -5  -2  11   22.86    1.69 
   1  -5  11    5.80    0.90 
   5   1 -11    3.88    0.82 
   5   1 -11    3.75    0.82 
  -5  -1 -11    5.66    0.89 
   5   1  11    6.62    0.96 
   1  -5 -11    5.85    0.82 
  -5  -1 -11    4.97    0.86 
  -5  -1  11    7.43    1.05 
  -1   5  11    5.73    0.76 
  -1   5  11    5.72    0.87 
  -1   5  11    5.41    0.86 
  -1   5  11    5.49    0.96 
   1  -5 -11    6.82    0.87 
   1  -5  11    5.51    0.95 
  -5  -1  11    4.10    0.86 
   5   1  11    8.95    0.95 
   0  -5  11   23.97    1.60 
   0  -5  11   23.31    1.73 
  -5   0 -11   22.95    1.67 
   0  -5 -11   22.73    1.73 
  -5   0 -11   20.64    1.62 
   5   0  11   21.44    1.51 
  -5   0  11   21.94    1.69 
   5   0 -11   20.76    1.62 
   0  -5 -11   22.39    1.55 
   0  -5 -11   21.84    1.53 
   0   5  11   23.19    1.52 
   5   0 -11   23.09    1.80 
   0   5  11   22.23    1.68 
   0   5  11   23.86    1.63 
  -5   0  11   23.02    1.57 
   5   0  11   22.73    1.65 
  -5   1  11    7.65    0.97 
   1   5  11    5.53    0.91 
  -5   1 -11    5.51    0.83 
   5  -1  11    5.78    0.82 
  -1  -5  11    5.28    0.79 
  -1  -5 -11    3.98    0.95 
  -5   1 -11    4.88    0.78 
   5  -1  11    3.98    0.77 
   1   5  11    5.63    0.81 
  -1  -5 -11    6.04    0.81 
   5  -1 -11    5.13    0.88 
  -1  -5  11    5.37    0.87 
   5  -1 -11    5.29    0.86 
  -5   1  11    6.36    0.84 
  -1  -5 -11    4.57    0.76 
   1   5  11    5.34    0.88 
  -5   2  11   23.94    1.52 
  -5   2 -11   22.73    1.62 
   5  -2  11   23.00    1.74 
   2   5  11   20.75    1.75 
  -2  -5 -11   23.64    1.82 
   5  -2 -11   22.37    1.72 
   5  -2  11   20.76    1.56 
   5  -2 -11   24.64    1.73 
   2   5  11   23.80    1.66 
  -5   2 -11   20.47    1.57 
   2   5  11   24.15    1.75 
  -5   2  11   26.70    1.73 
  -5   3 -11    4.79    0.75 
   5  -3  11    7.09    1.05 
  -5   3  11    3.95    0.81 
   5  -3  11    4.82    0.85 
   3   5  11    4.45    0.84 
  -5   3  11    5.70    0.81 
   3   5  11    4.41    0.91 
  -5   3 -11    3.87    0.71 
   5  -3 -11    4.64    0.85 
   5  -3 -11    3.80    0.84 
   5  -4  11   10.85    1.23 
   5  -4 -11   12.64    1.34 
  -4  -5  11   12.50    1.16 
  -5   4 -11   11.64    1.11 
  -5   4  11   12.75    1.18 
   4   5  11   14.25    1.35 
   5  -5  11    2.57    0.92 
   5   5  11    2.18    0.80 
   5  -5 -11    2.17    0.77 
  -5  -5  11    1.95    0.72 
  -5   5  11    2.78    0.75 
  -6  -5  11    7.35    1.08 
   5  -6  11    8.93    1.28 
  -5   6  11    7.46    1.06 
   6   5  11    8.37    1.11 
   5  -6 -11    7.15    1.15 
  -6  -4  11   -0.50    0.59 
   4  -6  11   -0.38    0.66 
   4  -6 -11   -0.37    0.68 
   6   4  11    0.76    0.71 
  -4   6  11   -1.00    0.55 
   3  -6 -11   11.64    1.29 
  -3   6  11   11.53    1.24 
  -6  -3 -11   13.36    1.33 
   6   3  11   12.33    1.31 
  -6  -3  11   10.82    1.23 
   3  -6  11    9.25    1.17 
  -6  -2  11    0.66    0.72 
   6   2  11    1.41    0.75 
  -2   6  11    0.03    0.63 
  -2   6  11    0.27    0.53 
   2  -6  11   -0.44    0.61 
   2  -6 -11   -0.18    0.60 
  -6  -2 -11    0.75    0.61 
   6   1  11   12.50    1.33 
  -1   6  11   13.32    1.30 
  -1   6  11   13.99    1.20 
   6   1 -11   16.57    1.56 
  -1   6  11   15.01    1.40 
  -6  -1 -11   16.36    1.37 
  -6  -1  11   16.61    1.43 
   6   1  11   15.76    1.33 
   1  -6  11   16.58    1.37 
   6   0 -11   -0.34    0.54 
   6   0 -11    0.08    0.57 
   6   0  11    0.22    0.55 
   0  -6 -11   -0.20    0.74 
   0   6  11   -0.19    0.72 
   0  -6  11    0.08    0.68 
   0  -6  11    0.15    0.58 
  -6   0 -11    0.52    0.57 
   0   6  11   -0.08    0.57 
   6   0  11    0.26    0.56 
  -6   0  11   -0.22    0.56 
   0   6  11   -0.60    0.54 
  -6   1 -11   17.01    1.38 
  -6   1  11   15.74    1.31 
   6  -1 -11   16.82    1.44 
   1   6  11   18.30    1.56 
   6  -1  11   16.08    1.31 
  -1  -6  11   14.12    1.35 
  -1  -6  11   14.38    1.27 
  -1  -6 -11   16.17    1.68 
   1   6  11   13.96    1.27 
  -6   2 -11    1.50    0.60 
   6  -2 -11    0.89    0.65 
   2   6  11    0.02    0.79 
   6  -2  11    1.16    0.61 
   2   6  11    0.48    0.60 
   6  -2  11    1.21    0.66 
  -6   2  11    0.50    0.58 
  -2  -6 -11   -0.51    0.72 
   6  -3  11   13.17    1.23 
   3   6  11   11.96    1.23 
   6  -3 -11   11.32    1.31 
  -6   3 -11   11.05    1.15 
  -6   3  11   13.27    1.22 
   4   6  11   -0.15    0.60 
  -6   4  11   -0.16    0.59 
   6  -4 -11   -0.36    0.65 
   6  -4  11    0.16    0.66 
  -6   4 -11    0.58    0.59 
   6  -5  11    6.84    1.03 
  -6   5  11    7.36    1.02 
   6  -5 -11    6.66    1.07 
  -5  -6  11    7.60    1.02 
   5   6  11    7.76    1.10 
  -4   7  11    6.63    1.06 
   4  -7  11    7.55    1.16 
  -7  -4  11    5.86    1.02 
  -3   7  11    1.40    0.80 
   3  -7  11    1.81    0.86 
  -7  -3 -11    1.25    0.79 
  -7  -3  11    1.45    0.78 
  -7  -2 -11    8.82    1.18 
  -2   7  11    7.68    1.13 
   2  -7  11    7.99    1.12 
  -7  -2  11    9.28    1.25 
   1  -7  11    2.20    0.79 
  -1   7  11    0.77    0.80 
  -7  -1 -11    2.03    0.76 
  -1   7  11    2.42    0.70 
  -7  -1  11    2.06    0.82 
   0   7  11   11.72    1.17 
   0  -7  11   13.32    1.24 
   7   0 -11   11.54    1.29 
  -7   0  11   10.89    1.26 
  -7   0 -11   13.19    1.26 
   0   7  11   13.20    1.51 
   1   7  11    3.15    0.74 
   7  -1 -11    3.22    0.80 
   1   7  11    1.30    0.92 
  -7   1  11    2.24    0.75 
  -1  -7  11    2.70    0.74 
  -7   1 -11    1.87    0.71 
   7  -2 -11    9.56    1.19 
  -7   2  11    8.39    1.02 
  -7   2 -11    7.87    1.04 
   2   7  11    8.08    1.06 
  -2  -7 -11    7.28    1.10 
  -7   3  11    1.73    0.74 
   3   7  11    1.71    0.79 
   7  -3 -11    1.42    0.79 
  -7   3 -11    1.67    0.67 
  -3  -7 -11    0.15    0.73 
   4   7  11    7.38    1.06 
   7  -4 -11    7.29    1.16 
  -7   4  11    8.11    1.02 
  -7   4 -11    5.10    0.94 
  -8  -1 -11    5.45    1.02 
  -1   8  11    5.01    0.91 
  -1   8  11    6.83    1.24 
   1  -8  11    6.29    1.04 
  -8  -1  11    5.47    1.05 
   0  -8  11    0.21    0.73 
   0   8  11   -0.21    0.68 
   0   8  11   -1.78    0.84 
  -8   0 -11   -0.21    0.64 
  -8   0  11    0.48    0.68 
   8   0 -11   -0.65    0.65 
   8  -1 -11    2.38    0.88 
  -8   1 -11    5.79    1.01 
  -1  -8 -11    4.93    1.05 
  -1  -8  11    7.29    1.03 
   1   8  11    5.73    0.97 
  -8   1  11    5.36    0.92 
   0   0  12   51.55    3.00 
   0   0 -12   49.53    2.86 
   0   0 -12   54.45    2.90 
   0   0  12   50.65    2.69 
   1   0 -12   38.15    2.19 
   0   1  12   37.85    2.26 
   1   0 -12   37.40    2.20 
  -1   0  12   34.07    2.00 
   0  -1  12   36.01    2.07 
   1   0  12   37.62    2.29 
   0   1  12   36.51    2.03 
   0  -1 -12   39.93    2.21 
  -1   0 -12   34.46    2.17 
  -1   0  12   35.28    2.21 
   0  -1  12   37.35    2.30 
   0  -1 -12   38.48    2.19 
   1   0  12   35.56    2.06 
  -1   0 -12   39.07    2.20 
   0   1 -12   38.64    2.17 
   0   1 -12   34.72    2.13 
  -1  -1  12    4.91    0.69 
  -1   1  12    4.92    0.62 
   1  -1  12    5.61    0.78 
  -1   1 -12    6.18    0.73 
  -1   1  12    9.02    0.71 
  -1   1 -12    5.67    0.70 
  -1   1  12    5.47    0.73 
   1  -1 -12    5.12    0.70 
   1   1  12    5.70    0.66 
   1  -1 -12    5.92    0.76 
   1   1  12    5.84    0.75 
  -1  -1 -12    6.54    0.76 
   1   1 -12    5.86    0.69 
   1   1 -12    5.78    0.70 
  -1   1  12    7.53    0.69 
   1  -1  12    5.61    0.70 
  -1  -1 -12    5.55    0.71 
  -1  -1  12    5.34    0.64 
  -1   2  12   22.93    1.40 
  -2  -1 -12   25.97    1.64 
  -1   2  12   22.99    1.56 
   1  -2  12   22.54    1.56 
  -1   2 -12   23.24    1.62 
   2   1 -12   24.13    1.63 
  -1   2  12   22.67    1.48 
   1  -2 -12   27.15    1.71 
   2   1  12   23.88    1.65 
  -2  -1 -12   24.65    1.61 
  -1   2 -12   22.49    1.55 
   2   1  12   24.38    1.52 
   2   1 -12   22.50    1.53 
  -1   2  12   22.38    1.62 
  -2  -1  12   23.89    1.58 
   1  -2  12   25.86    1.79 
   1  -2 -12   22.96    1.59 
   2   0  12   64.15    3.20 
   0  -2 -12   59.57    3.38 
  -2   0 -12   65.86    3.43 
   0  -2  12   59.37    3.21 
   2   0  12   63.83    3.56 
   2   0 -12   61.23    3.42 
  -2   0  12   60.25    3.01 
  -2   0  12   53.00    3.36 
   0   2  12   56.43    3.51 
   2   0 -12   57.35    3.41 
   0   2  12   58.43    3.16 
   0   2 -12   61.05    3.33 
   0   2 -12   67.63    3.39 
   0  -2 -12   64.17    3.39 
  -2   0 -12   61.51    3.44 
   0  -2  12   66.28    3.65 
   1   2 -12   24.64    1.52 
  -2   1  12   24.36    1.58 
  -2   1 -12   20.11    1.58 
  -1  -2 -12   24.84    1.59 
   2  -1  12   23.38    1.53 
   2  -1 -12   21.58    1.61 
   1   2 -12   25.16    1.53 
  -1  -2  12   24.59    1.70 
  -1  -2  12   23.58    1.52 
   2  -1  12   23.84    1.68 
   1   2  12   23.87    1.66 
   1   2  12   23.37    1.50 
  -2   1  12   27.54    1.45 
  -1  -2 -12   25.43    1.60 
   2  -1 -12   22.72    1.66 
  -2   1 -12   24.17    1.62 
  -2   2  12   47.51    2.41 
   2  -2 -12   44.41    2.78 
   2   2  12   48.27    2.88 
   2   2 -12   47.05    2.64 
   2  -2  12   43.57    2.59 
  -2   2 -12   38.29    2.68 
  -2   2  12   49.32    2.73 
  -2   2 -12   42.27    2.72 
  -2  -2 -12   49.21    2.75 
   2  -2  12   55.11    3.01 
  -2  -2 -12   47.50    2.75 
   2  -2 -12   46.69    2.81 
   2   2  12   50.68    2.59 
   2  -3  12   14.32    1.36 
  -3  -2  12   14.50    1.28 
   2  -3  12   11.90    1.25 
  -3  -2 -12   13.41    1.24 
  -2   3 -12   13.61    1.18 
  -3  -2  12   14.55    1.17 
   2  -3 -12   13.83    1.26 
  -3  -2 -12   13.75    1.23 
  -2   3  12   16.98    1.19 
  -2   3 -12   12.20    1.19 
   3   2  12   13.30    1.19 
   3   2  12   13.41    1.16 
   2  -3 -12   12.29    1.19 
  -2   3  12   14.32    1.06 
  -3  -1 -12    5.66    0.84 
  -3  -1  12    5.65    0.75 
   3   1 -12    5.46    0.82 
  -1   3  12    6.46    0.83 
   3   1  12    4.80    0.70 
  -3  -1 -12    5.36    0.82 
  -1   3  12    4.91    0.68 
   1  -3  12    4.65    0.90 
   3   1 -12    6.29    0.82 
   1  -3  12    5.81    0.86 
  -1   3  12    4.30    0.79 
   1  -3 -12    5.81    0.77 
   1  -3 -12    6.13    0.84 
  -1   3  12    3.28    0.68 
  -3  -1  12    5.77    0.81 
   3   1  12    5.92    0.81 
  -3   0  12   18.66    1.27 
   0   3  12   21.34    1.43 
   0  -3  12   20.38    1.49 
   0   3  12   21.27    1.30 
   3   0  12   23.14    1.40 
   3   0 -12   19.47    1.52 
   3   0 -12   19.04    1.50 
   3   0  12   18.14    1.42 
  -3   0  12   20.09    1.42 
  -3   0 -12   18.65    1.47 
  -3   0 -12   17.60    1.46 
   0   3  12   17.11    1.46 
   0  -3 -12   17.76    1.36 
   0  -3 -12   19.26    1.37 
   0  -3  12   19.85    1.60 
   0   3  12   19.85    1.41 
   1   3  12    5.45    0.87 
   3  -1  12    6.85    0.85 
  -3   1 -12    4.72    0.84 
  -3   1 -12    4.46    0.83 
   1   3  12    4.52    0.74 
   3  -1  12    6.07    0.76 
  -1  -3 -12    7.57    0.81 
  -3   1  12    5.57    0.68 
  -3   1  12    6.97    0.82 
  -1  -3  12    4.72    0.76 
  -1  -3  12    4.80    0.86 
   3  -1 -12    4.59    0.90 
   3  -1 -12    6.14    0.96 
  -1  -3 -12    7.44    0.81 
  -2  -3 -12   15.40    1.22 
  -3   2 -12   11.88    1.16 
   2   3  12   12.22    1.17 
   3  -2  12   14.10    1.27 
  -3   2 -12   11.98    1.23 
   3  -2  12   13.64    1.14 
   3  -2 -12   13.72    1.36 
   3  -2 -12   14.59    1.44 
  -2  -3 -12   17.85    1.25 
  -3   2  12   15.44    1.17 
   2   3  12   13.45    1.28 
  -3   2  12   12.46    1.10 
   3   3  12    4.58    0.79 
  -3   3 -12    5.15    0.79 
   3  -3  12    5.59    0.89 
  -3   3  12    5.42    0.71 
   3  -3 -12    4.72    0.92 
  -3  -3 -12    5.94    0.90 
  -3   3  12    5.34    0.79 
  -3   3 -12    3.21    0.71 
   3  -3 -12    5.84    0.99 
  -3  -3 -12    6.25    0.93 
   3   3  12    5.24    0.93 
   3  -3  12    6.28    1.02 
   3  -4  12   10.33    1.32 
   3  -4 -12    9.52    1.17 
  -4  -3  12   11.83    1.31 
   3  -4  12   10.15    1.17 
   4   3  12    7.96    1.08 
   3  -4 -12    8.91    1.18 
  -4  -3  12   10.71    1.13 
  -4  -3 -12    9.94    1.35 
  -4  -3 -12   11.01    1.31 
  -3   4  12   10.40    1.10 
   4   3  12    9.27    1.21 
  -3   4  12   10.88    0.99 
   2  -4  12   32.84    2.35 
  -4  -2 -12   35.61    2.32 
   2  -4 -12   29.03    2.06 
   4   2  12   34.29    2.21 
  -2   4  12   33.88    1.90 
  -2   4  12   34.59    2.13 
   2  -4 -12   29.32    2.08 
  -4  -2  12   32.50    2.26 
   4   2  12   29.45    1.97 
  -4  -2 -12   29.93    2.28 
   2  -4  12   32.37    2.15 
  -4  -2  12   31.78    2.03 
  -4  -1  12   13.20    1.14 
   1  -4 -12   11.66    1.14 
  -1   4  12   13.06    1.12 
   4   1 -12   12.24    1.29 
  -1   4  12   13.42    1.16 
  -4  -1 -12   13.48    1.40 
   4   1 -12   13.26    1.29 
   4   1  12   12.53    1.07 
  -4  -1 -12   14.91    1.45 
  -1   4  12   13.10    1.20 
   1  -4  12   12.38    1.37 
  -1   4  12   12.64    1.08 
   4   1  12   13.01    1.15 
  -4  -1  12   11.11    1.15 
   1  -4  12   12.53    1.23 
   1  -4 -12   12.40    1.10 
   0  -4 -12   32.86    1.95 
  -4   0 -12   29.54    2.11 
   0   4  12   31.97    1.81 
  -4   0  12   31.84    2.05 
   4   0 -12   33.50    2.18 
   0  -4  12   30.22    2.00 
   0   4  12   30.57    2.14 
  -4   0  12   30.00    1.83 
  -4   0 -12   28.54    2.10 
   0  -4 -12   29.97    1.93 
   4   0 -12   30.00    2.14 
   4   0  12   27.37    2.00 
   0  -4  12   30.87    2.19 
   0   4  12   29.88    1.98 
   0   4  12   34.13    2.11 
   4   0  12   31.90    1.89 
  -1  -4 -12   12.42    1.06 
  -1  -4  12   12.22    1.30 
  -1  -4 -12   12.68    1.09 
   4  -1 -12   12.52    1.24 
  -4   1 -12   13.60    1.21 
   4  -1  12   14.32    1.18 
  -4   1 -12   11.26    1.15 
   1   4  12   11.48    1.17 
   1   4  12   11.35    1.32 
  -4   1  12   12.31    1.09 
  -4   1  12   12.17    1.03 
  -1  -4  12   13.51    1.22 
   4  -1 -12   10.50    1.26 
  -2  -4 -12   35.74    2.16 
   2   4  12   34.28    2.21 
  -4   2  12   36.88    2.20 
   4  -2 -12   30.61    2.27 
  -4   2  12   34.14    1.93 
   4  -2  12   33.14    2.05 
   4  -2  12   34.26    2.27 
   2   4  12   34.61    2.44 
  -4   2 -12   33.03    2.17 
  -4   2 -12   32.88    2.18 
   4  -2 -12   33.16    2.34 
  -2  -4 -12   33.75    2.14 
   4  -3  12   10.39    1.26 
  -4   3  12   10.60    1.07 
   4  -3 -12    7.13    1.12 
  -4   3  12   11.51    0.99 
   4  -3  12    9.18    1.02 
  -4   3 -12    9.22    1.03 
   3   4  12    8.46    1.11 
   3   4  12   12.24    1.41 
  -4   3 -12    9.76    1.02 
  -3  -4 -12   11.63    1.17 
  -3  -4 -12    8.23    1.09 
   4  -3 -12   10.17    1.20 
   4  -4  12   16.72    1.51 
  -4   4  12   17.35    1.28 
  -4  -4  12   18.51    1.40 
   4   4  12   17.66    1.58 
  -4  -4 -12   17.05    1.60 
  -4  -4 -12   18.14    1.68 
   4  -4 -12   16.38    1.57 
   4  -5 -12    3.21    0.95 
   5   4  12    3.00    0.99 
  -4   5  12    4.67    0.80 
  -5  -4  12    4.62    0.86 
   4  -5  12    4.34    0.96 
  -5  -4 -12    4.05    0.97 
   3  -5  12    3.90    0.92 
  -5  -3 -12    3.75    0.92 
   3  -5 -12    3.92    0.85 
  -3   5  12    3.17    0.71 
   5   3  12    2.45    0.82 
  -5  -3  12    3.12    0.80 
   2  -5 -12    9.24    1.06 
  -5  -2 -12   11.30    1.28 
  -5  -2  12    9.15    1.26 
   2  -5 -12    8.97    1.02 
  -5  -2 -12    9.26    1.25 
   5   2  12   10.26    1.10 
   2  -5  12    9.60    1.12 
  -2   5  12    9.31    1.10 
  -2   5  12   10.07    1.02 
  -5  -2  12   11.80    1.26 
   5   2  12    7.21    1.06 
  -1   5  12    2.33    0.64 
  -1   5  12    3.86    0.85 
  -1   5  12    4.12    0.78 
  -1   5  12    3.54    0.78 
   5   1  12    2.46    0.65 
   1  -5  12    4.03    0.80 
   5   1 -12    3.13    0.83 
  -5  -1 -12    4.16    0.89 
  -5  -1  12    3.88    0.81 
   5   1  12    4.63    0.83 
   1  -5 -12    3.07    0.68 
   1  -5  12    3.28    0.86 
  -5  -1 -12    3.68    0.84 
  -5  -1  12    4.85    0.83 
   1  -5 -12    2.56    0.64 
   0  -5  12    8.82    1.07 
   0   5  12    9.89    1.04 
   5   0 -12    8.26    1.07 
   0  -5 -12    9.43    0.92 
   0  -5  12    7.73    1.12 
  -5   0 -12    8.66    1.10 
   5   0  12   10.77    1.02 
   5   0  12    9.63    1.04 
   0  -5 -12    8.75    1.06 
  -5   0 -12    7.83    1.04 
  -5   0  12    8.42    1.08 
   0  -5 -12    9.20    0.96 
   0   5  12    8.49    1.01 
   0   5  12    8.87    1.11 
  -5   0  12    9.26    1.00 
   5   0 -12    7.97    1.06 
   1   5  12    3.26    0.78 
  -1  -5 -12    4.11    0.69 
  -5   1  12    4.20    0.73 
  -1  -5  12    3.77    0.78 
  -5   1 -12    4.20    0.82 
  -5   1 -12    4.35    0.81 
   5  -1  12    3.99    0.70 
   5  -1 -12    3.81    0.84 
  -1  -5 -12    4.32    0.74 
   5  -1  12    3.29    0.74 
   5  -1 -12    2.85    0.83 
  -1  -5  12    3.49    0.81 
  -1  -5 -12    3.67    0.82 
   1   5  12    4.77    0.82 
   1   5  12    3.08    0.81 
  -5   1  12    3.76    0.77 
  -5   2  12    9.86    0.99 
   2   5  12    7.84    1.05 
  -2  -5 -12    9.08    1.04 
   5  -2  12   10.15    1.02 
   5  -2 -12    6.39    1.09 
  -5   2 -12    9.43    1.04 
  -5   2 -12    8.54    1.04 
   5  -2  12   10.51    1.14 
   3   5  12    2.96    0.82 
  -5   3 -12    2.48    0.71 
  -5   3  12    2.98    0.68 
   5  -3  12    2.58    0.74 
   5  -3 -12    2.21    0.81 
   5  -4  12    4.31    0.91 
  -5   4  12    4.43    0.75 
   4   5  12    4.93    1.00 
   5  -4 -12    4.07    0.91 
   5  -5 -12    1.75    0.77 
   5   5  12    3.64    0.96 
  -5   5  12    2.55    0.75 
  -5  -5  12    2.09    0.78 
   5  -5  12    2.25    0.86 
  -6  -4  12   10.03    1.22 
   6   4  12   11.34    1.36 
  -4   6  12   12.54    1.22 
   4  -6 -12   11.01    1.34 
   4  -6  12    9.90    1.33 
   3  -6 -12    2.94    0.80 
  -3   6  12    2.73    0.75 
   6   3  12    1.40    0.85 
  -6  -3  12    3.10    0.89 
   3  -6  12    1.49    0.88 
  -6  -3 -12    2.14    0.81 
   2  -6  12   14.02    1.44 
   6   2  12   13.78    1.33 
  -2   6  12   14.80    1.26 
  -6  -2 -12   14.10    1.48 
   2  -6 -12   13.66    1.34 
  -6  -2  12   17.03    1.43 
  -1   6  12    4.66    0.87 
   6   1  12    4.38    0.81 
   1  -6  12    4.40    0.88 
  -6  -1 -12    3.76    0.87 
  -1   6  12    5.32    0.82 
  -6  -1  12    4.86    0.91 
   0  -6  12   18.60    1.48 
   0   6  12   17.29    1.43 
  -6   0 -12   17.58    1.53 
  -6   0  12   19.63    1.45 
   6   0  12   19.48    1.41 
   6   0 -12   19.30    1.66 
   0   6  12   15.94    1.43 
   1   6  12    6.69    1.00 
   6  -1  12    6.44    0.86 
  -6   1 -12    4.13    0.86 
   6  -1 -12    3.95    0.93 
  -1  -6  12    5.13    0.88 
  -6   1  12    6.73    0.89 
   1   6  12    3.90    0.86 
   6  -2 -12   18.20    1.64 
   6  -2  12   15.61    1.30 
  -6   2  12   14.57    1.25 
  -6   2 -12   13.94    1.33 
   2   6  12   14.80    1.39 
   2   6  12   15.60    1.42 
   6  -3 -12    3.81    0.93 
  -6   3 -12    3.43    0.77 
  -6   3  12    4.14    0.80 
   6  -3  12    4.30    0.84 
   3   6  12    4.40    0.92 
   6  -4 -12    9.61    1.28 
  -6   4 -12    9.55    1.15 
   4   6  12   11.77    1.33 
   6  -4  12   10.12    1.12 
  -6   4  12   13.07    1.17 
  -7  -3 -12    0.17    0.81 
  -3   7  12    0.88    0.72 
   3  -7  12    1.97    0.91 
  -7  -3  12    1.74    0.89 
  -7  -2 -12    1.74    0.88 
  -7  -2  12    1.79    0.83 
   2  -7  12    2.31    0.88 
  -2   7  12    1.80    0.78 
  -7  -1 -12    1.34    0.82 
   1  -7  12    2.54    0.91 
  -7  -1  12    3.80    0.83 
  -1   7  12    2.12    0.86 
  -1   7  12    2.13    0.73 
  -7   0 -12    2.74    0.84 
   7   0 -12    2.15    0.83 
   0   7  12    3.06    0.93 
  -7   0  12    2.61    0.79 
   0  -7  12    3.01    0.85 
   0   7  12    3.20    0.82 
  -1  -7  12    2.15    0.80 
  -7   1  12    2.45    0.73 
   1   7  12    2.69    0.90 
   1   7  12    1.63    0.78 
  -7   1 -12    1.73    0.75 
   7  -1 -12    2.36    0.80 
  -7   2  12    2.39    0.73 
   7  -2 -12    1.71    0.89 
  -2  -7 -12    0.89    0.66 
  -7   2 -12    1.51    0.69 
   2   7  12    2.88    0.86 
  -7   3 -12    1.01    0.72 
   3   7  12    2.94    0.92 
   7  -3 -12    1.42    0.91 
  -7   3  12    2.57    0.76 
   0   0  13   21.19    1.52 
   0   0 -13   23.02    1.49 
   0   0  13   23.09    1.41 
   0   0 -13   23.63    1.50 
  -1   0 -13   76.57    4.04 
   1   0 -13   75.31    3.99 
  -1   0 -13   76.21    4.00 
  -1   0  13   69.40    4.10 
   0  -1  13   72.82    4.18 
   1   0  13   74.65    4.19 
   0   1  13   68.51    3.71 
   0  -1 -13   81.11    4.05 
   0  -1  13   71.72    3.73 
   1   0 -13   76.77    4.02 
   0   1 -13   74.59    3.97 
   0   1 -13   75.58    4.01 
  -1   0  13   72.68    3.69 
   0  -1 -13   75.46    4.00 
   1   0  13   71.83    3.75 
   0   1  13   74.41    4.16 
   1   1 -13   -0.04    0.39 
  -1   1  13   -0.11    0.38 
   1   1  13   -0.28    0.41 
  -1  -1 -13    0.03    0.42 
  -1  -1 -13   -0.35    0.41 
   1  -1  13   -0.44    0.41 
  -1  -1  13   -0.40    0.37 
   1  -1  13    0.54    0.44 
  -1   1  13    0.03    0.37 
   1  -1 -13   -0.55    0.35 
  -1  -1  13   -0.06    0.41 
  -1   1 -13   -0.43    0.38 
   1   1  13   -0.50    0.38 
   1  -1 -13   -0.47    0.46 
  -1   1 -13    0.58    0.43 
   1   1 -13    0.06    0.39 
   2   1  13   61.37    3.09 
   1  -2 -13   56.49    3.27 
   2   1  13   60.37    3.42 
   1  -2 -13   58.12    3.27 
   2   1 -13   59.59    3.24 
   2   1 -13   59.29    3.25 
  -2  -1 -13   61.92    3.30 
  -1   2  13   53.00    3.01 
  -1   2 -13   60.31    3.26 
  -2  -1 -13   59.52    3.30 
  -1   2  13   54.53    3.36 
   1  -2  13   57.49    3.49 
   1  -2  13   51.04    3.07 
  -1   2 -13   62.69    3.28 
  -1   2  13   58.73    2.89 
  -1   2  13   59.98    3.28 
   0   2  13   20.70    1.38 
   2   0 -13   22.49    1.60 
   0  -2  13   22.07    1.61 
   0   2 -13   24.50    1.49 
   2   0  13   21.39    1.54 
   0  -2  13   18.86    1.41 
  -2   0 -13   19.54    1.47 
   0  -2 -13   25.73    1.52 
   2   0  13   21.16    1.42 
   2   0 -13   19.53    1.45 
   0   2  13   21.92    1.54 
   0   2 -13   22.29    1.45 
   0  -2 -13   20.68    1.49 
  -2   0 -13   21.93    1.58 
  -1  -2 -13   56.36    3.24 
  -1  -2  13   58.91    3.05 
  -2   1 -13   57.19    3.27 
   2  -1 -13   56.12    3.29 
  -2   1 -13   61.85    3.31 
   2  -1  13   59.79    3.43 
   2  -1 -13   53.83    3.27 
   1   2  13   54.79    3.04 
  -1  -2  13   57.49    3.40 
   1   2 -13   60.38    3.19 
   1   2 -13   67.07    3.25 
  -1  -2 -13   67.21    3.32 
  -2   1  13   52.20    3.24 
   2  -1  13   59.49    3.07 
  -2   1  13   56.63    2.87 
   1   2  13   53.67    3.38 
  -2  -2 -13   11.59    1.07 
   2   2  13   10.77    0.98 
  -2   2  13   10.71    0.94 
   2  -2 -13   10.82    1.11 
  -2  -2 -13    9.71    0.96 
   2  -2  13   11.85    1.20 
  -2   2 -13    9.79    0.98 
   2  -2 -13   10.49    1.05 
   2   2  13    9.67    1.01 
   2  -2  13   10.72    0.99 
  -2   2  13   10.14    0.89 
  -2   2 -13   10.22    1.00 
   3   2  13   38.80    2.23 
   2  -3  13   38.06    2.31 
   2  -3  13   36.39    2.55 
   2  -3 -13   36.96    2.39 
  -2   3  13   40.00    2.37 
  -3  -2 -13   42.04    2.44 
  -2   3 -13   34.22    2.34 
  -3  -2 -13   44.24    2.47 
   3   2  13   41.04    2.50 
  -2   3  13   38.28    2.10 
   2  -3 -13   36.52    2.36 
   3   1 -13   -0.35    0.46 
   1  -3 -13   -0.26    0.50 
  -1   3  13   -0.09    0.45 
   3   1  13   -0.54    0.43 
   3   1 -13    0.10    0.49 
  -1   3  13    0.12    0.46 
   1  -3 -13    0.10    0.45 
  -3  -1  13    0.08    0.44 
  -1   3  13   -0.10    0.45 
  -3  -1 -13   -0.26    0.46 
  -1   3  13   -0.37    0.41 
  -3  -1  13    0.35    0.49 
   1  -3  13   -0.31    0.59 
   3   1  13   -0.34    0.41 
  -3  -1 -13   -0.13    0.52 
   1  -3  13   -0.05    0.53 
   0   3  13   43.62    2.58 
   0  -3  13   42.91    2.63 
  -3   0  13   45.80    2.44 
  -3   0  13   47.81    2.76 
  -3   0 -13   45.62    2.80 
   0  -3 -13   50.50    2.75 
   0  -3  13   49.00    3.00 
   3   0 -13   47.83    2.82 
   3   0  13   50.36    2.87 
  -3   0 -13   46.46    2.79 
   0  -3 -13   50.59    2.75 
   3   0  13   46.98    2.58 
   3   0 -13   44.43    2.78 
   0   3  13   47.98    2.89 
   3  -1  13   -0.68    0.41 
  -1  -3 -13   -0.38    0.45 
  -1  -3 -13   -0.47    0.42 
   1   3  13   -0.36    0.52 
  -3   1  13    0.08    0.45 
   1   3  13   -0.27    0.47 
   3  -1  13   -0.01    0.49 
  -3   1 -13   -0.81    0.43 
  -3   1  13   -0.12    0.43 
  -1  -3  13   -0.94    0.48 
  -3   1 -13   -0.34    0.48 
  -1  -3  13    0.25    0.56 
   3  -1 -13   -0.44    0.55 
   3  -1 -13   -0.59    0.50 
  -3   2  13   40.86    2.39 
  -3   2 -13   36.92    2.43 
  -3   2  13   38.99    2.11 
  -2  -3 -13   41.77    2.41 
  -2  -3 -13   40.48    2.40 
   3  -2 -13   38.91    2.52 
   3  -2  13   40.97    2.55 
   3  -2 -13   35.89    2.48 
  -3   2 -13   35.83    2.40 
   2   3  13   40.11    2.55 
   3  -2  13   41.07    2.33 
   2   3  13   39.91    2.32 
  -3   3  13    0.34    0.48 
  -3   3 -13   -1.03    0.52 
  -3  -3 -13    0.42    0.62 
   3  -3 -13   -1.04    0.55 
  -3  -3 -13    0.27    0.51 
   3   3  13   -0.46    0.47 
  -3   3  13   -0.13    0.46 
  -3   3 -13   -0.15    0.55 
   3  -3 -13   -0.32    0.61 
   3   3  13   -0.54    0.51 
   3  -3  13   -0.46    0.54 
   3  -3  13   -0.47    0.56 
   3  -4  13   20.74    1.64 
   3  -4 -13   17.78    1.62 
  -3   4  13   24.78    1.47 
  -4  -3  13   23.20    1.66 
  -4  -3 -13   22.39    1.78 
   4   3  13   21.33    1.59 
   4   2  13   10.03    1.14 
   4   2  13   11.03    1.05 
  -2   4  13   10.57    1.06 
  -4  -2  13   11.16    1.13 
   2  -4  13    9.08    1.12 
   2  -4 -13   10.62    1.10 
   2  -4 -13   10.13    1.08 
  -4  -2 -13    9.86    1.21 
  -4  -2 -13    9.71    1.16 
   2  -4  13   11.53    1.33 
  -2   4  13   12.50    1.05 
  -4  -2  13   12.37    1.27 
   4   1  13   34.78    2.01 
   4   1 -13   33.28    2.14 
  -4  -1  13   31.29    1.89 
  -4  -1 -13   31.82    2.16 
   1  -4 -13   31.36    2.03 
   4   1 -13   30.74    2.12 
   1  -4  13   32.90    2.15 
  -1   4  13   32.29    2.08 
   1  -4  13   30.51    2.31 
  -1   4  13   31.25    2.00 
  -1   4  13   34.05    1.89 
  -1   4  13   34.32    2.23 
   1  -4 -13   33.39    2.03 
  -4  -1 -13   28.41    2.14 
  -4  -1  13   32.62    2.13 
   4   1  13   31.69    2.12 
   4   0  13    8.74    0.92 
  -4   0 -13    9.11    1.10 
   0   4  13    7.66    0.93 
  -4   0  13   10.61    0.98 
  -4   0 -13   11.41    1.18 
   4   0 -13    9.28    1.14 
   0  -4 -13    9.49    0.90 
  -4   0  13    9.25    1.02 
   0  -4 -13    8.71    0.94 
   0   4  13    9.73    0.93 
   4   0  13    8.35    0.98 
   0  -4  13    7.13    1.00 
   0   4  13   11.32    1.09 
   4   0 -13    8.31    1.10 
   0  -4  13   11.13    1.28 
   0   4  13    8.08    1.07 
  -4   1 -13   29.37    2.11 
  -1  -4  13   32.70    2.26 
  -1  -4 -13   30.89    1.98 
   4  -1  13   34.21    1.95 
   4  -1 -13   28.12    2.21 
   1   4  13   31.79    2.02 
  -4   1 -13   31.61    2.14 
  -1  -4 -13   35.25    2.02 
   1   4  13   30.59    2.17 
   4  -1 -13   33.35    2.25 
  -4   1  13   30.65    1.81 
  -4   1  13   30.98    2.02 
  -1  -4  13   27.71    1.98 
   2   4  13    7.01    1.11 
  -2  -4 -13   10.89    1.02 
   4  -2  13   10.77    1.14 
  -2  -4 -13   11.55    1.01 
   4  -2 -13    8.75    1.25 
   4  -2  13   11.37    1.05 
  -4   2 -13   10.38    1.16 
   2   4  13    8.45    1.01 
  -4   2  13   12.17    1.03 
  -4   2 -13    7.93    1.10 
   4  -2 -13   11.32    1.31 
  -4   2  13   10.36    1.01 
  -4   3  13   21.56    1.43 
  -4   3 -13   24.00    1.69 
  -3  -4 -13   22.18    1.66 
   4  -3 -13   24.29    1.90 
   3   4  13   20.20    1.59 
   4  -3  13   19.97    1.53 
  -4   3 -13   22.51    1.66 
  -4   4  13    5.37    0.79 
   4  -4 -13    5.11    1.01 
   4  -4  13    3.36    0.86 
  -4  -4 -13    4.20    0.93 
   4   4  13    5.02    0.93 
  -5  -4 -13   10.47    1.46 
   4  -5 -13   11.07    1.30 
  -5  -4  13   10.62    1.21 
   4  -5  13   10.17    1.28 
   5   4  13   11.13    1.32 
  -4   5  13   12.27    1.13 
  -3   5  13   -0.50    0.53 
  -5  -3  13    0.28    0.72 
  -5  -3 -13   -1.98    0.72 
   5   3  13   -0.62    0.60 
   3  -5  13    0.69    0.69 
   3  -5 -13   -0.35    0.58 
   2  -5 -13   19.09    1.62 
   2  -5  13   18.98    1.59 
  -2   5  13   21.99    1.43 
  -5  -2  13   19.38    1.51 
   5   2  13   18.71    1.46 
  -5  -2 -13   17.62    1.74 
  -5  -1  13    0.37    0.59 
   5   1 -13    0.59    0.72 
   1  -5  13   -0.74    0.67 
  -1   5  13   -0.73    0.47 
   1  -5 -13   -0.13    0.49 
   5   1  13   -0.07    0.48 
  -5  -1 -13   -0.73    0.66 
  -1   5  13   -0.30    0.51 
   0   5  13   22.84    1.52 
   0   5  13   23.57    1.73 
   5   0  13   22.22    1.52 
   0  -5 -13   23.58    1.58 
  -5   0 -13   24.75    1.88 
   0  -5 -13   20.67    1.54 
   0  -5  13   20.46    1.68 
   5   0 -13   22.81    1.88 
   0  -5 -13   24.34    1.69 
  -5   0  13   24.64    1.57 
   5  -1 -13   -0.51    0.60 
  -5   1 -13   -0.67    0.55 
  -1  -5  13    0.20    0.64 
  -5   1  13    0.60    0.53 
   5  -1  13    0.17    0.49 
  -1  -5 -13   -0.15    0.49 
   1   5  13   -0.26    0.73 
  -1  -5 -13   -0.78    0.47 
  -1  -5  13    0.43    0.69 
  -2  -5 -13   21.82    1.50 
   5  -2 -13   19.55    1.77 
  -5   2  13   20.00    1.35 
   2   5  13   18.88    1.63 
  -5   2 -13   16.58    1.51 
   5  -2  13   18.42    1.43 
   5  -3  13   -0.84    0.59 
   5  -3 -13   -0.90    0.68 
  -5   3  13    0.07    0.51 
  -5   3 -13   -0.36    0.55 
   3   5  13   -0.91    0.75 
   5  -4  13    9.35    1.07 
   5  -4 -13    8.90    1.28 
   4   5  13   11.18    1.33 
  -5   4  13   11.75    1.06 
  -5   5  13   -0.39    0.59 
   5  -5  13   -0.51    0.68 
   5   5  13   -0.68    0.86 
   5  -5 -13    0.40    0.78 
  -4   6  13    2.26    0.76 
   6   4  13    3.33    0.96 
   4  -6 -13    2.19    0.81 
  -6  -4  13    4.32    0.95 
   4  -6  13    2.24    0.88 
  -3   6  13    7.99    0.99 
   3  -6 -13    8.81    1.08 
   3  -6  13    8.80    1.25 
  -6  -3 -13    9.27    1.32 
   6   3  13    8.43    1.12 
  -6  -3  13    8.59    1.18 
  -2   6  13    3.83    0.77 
   2  -6 -13    4.49    0.80 
   6   2  13    3.32    0.82 
   2  -6  13    3.08    0.93 
  -6  -2 -13    3.11    0.96 
  -6  -2  13    2.76    0.86 
   1  -6  13   13.92    1.43 
   6   1  13   15.31    1.27 
  -1   6  13   13.98    1.22 
  -6  -1 -13   14.37    1.54 
  -1   6  13   14.30    1.33 
  -6  -1  13   15.18    1.28 
   1  -6 -13   14.23    1.21 
   0   6  13    4.73    0.95 
   0  -6  13    5.48    1.00 
   0   6  13    5.91    0.93 
  -6   0  13    6.37    0.91 
   6   0 -13    4.89    1.02 
   6   0  13    6.62    0.91 
  -6   0 -13    4.76    0.98 
   6  -1  13   15.43    1.26 
   6  -1 -13   13.58    1.48 
  -1  -6  13   15.78    1.40 
  -6   1 -13   14.59    1.47 
  -6   1  13   16.20    1.25 
   1   6  13   15.64    1.36 
   1   6  13   12.99    1.39 
   6  -2  13    3.37    0.72 
   6  -2 -13    1.79    0.86 
  -6   2  13    4.68    0.81 
  -6   2 -13    3.85    0.87 
   2   6  13    3.49    0.92 
   3   6  13    7.77    1.21 
  -6   3 -13    8.09    1.11 
   6  -3 -13    8.98    1.28 
   6  -3  13   10.41    1.06 
  -6   3  13   10.41    1.04 
   4   6  13    4.03    0.93 
   6  -4 -13    2.38    0.91 
  -6   4  13    2.41    0.73 
   6  -4  13    2.38    0.76 
  -1   7  13   -0.86    0.60 
  -7  -1  13    0.11    0.66 
  -1   7  13    0.13    0.67 
  -7  -1 -13   -0.42    0.68 
   1  -7  13   -0.84    0.74 
   0  -7  13    9.72    1.22 
   0   7  13    7.08    1.05 
  -7   0  13    8.28    1.03 
   0   7  13    7.44    1.09 
   7   0 -13    6.71    1.15 
  -7   0 -13    8.23    1.21 
  -1  -7  13    0.77    0.74 
   7  -1 -13   -1.04    0.67 
  -7   1 -13   -0.56    0.64 
   1   7  13   -0.19    0.73 
   1   7  13   -1.51    0.65 
  -7   1  13   -0.78    0.54 
   0   0  14    5.57    0.69 
   0   0 -14    5.89    0.74 
   0   0 -14    5.03    0.71 
   0   0  14    6.02    0.78 
   0  -1 -14    1.19    0.49 
  -1   0 -14    0.45    0.47 
   0  -1  14    0.56    0.45 
  -1   0  14    0.73    0.42 
   0  -1 -14    1.16    0.49 
   0   1  14    0.59    0.47 
   0   1 -14    0.53    0.46 
   1   0  14    1.45    0.51 
  -1   0 -14    0.97    0.51 
  -1   0  14    0.82    0.46 
   1   0 -14    1.08    0.49 
   1   0 -14    1.09    0.48 
   0   1  14    0.92    0.46 
   0  -1  14    0.68    0.45 
   1   0  14    0.53    0.48 
   0   1 -14    0.63    0.45 
   1  -1 -14   27.65    1.81 
  -1   1 -14   28.94    1.81 
   1   1  14   29.99    1.77 
   1   1 -14   29.03    1.80 
  -1  -1  14   27.33    1.84 
   1   1  14   29.91    1.91 
  -1   1  14   29.13    1.68 
  -1  -1 -14   32.12    1.87 
  -1  -1 -14   29.81    1.83 
  -1  -1  14   25.25    1.67 
  -1   1  14   27.34    1.84 
   1  -1 -14   25.00    1.78 
   1   1 -14   30.93    1.82 
  -1   1 -14   29.04    1.81 
   1  -1  14   29.84    1.76 
   1  -1  14   28.60    1.91 
   1  -2  14    0.65    0.57 
   1  -2  14    1.92    0.62 
   2   1  14    0.63    0.52 
   1  -2 -14    0.75    0.53 
  -1   2  14    1.25    0.50 
  -1   2  14    0.22    0.43 
   2   1 -14    0.55    0.46 
  -1   2 -14    0.85    0.50 
  -1   2 -14    0.12    0.45 
   1  -2 -14    0.78    0.49 
  -2  -1 -14    0.66    0.52 
   2   1 -14    0.84    0.48 
   2   1  14    1.05    0.52 
  -2  -1 -14    0.48    0.52 
   2   0  14    2.65    0.60 
   0  -2  14    2.29    0.60 
   2   0 -14    2.10    0.61 
   0  -2 -14    2.32    0.56 
   0   2  14    2.34    0.56 
   2   0 -14    2.56    0.58 
  -2   0 -14    4.31    0.67 
   2   0  14    1.97    0.57 
   0  -2  14    3.02    0.68 
   0   2 -14    2.72    0.57 
   0   2 -14    2.17    0.56 
  -2   0 -14    2.72    0.64 
   0   2  14    2.00    0.59 
   0  -2 -14    2.22    0.59 
   2  -1 -14    1.33    0.56 
  -2   1 -14    1.06    0.50 
   1   2  14    0.79    0.49 
   2  -1 -14    0.34    0.49 
  -1  -2 -14   -0.02    0.48 
   2  -1  14    1.34    0.60 
  -2   1 -14    0.51    0.50 
  -1  -2 -14    0.45    0.51 
  -1  -2  14    0.74    0.53 
  -1  -2  14    1.13    0.53 
   1   2 -14    1.05    0.50 
   1   2  14   -0.28    0.47 
   2  -1  14    0.33    0.51 
   2  -2  14    1.95    0.68 
  -2  -2 -14    1.25    0.56 
   2   2  14    2.45    0.65 
   2  -2 -14    2.14    0.61 
   2  -2 -14    1.69    0.63 
   2   2  14    1.83    0.58 
  -2   2  14    1.35    0.49 
  -2   2 -14    0.37    0.51 
   2  -2  14    1.96    0.68 
  -2   2  14    1.96    0.57 
  -2  -2 -14    1.62    0.58 
  -2   2 -14    1.17    0.56 
  -2   3  14    0.67    0.48 
  -2   3  14    0.93    0.53 
   3   2  14    0.25    0.51 
   2  -3 -14    1.24    0.64 
   2  -3  14    1.17    0.58 
  -3  -2 -14    0.50    0.58 
  -3  -1 -14   18.43    1.40 
  -1   3  14   16.22    1.37 
   3   1  14   17.71    1.32 
   1  -3 -14   19.76    1.41 
   3   1 -14   18.17    1.35 
  -1   3  14   20.22    1.27 
   1  -3 -14   18.53    1.35 
   3   1  14   18.36    1.41 
  -1   3  14   15.39    1.25 
   3   1 -14   17.17    1.37 
  -3  -1 -14   18.48    1.43 
   1  -3  14   20.93    1.60 
   1  -3  14   19.30    1.41 
   0  -3  14    1.60    0.60 
   0   3  14    0.94    0.54 
  -3   0 -14    0.96    0.60 
   3   0  14    0.63    0.57 
   0  -3 -14    1.45    0.57 
   3   0  14    1.59    0.58 
   0  -3 -14    1.40    0.53 
  -3   0  14    1.53    0.58 
  -3   0 -14    0.80    0.55 
   0   3  14    1.08    0.54 
   3   0 -14    1.41    0.58 
   3   0 -14    1.26    0.58 
  -3   0  14    1.78    0.51 
   0  -3  14    1.41    0.66 
  -1  -3 -14   20.31    1.38 
  -1  -3  14   17.50    1.31 
  -1  -3 -14   18.64    1.39 
  -3   1  14   18.85    1.23 
   1   3  14   17.23    1.45 
  -3   1  14   19.63    1.38 
  -3   1 -14   18.96    1.45 
   3  -1 -14   16.36    1.38 
   3  -1  14   17.45    1.42 
   3  -1 -14   18.24    1.45 
  -3   1 -14   17.57    1.39 
   1   3  14   17.89    1.35 
   3  -1  14   20.79    1.40 
  -2  -3 -14    0.30    0.49 
  -3   2  14    0.28    0.49 
   2   3  14    1.14    0.62 
  -3   2  14    1.27    0.51 
  -2  -3 -14    0.36    0.53 
  -3   2 -14    0.44    0.54 
   3  -2 -14   -0.43    0.54 
  -3   2 -14    0.35    0.53 
   3  -2  14    1.19    0.56 
   3  -3  14   13.47    1.24 
  -3   3 -14   13.94    1.29 
  -3  -3 -14   16.76    1.32 
  -3   3  14   14.66    1.11 
   3   3  14   15.68    1.25 
   3  -3 -14   14.56    1.33 
   3  -4  14    0.56    0.64 
   4   3  14    0.31    0.59 
  -4  -3 -14    1.03    0.69 
  -3   4  14    1.30    0.57 
   3  -4 -14    0.18    0.62 
  -4  -2  14    2.46    0.68 
  -2   4  14    3.12    0.64 
  -4  -2 -14    1.59    0.73 
   2  -4 -14    2.18    0.66 
   4   2  14    2.20    0.63 
   2  -4  14    1.84    0.69 
  -4  -1 -14    0.60    0.62 
   1  -4  14    1.68    0.69 
   4   1 -14    0.97    0.63 
  -4  -1  14    2.18    0.68 
  -1   4  14    0.89    0.58 
   4   1  14    1.23    0.63 
  -4  -1  14    0.56    0.53 
   1  -4 -14    1.56    0.57 
  -1   4  14    0.66    0.54 
  -1   4  14    0.39    0.54 
   0   4  14    1.77    0.67 
   4   0 -14    2.39    0.70 
   0  -4 -14    2.62    0.63 
  -4   0  14    1.93    0.58 
   4   0  14    2.69    0.67 
   0  -4  14    1.51    0.64 
  -4   0 -14    1.54    0.65 
  -4   0  14    1.76    0.61 
   1   4  14    0.52    0.62 
  -4   1 -14    0.26    0.57 
   4  -1  14    0.92    0.55 
  -4   1  14    1.10    0.53 
   4  -1 -14    0.39    0.63 
  -1  -4 -14    1.79    0.61 
  -1  -4  14    0.73    0.60 
  -4   2 -14    1.16    0.66 
   4  -2  14    3.13    0.72 
  -2  -4 -14    0.86    0.59 
   2   4  14    1.18    0.67 
   4  -2 -14    2.71    0.82 
  -4   2  14    2.34    0.61 
  -4   3  14    0.89    0.55 
   4  -3 -14    1.02    0.73 
  -4   3 -14   -0.40    0.62 
   3   4  14    0.93    0.63 
   4  -3  14    1.26    0.68 
  -3  -4 -14    1.16    0.64 
   4  -4 -14    2.45    0.79 
  -4   4  14    2.27    0.63 
   4  -4  14    1.87    0.69 
   4   4  14    0.46    0.66 
  -4  -4 -14    1.52    0.76 
  -4   5  14    0.66    0.61 
   5   4  14   -1.01    0.68 
   4  -5  14    0.58    0.74 
   4  -5 -14   -0.21    0.66 
  -5  -4 -14   -0.73    0.69 
  -3   5  14   10.90    1.05 
   5   3  14   10.84    1.13 
  -5  -3  14    8.42    1.13 
  -5  -3 -14    9.75    1.30 
   3  -5  14   12.09    1.29 
   3  -5 -14    7.16    1.02 
  -2   5  14    1.11    0.60 
  -5  -2 -14    1.18    0.77 
  -5  -2  14    0.83    0.65 
   2  -5 -14    0.83    0.59 
   5   2  14    1.18    0.65 
   2  -5  14    1.36    0.81 
   1  -5  14   10.22    1.24 
  -1   5  14   11.46    1.16 
   5   1  14   12.53    1.11 
  -1   5  14   14.81    1.12 
  -5  -1 -14   11.80    1.35 
   1  -5 -14   11.43    1.08 
  -5  -1  14   13.06    1.18 
   0   5  14   -0.55    0.57 
   5   0  14    0.81    0.57 
  -5   0  14    0.85    0.58 
   0  -5 -14    0.09    0.49 
   5   0 -14    0.16    0.68 
  -5   0 -14    0.39    0.68 
   0  -5  14    0.48    0.69 
   0   5  14    0.35    0.54 
  -5   1  14   12.59    1.07 
   5  -1  14   13.89    1.14 
   5  -1 -14   12.32    1.41 
  -1  -5 -14   12.29    1.11 
   1   5  14   12.93    1.25 
  -5   1 -14    9.22    1.22 
  -1  -5  14   10.67    1.22 
   5  -2  14    1.69    0.64 
   5  -2 -14   -1.11    0.71 
   2   5  14    1.02    0.73 
  -2  -5 -14    0.41    0.56 
  -5   2  14    0.96    0.61 
  -5   2 -14    0.38    0.66 
  -3  -5 -14   10.03    1.12 
   3   5  14    9.24    1.19 
   5  -3  14   11.04    1.08 
  -5   3 -14    8.86    1.22 
   5  -3 -14    8.91    1.33 
  -5   3  14   12.04    1.06 
   5  -4 -14   -1.43    0.64 
  -5   4  14    0.29    0.56 
   4   5  14   -0.44    0.66 
   5  -4  14   -0.10    0.69 
   2  -6  14    1.24    0.82 
  -2   6  14    2.10    0.66 
   6   2  14    1.38    0.69 
  -6  -2 -14   -0.03    0.84 
   2  -6 -14    1.87    0.67 
  -6  -2  14    1.46    0.75 
   1  -6  14    0.48    0.75 
  -1   6  14    0.25    0.71 
   1  -6 -14    0.67    0.57 
   6   1  14    0.49    0.65 
  -6  -1 -14   -0.10    0.75 
  -6  -1  14    0.99    0.64 
  -1   6  14   -0.16    0.58 
   6   0 -14    1.12    0.82 
  -6   0 -14    0.48    0.80 
   0   6  14    0.17    0.69 
   0   6  14    1.73    0.68 
  -6   0  14    2.63    0.71 
   6   0  14    2.46    0.71 
   0  -6  14    1.42    0.84 
   6  -1 -14   -0.02    0.73 
   1   6  14    0.18    0.73 
  -6   1 -14   -0.56    0.72 
   6  -1  14    0.51    0.61 
  -1  -6  14    0.48    0.74 
  -6   1  14    0.78    0.63 
   6  -2 -14    0.36    0.79 
  -6   2 -14   -0.08    0.72 
   6  -2  14    2.55    0.70 
   2   6  14    1.26    0.76 
  -6   2  14    1.49    0.67 
   0   0  15    3.30    0.65 
   0   0 -15    3.70    0.65 
   0   0 -15    3.08    0.64 
   0   0  15    4.08    0.63 
  -1   0  15   30.07    1.73 
   1   0  15   29.11    1.94 
   0   1  15   28.58    1.91 
   1   0 -15   29.18    1.86 
   1   0 -15   32.19    1.89 
   0   1  15   28.17    1.72 
  -1   0 -15   30.83    1.87 
   1   0  15   30.04    1.77 
   0   1 -15   28.50    1.85 
   0  -1 -15   30.21    1.88 
   0   1 -15   30.30    1.86 
   0  -1 -15   27.98    1.85 
  -1   0 -15   31.03    1.89 
   0  -1  15   31.78    1.80 
   0  -1  15   27.35    1.92 
  -1  -1 -15   27.56    1.74 
   1   1  15   27.14    1.81 
   1   1  15   26.35    1.64 
  -1   1 -15   25.62    1.71 
  -1   1 -15   25.53    1.73 
   1   1 -15   27.99    1.72 
   1  -1 -15   27.78    1.74 
   1  -1 -15   26.33    1.73 
   1  -1  15   26.10    1.81 
  -1   1  15   26.01    1.60 
  -1  -1  15   28.38    1.63 
   1  -1  15   27.33    1.66 
   1   1 -15   25.94    1.70 
  -1  -1 -15   26.47    1.74 
  -1   2 -15   20.69    1.50 
  -1   2 -15   23.09    1.55 
   1  -2 -15   24.42    1.59 
   2   1 -15   23.12    1.53 
  -1   2  15   19.85    1.41 
   2   1  15   20.10    1.45 
  -2  -1 -15   23.77    1.60 
   2   1 -15   22.77    1.53 
   1  -2  15   23.58    1.52 
   0   2  15    6.17    0.77 
   0  -2  15    7.06    0.80 
   2   0 -15    6.61    0.82 
   0  -2 -15    6.23    0.81 
  -2   0 -15    7.99    0.87 
   0   2 -15    5.97    0.78 
   0   2  15    6.51    0.86 
   2   0 -15    6.67    0.79 
   0  -2  15    6.56    0.89 
   2   0  15    5.30    0.75 
   2  -1 -15   20.66    1.52 
   1   2  15   21.46    1.43 
  -1  -2 -15   21.68    1.54 
  -2   1 -15   24.93    1.57 
   2  -1  15   20.30    1.44 
  -2   1 -15   21.02    1.53 
  -1  -2  15   23.52    1.50 
   2  -2  15    3.61    0.67 
   2  -2 -15    2.61    0.69 
   2   2  15    3.29    0.66 
  -2   2 -15    3.37    0.69 
  -2  -2 -15    3.61    0.71 
   3   2  15   16.98    1.28 
   2  -3  15   16.45    1.33 
   2  -3 -15   14.88    1.31 
  -2   3  15   15.52    1.14 
  -3  -2 -15   15.65    1.32 
  -3  -1 -15   18.60    1.44 
   1  -3 -15   20.04    1.44 
  -1   3  15   16.68    1.28 
   1  -3  15   19.24    1.42 
   3   1  15   18.94    1.36 
   3   1 -15   18.66    1.39 
   3   0  15   18.34    1.30 
   0  -3  15   19.20    1.39 
   0  -3 -15   19.03    1.35 
   0   3  15   16.98    1.25 
   3   0 -15   17.35    1.38 
  -3   0 -15   16.44    1.36 
  -1  -3  15   20.02    1.39 
   3  -1 -15   18.41    1.45 
  -1  -3 -15   19.48    1.42 
   3  -1  15   16.90    1.33 
  -3   1  15   22.37    1.33 
  -3   1 -15   20.56    1.49 
   1   3  15   17.60    1.37 
  -3   2 -15   14.80    1.26 
  -2  -3 -15   15.29    1.27 
   2   3  15   16.22    1.29 
   3  -2  15   15.84    1.28 
  -3   2  15   16.25    1.15 
   3  -2 -15   15.49    1.32 
  -3   3  15   13.44    1.04 
  -3  -3 -15   12.93    1.16 
   3  -3  15   12.57    1.16 
   3  -3 -15   12.43    1.18 
   3   3  15   12.49    1.14 
  -4  -3 -15    9.39    1.15 
   3  -4 -15    9.53    1.11 
   3  -4  15   13.10    1.20 
   4   3  15   11.12    1.13 
  -3   4  15   11.46    0.99 
   2  -4  15    2.63    0.74 
  -4  -2 -15    2.49    0.76 
   2  -4 -15    2.06    0.67 
   4   2  15    2.19    0.63 
  -2   4  15    2.97    0.66 
   4   1  15   14.93    1.18 
   1  -4  15   13.73    1.29 
  -4  -1  15   14.68    1.13 
  -1   4  15   13.38    1.09 
  -4  -1 -15   14.64    1.31 
   1  -4 -15   14.08    1.17 
  -1   4  15   13.34    1.16 
   4   1 -15   13.23    1.25 
  -4   0 -15    1.25    0.66 
   4   0  15    2.71    0.65 
   0  -4  15    1.29    0.66 
  -4   0  15    2.38    0.61 
   4   0 -15    1.09    0.63 
   0  -4 -15    2.82    0.62 
   0   4  15    2.65    0.64 
  -4   1  15   15.12    1.11 
  -1  -4 -15   15.48    1.20 
  -4   1 -15   15.73    1.33 
   4  -1 -15   14.78    1.35 
   4  -1  15   14.85    1.20 
   1   4  15   11.57    1.17 
  -4   2 -15    1.96    0.69 
  -2  -4 -15    2.81    0.66 
   2   4  15    3.04    0.69 
  -4   2  15    1.64    0.58 
   4  -2 -15    2.26    0.78 
   4  -2  15    2.67    0.69 
   4  -3 -15    9.07    1.18 
   4  -3  15   13.14    1.16 
  -4   3  15   11.21    1.01 
  -3  -4 -15   10.45    1.10 
   3   4  15    9.77    1.12 
  -4   3 -15    8.42    1.10 
   4  -4 -15    0.04    0.67 
   4   4  15    0.67    0.72 
  -4   4  15   -0.18    0.51 
  -4  -4 -15    0.31    0.66 
   4  -4  15    0.28    0.69 
   3  -5  15    4.94    0.95 
  -3   5  15    5.82    0.83 
   5   3  15    6.35    0.93 
  -5  -3 -15    5.88    1.03 
   3  -5 -15    4.87    0.87 
  -5  -2  15   10.55    1.07 
  -5  -2 -15    9.08    1.17 
   2  -5  15    7.93    1.05 
  -2   5  15    9.77    0.97 
   5   2  15    9.05    1.00 
   2  -5 -15    8.52    1.01 
  -1   5  15    7.04    0.92 
   1  -5  15    6.01    1.01 
  -1   5  15    9.18    0.94 
   5   1  15    9.49    0.98 
   1  -5 -15    9.70    0.96 
  -5  -1  15    8.62    0.97 
  -5  -1 -15    8.67    1.13 
   0  -5  15   11.63    1.22 
  -5   0 -15    9.96    1.19 
   0   5  15   10.84    1.10 
   5   0 -15   11.72    1.25 
   5   0  15   13.62    1.18 
  -5   0  15   11.52    1.06 
   0  -5 -15   10.69    1.04 
  -5   1 -15    6.98    1.06 
   5  -1 -15    7.43    1.11 
   5  -1  15    9.46    0.94 
  -5   1  15    8.88    0.96 
  -1  -5 -15    9.42    0.98 
   1   5  15    8.31    1.05 
   5  -2 -15    9.63    1.26 
   5  -2  15    9.16    0.93 
   2   5  15    7.52    1.01 
  -5   2  15   10.15    0.97 
  -5   2 -15    6.50    1.04 
  -2  -5 -15    9.92    1.06 
   3   5  15    4.21    0.90 
  -5   3 -15    3.18    0.87 
  -5   3  15    6.56    0.82 
   5  -3 -15    3.68    0.93 
   5  -3  15    5.88    0.84 
  -3  -5 -15    5.05    0.87 
   0   0 -16   38.16    2.22 
   0   0  16   35.33    2.04 
   0   1 -16    0.22    0.51 
  -1   0 -16   -0.05    0.47 
   1   0 -16    0.27    0.45 
   0  -1 -16   -0.14    0.49 
   0   1  16    0.59    0.46 
   0  -1  16    0.53    0.50 
   1   0  16    0.60    0.49 
  -1   1 -16   12.48    1.10 
   1   1 -16   10.41    1.01 
  -1  -1 -16   10.82    1.01 
   1  -1 -16   11.30    1.02 
   1  -1  16   10.33    0.95 
   1   1  16    9.94    0.95 
  -1   2 -16    0.57    0.53 
   1  -2  16    1.09    0.63 
  -2  -1 -16    0.11    0.55 
   1  -2 -16    1.53    0.59 
   2   1  16    1.17    0.58 
   2   1 -16    1.07    0.52 
   0  -2 -16   29.29    1.83 
   0   2  16   26.30    1.69 
   0  -2  16   26.22    1.73 
   2   0  16   29.40    1.72 
   2   0 -16   26.67    1.80 
  -2   0 -16   29.40    1.84 
   0   2 -16   28.18    1.79 
  -1  -2 -16    0.37    0.51 
  -2   1 -16    1.63    0.56 
   2  -1  16    0.28    0.57 
   1   2  16    0.46    0.50 
   2  -1 -16    0.62    0.51 
   2  -2 -16   26.02    1.71 
  -2  -2 -16   24.50    1.70 
  -2   2 -16   26.44    1.70 
   2   2  16   25.39    1.63 
   2  -2  16   21.35    1.58 
   3   2  16    0.14    0.58 
  -3  -2 -16    0.08    0.56 
   2  -3 -16    1.25    0.61 
   2  -3  16    0.35    0.56 
   1  -3 -16    9.47    0.99 
   3   1  16    9.97    0.96 
   1  -3  16    9.28    1.01 
   3   1 -16    9.00    0.96 
  -3  -1 -16    9.57    1.05 
   3   0  16    0.46    0.58 
   0  -3 -16    1.50    0.58 
   0   3  16    0.39    0.47 
   3   0 -16    0.87    0.56 
  -3   0 -16    1.38    0.62 
   0  -3  16    1.17    0.59 
  -1  -3 -16    8.90    0.95 
   1   3  16    8.62    0.93 
  -3   1 -16    7.63    0.95 
   3  -1 -16    8.46    0.94 
   3  -1  16    7.44    0.87 
  -2  -3 -16    1.00    0.62 
  -3   2 -16    0.36    0.55 
  -3   2  16    0.26    0.48 
   3  -2  16    1.13    0.62 
   3  -2 -16    0.81    0.59 
   2   3  16    0.81    0.60 
  -3  -3 -16    6.41    0.90 
   3   3  16    6.63    0.90 
  -3   3  16    6.18    0.77 
   3  -3  16    4.66    0.83 
   3  -3 -16    6.34    0.92 
   4   3  16    0.82    0.67 
   3  -4 -16    0.29    0.59 
  -4  -3 -16   -0.13    0.61 
   3  -4  16    0.87    0.65 
  -3   4  16    0.66    0.55 
  -2   4  16   14.40    1.11 
   4   2  16   14.41    1.21 
  -4  -2 -16   13.89    1.26 
   2  -4 -16   12.51    1.17 
   2  -4  16   11.27    1.14 
   4   1  16    0.18    0.56 
   1  -4 -16    0.74    0.56 
  -4  -1 -16    0.22    0.63 
   1  -4  16    0.58    0.68 
  -4   0 -16   17.47    1.43 
   4   0  16   18.85    1.30 
   4   0 -16   17.62    1.41 
   0  -4  16   17.36    1.35 
   0  -4 -16   17.77    1.32 
  -4   0  16   20.05    1.28 
   0   4  16   15.61    1.31 
   1   4  16    0.15    0.59 
  -4   1 -16    1.09    0.66 
   4  -1 -16    0.77    0.61 
  -4   1  16    0.89    0.55 
   4  -1  16    1.56    0.64 
  -1  -4 -16    0.34    0.53 
  -4   2 -16   13.88    1.28 
  -4   2  16   13.49    1.08 
   4  -2  16   13.60    1.18 
  -2  -4 -16   14.72    1.25 
   4  -2 -16   13.08    1.28 
   2   4  16   13.64    1.24 
  -3  -4 -16    0.68    0.60 
  -4   3  16    0.61    0.55 
   4  -3 -16    0.37    0.61 
   4  -3  16   -0.30    0.52 
   3   4  16   -0.43    0.59 
   5   0  16    0.27    0.58 
   0  -5  16   -0.35    0.62 
   5   0 -16    0.19    0.63 
   0   5  16    0.06    0.58 
  -5   0 -16   -0.26    0.59 
   0  -5 -16   -0.22    0.51 
  -5   0  16    0.50    0.56 
   0   0 -17   11.28    1.05 
   0   0  17   11.31    1.00 
   0  -1  17    4.17    0.68 
   0   1 -17    2.84    0.63 
  -1   0 -17    2.05    0.60 
   0   1  17    3.70    0.65 
   1   0 -17    2.91    0.66 
   1   0  17    3.50    0.69 
   0  -1 -17    3.57    0.68 
   1  -1 -17    2.71    0.62 
   1   1  17    2.81    0.64 
   1   1 -17    2.42    0.62 
  -1  -1 -17    2.85    0.64 
  -1   1 -17    2.16    0.62 
   1  -1  17    2.03    0.61 
  -2  -1 -17    3.60    0.72 
   1  -2 -17    3.91    0.71 
  -1   2 -17    4.02    0.72 
   2   1  17    3.35    0.69 
   2   1 -17    3.92    0.68 
   1  -2  17    3.70    0.72 
   2   0  17   11.64    1.07 
   0  -2  17   11.93    1.03 
  -2   0 -17   10.83    1.05 
   0  -2 -17   11.56    1.07 
   2   0 -17   10.19    1.03 
   0   2  17   11.70    1.00 
  -2   1 -17    3.34    0.72 
  -1  -2 -17    3.99    0.72 
   1   2  17    3.05    0.68 
   2  -1 -17    2.72    0.67 
   2  -1  17    4.50    0.70 
   2  -2  17   10.37    0.98 
   2   2  17    9.13    0.96 
   2  -2 -17    8.91    1.00 
  -2  -2 -17   10.90    1.06 
  -2   2 -17   11.10    1.08 
  -3  -2 -17    3.79    0.76 
   2  -3 -17    2.91    0.70 
   2  -3  17    4.09    0.74 
   3   2  17    3.06    0.68 
  -3  -1 -17    2.07    0.68 
   1  -3  17    2.25    0.65 
   1  -3 -17    2.14    0.62 
   3   1  17    1.38    0.62 
   3   0 -17    3.51    0.70 
   3   0  17    4.03    0.72 
   0  -3 -17    3.06    0.68 
   0  -3  17    3.03    0.72 
  -3   0 -17    3.67    0.78 
   0   3  17    2.79    0.63 
  -1  -3 -17    1.42    0.60 
  -3   1 -17    0.96    0.61 
   1   3  17    1.89    0.62 
   3  -1  17    2.19    0.61 
   3  -1 -17    1.39    0.62 
   3  -2 -17    2.94    0.70 
  -2  -3 -17    3.05    0.71 
  -3   2 -17    3.26    0.72 
   2   3  17    5.24    0.80 
   3  -2  17    2.78    0.65 
   0   0  18    7.18    0.81 
   0   0 -18    8.02    0.90 
   0   1 -18    5.40    0.76 
   1   0  18    3.98    0.66 
   0  -1  18    4.08    0.67 
  -1   0 -18    4.30    0.74 
   1   0 -18    4.03    0.70 
   0   1  18    3.64    0.66 
   0  -1 -18    3.14    0.68 
   1   1 -18   15.36    1.21 
   1   1  18   15.63    1.17 
   1  -1 -18   16.16    1.24 
   1  -1  18   13.39    1.13 
  -1  -1 -18   15.21    1.21 
  -1   1 -18   14.07    1.21 
   0  -2 -18    7.02    0.85 
   0  -2  18    6.08    0.79 
   0   2  18    5.95    0.78 
   2   0 -18    5.79    0.81 
   2   0  18    5.62    0.81 
  -2   0 -18    5.61    0.83 
   0   0   0    0.00    0.00 
;
_shelx_hkl_checksum              21657
loop_
_space_group_symop_operation_xyz
'x, y, z'
'-x+1/2, -y+1/2, z'
'-y+1/2, x, z'
'y, -x+1/2, z'
'-x, y+1/2, -z'
'x+1/2, -y, -z'
'y+1/2, x+1/2, -z'
'-y, -x, -z'
'-x, -y, -z'
'x-1/2, y-1/2, -z'
'y-1/2, -x, -z'
'-y, x-1/2, -z'
'x, -y-1/2, z'
'-x-1/2, y, z'
'-y-1/2, -x-1/2, z'
'y, x, z'
loop_
_atom_site_label
_atom_site_type_symbol
_atom_site_fract_x
_atom_site_fract_y
_atom_site_fract_z
_atom_site_U_iso_or_equiv
_atom_site_adp_type
_atom_site_occupancy
_atom_site_site_symmetry_order
_atom_site_calc_flag
_atom_site_refinement_flags_posn
_atom_site_refinement_flags_adp
_atom_site_refinement_flags_occupancy
Ta1 Ta 0.2500 0.2500 0.25483(2) 0.02409(10) Uani 1 8 d S T P
Rb1 Rb 0.2500 0.7500 0.5000 0.02940(15) Uani 1 8 d S T P
Rb2 Rb 0.2500 0.2500 0.86308(8) 0.0425(2) Uani 1 8 d S T P
F1 F 0.2500 0.2500 0.4444(4) 0.0378(11) Uani 1 8 d S T P
F2 F 0.0243(4) 0.4757(4) 0.2991(3) 0.0518(8) Uani 1 2 d S T P
F3 F 0.204(5) 0.4466(14) 0.1096(5) 0.067(9) Uani 0.25 1 d . . P
loop_
_atom_site_aniso_label
_atom_site_aniso_U_11
_atom_site_aniso_U_22
_atom_site_aniso_U_33
_atom_site_aniso_U_23
_atom_site_aniso_U_13
_atom_site_aniso_U_12
Ta1 0.02581(12) 0.02581(12) 0.02066(13) 0.000 0.000 0.000
Rb1 0.0294(2) 0.0294(2) 0.0294(3) 0.000 0.000 0.000
Rb2 0.0520(3) 0.0520(3) 0.0234(3) 0.000 0.000 0.000
F1 0.0461(18) 0.0461(18) 0.0213(18) 0.000 0.000 0.000
F2 0.0447(11) 0.0447(11) 0.0660(19) 0.0005(9) -0.0005(9) 0.0183(14)
F3 0.13(3) 0.052(4) 0.024(2) 0.014(2) 0.007(4) 0.035(10)
loop_
_atom_type_symbol
_atom_type_description
_atom_type_scat_dispersion_real
_atom_type_scat_dispersion_imag
_atom_type_scat_source
Rb Rb -0.9393 2.9676 'International Tables Vol C Tables 4.2.6.8 and 6.1.1.4'
F F 0.0171 0.0103 'International Tables Vol C Tables 4.2.6.8 and 6.1.1.4'
Ta Ta -0.7052 6.5227 'International Tables Vol C Tables 4.2.6.8 and 6.1.1.4'
loop_
_geom_angle_atom_site_label_1
_geom_angle_atom_site_label_2
_geom_angle_atom_site_label_3
_geom_angle
_geom_angle_site_symmetry_1
_geom_angle_site_symmetry_3
F2 Ta1 F2 152.0(2) 4 3
F2 Ta1 F2 86.65(5) 4 2
F2 Ta1 F2 86.65(5) 3 2
F2 Ta1 F2 86.65(5) 4 .
F2 Ta1 F2 86.65(5) 3 .
F2 Ta1 F3 71.8(7) 3 13_565
F2 Ta1 F3 83.0(7) 2 13_565
F2 Ta1 F3 71.8(7) 3 3
F2 Ta1 F3 83.0(7) . 3
F2 Ta1 F3 83.0(7) 3 15_665
F2 Ta1 F3 71.8(7) . 15_665
F2 Ta1 F3 83.0(7) 3 2
F2 Ta1 F3 71.8(6) 2 2
F3 Ta1 F3 62.6(14) 15_665 2
F2 Ta1 F3 83.0(7) 4 16
F2 Ta1 F3 83.0(7) . 14_655
F3 Ta1 F3 75.5(6) 13_565 14_655
F3 Ta1 F3 62.6(14) 3 14_655
F3 Ta1 F3 51.3(4) 15_665 14_655
F3 Ta1 F3 73.2(5) 2 14_655
F3 Ta1 F3 51.3(4) 16 14_655
F2 Ta1 F3 71.8(7) 4 4
F2 Ta1 F3 83.0(7) 2 4
F2 Ta1 F3 120.3(8) . 4
F3 Ta1 F3 62.6(14) 13_565 4
F3 Ta1 F3 75.5(6) 3 4
F3 Ta1 F3 73.2(5) 15_665 4
F2 Ta1 F3 83.0(7) 4 .
F2 Ta1 F3 71.8(6) . .
F3 Ta1 F3 73.2(5) 13_565 .
F3 Ta1 F3 51.3(4) 3 .
F3 Ta1 F3 37.7(15) 15_665 .
F3 Ta1 F3 75.5(6) 2 .
F3 Ta1 F3 62.6(14) 16 .
F3 Ta1 F3 16.0(18) 14_655 .
F3 Ta1 F3 51.3(4) 4 .
F2 Ta1 F1 76.01(11) 4 .
F2 Ta1 F1 76.01(11) 3 .
F2 Ta1 F1 76.01(11) 2 .
F2 Ta1 F1 76.01(11) . .
loop_
_geom_bond_atom_site_label_1
_geom_bond_atom_site_label_2
_geom_bond_distance
_geom_bond_site_symmetry_2
Ta1 F2 1.945(3) 4
Ta1 F2 1.945(3) 3
Ta1 F2 1.945(3) 2
Ta1 F2 1.945(3) .
Ta1 F3 1.949(8) 13_565
Ta1 F3 1.949(8) 3
Ta1 F3 1.949(8) 15_665
Ta1 F3 1.949(8) 2
Ta1 F3 1.949(8) 16
Ta1 F3 1.949(8) 14_655
Ta1 F3 1.949(8) 4
Ta1 F3 1.949(8) .
Ta1 F1 2.013(5) .
Ta1 Rb1 3.9387(3) 9_666
Ta1 Rb1 3.9387(3) .
Ta1 Rb1 3.9387(3) 9_566
Ta1 Rb1 3.9387(3) 1_545
Rb1 F2 2.993(3) .
Rb1 F2 2.993(3) 10_666
Rb1 F2 2.993(3) 12_666
Rb1 F2 2.993(3) 4
Rb1 F2 2.993(3) 11_566
Rb1 F2 2.993(3) 3_565
Rb1 F2 2.993(3) 9_566
Rb1 F2 2.993(3) 2_565
Rb1 F1 3.0143(9) 9_666
Rb1 F1 3.0143(9) 9_566
Rb1 F1 3.0143(9) 1_565
Rb1 F1 3.0143(9) .
Rb1 Ta1 3.9387(3) 9_666
Rb1 Ta1 3.9387(3) 1_565
Rb1 Ta1 3.9387(3) 9_566
Rb2 F2 2.868(3) 11_556
Rb2 F2 2.868(3) 12_666
Rb2 F2 2.868(3) 10_656
Rb2 F2 2.868(3) 9_566
Rb2 F3 2.877(7) 14_656
Rb2 F3 2.877(7) 4_556
Rb2 F3 2.877(7) 16_556
Rb2 F3 2.877(7) 1_556
Rb2 F3 2.877(7) 15_666
Rb2 F3 2.877(7) 2_556
Rb2 F3 2.877(7) 13_566
Rb2 F3 2.877(7) 3_556
Rb2 F3 3.24(3) 6_566
Rb2 F3 3.24(3) 12_666
Rb2 F3 3.24(3) 11_556
Rb2 F3 3.24(3) 5_546
Rb2 F3 3.24(3) 7_456
Rb2 F3 3.24(3) 10_656
Rb2 F3 3.24(3) 8_656
Rb2 F3 3.24(3) 9_566
F1 F2 2.437(4) 3
F1 F2 2.437(4) 2
F1 F2 2.437(4) 4
F1 F2 2.437(4) .
F1 Rb1 3.0143(9) 9_666
F1 Rb1 3.0143(9) 9_566
F1 Rb1 3.0143(9) 1_545
F2 F3 2.282(16) .
F2 F3 2.282(16) 15_665
F2 F3 2.58(2) 3
F2 F3 2.58(2) 14_655
F2 F2 2.669(4) 4
F2 F2 2.669(4) 3
F3 F3 2.324(17) 13_565
F3 F3 2.39(2) 2
F3 F2 2.58(2) 4
F3 Rb2 2.877(7) 1_554

_cod_database_fobs_code 2108548
