#------------------------------------------------------------------------------
#$Date: 2016-12-20 13:17:33 +0200 (Tue, 20 Dec 2016) $
#$Revision: 189271 $
#$URL: file:///home/coder/svn-repositories/cod/cif/3/50/00/3500061.cif $
#------------------------------------------------------------------------------
#
# This file is available in the Crystallography Open Database (COD),
# http://www.crystallography.net/
#
# All data on this site have been placed in the public domain by the
# contributors.
#
data_3500061
loop_
_publ_author_name
'Armel Le Bail'
_publ_section_title
;
 Rietveld refinement of the crystal structure of PbGaF5 in the BaTiF5
 structure type, I4/m
;
_journal_name_full               'Personal communication to COD'
_journal_year                    2016
_chemical_compound_source
;
Solid state synthesis
;
_chemical_formula_sum            'F5 Ga Pb'
_chemical_formula_weight         371.915
_space_group_IT_number           87
_symmetry_cell_setting           tetragonal
_symmetry_Int_Tables_number      87
_symmetry_space_group_name_Hall  '-I 4'
_symmetry_space_group_name_H-M   'I 4/m'
_cell_angle_alpha                90.00000
_cell_angle_beta                 90.00000
_cell_angle_gamma                90.00000
_cell_formula_units_Z            16
_cell_length_a                   14.4782(7)
_cell_length_b                   14.4782(7)
_cell_length_c                   7.3210(4)
_cell_measurement_temperature    295
_cell_volume                     1534.62(13)
_computing_structure_refinement  FULLPROF
_diffrn_ambient_temperature      295
_diffrn_radiation_monochromator  graphite
_diffrn_radiation_probe          x-ray
_diffrn_radiation_type           CuK\a
_diffrn_radiation_wavelength     1.54184
_exptl_absorpt_coefficient_mu    93.292
_exptl_crystal_density_diffrn    6.439
_exptl_crystal_F_000             2528
_pd_meas_2theta_range_inc        0.020000
_pd_meas_2theta_range_max        105.48000
_pd_meas_2theta_range_min        4.50000
_pd_meas_number_of_points        5050
_pd_proc_2theta_range_inc        0.020000
_pd_proc_2theta_range_max        105.5953
_pd_proc_2theta_range_min        4.6153
_pd_proc_ls_prof_R_factor        7.5443
_pd_proc_ls_prof_wR_expected     1.4361
_pd_proc_ls_prof_wR_factor       10.0808
_pd_proc_wavelength              1.540560
_refine_ls_number_parameters     62
_refine_ls_number_reflns         1118
_refine_ls_number_restraints     0
_refine_ls_R_I_factor            4.1293
_iucr_refine_instructions_details
;
Fullprof .pcr file, modified to fit inside 80 columns
followed by the .dat file



COMM   PbGaF5 isostructutal with BaTiF5  I 4/m
! Current global Chi2 (Bragg contrib.) =      49.27    
! Files => DAT-file: pbgaf5.dat,  PCR-file: pbgaf5
!Job Npr Nph Nba Nex Nsc Nor Dum Iwg Ilo Ias Res Ste Nre Cry Uni Cor Opt Aut
   0   5   1  21   2   0   1   1   0   0   1   0   0   0   0   0   0   0   0
!
!Ipr Ppl Ioc Mat Pcr Ls1 Ls2 Ls3 NLI Prf Ins Rpa Sym Hkl Fou Sho Ana
   0   0   1   0   2   0   4   0   0  -3   0  -1   1   0   2   1   1
!
! Lambda1  Lambda2    Ratio    Bkpos    Wdt    Cthm     muR   AsyLim   Rpolarz
  2nd-muR -> Patt# 1
 1.540560 1.544390  0.50000   90.000 12.0000  0.7998  0.0000   80.00    0.0000
  0.0000
!
!NCY  Eps  R_at  R_an  R_pr  R_gl     Thmin       Step       Thmax    PSD    
Sent0
 30  0.01  0.20  0.20  0.20  0.40      4.5000   0.020000   105.4800   0.000  
 0.000
!
!2Theta/TOF/E(Kev)   Background  for Pattern#  1
         4.5636     16918.2383          0.00
         5.0893     14312.6689          0.00
         6.7857     10838.5752          0.00
         7.4107      9251.2725          0.00
         9.0178      7330.1035        451.00
        11.1607      5590.7256        461.00
        13.8393      4216.3257        471.00
        15.8929      3170.9773        481.00
        20.0893      2477.0288        491.00
        22.8571      1906.6986        501.00
        26.1607       933.1637        511.00
        29.1071       821.2963        521.00
        31.8750      1114.1659        531.00
        38.0357       997.2080        541.00
        40.8929      1279.5511        551.00
        45.8036      1261.6299        561.00
        60.8928      1169.4512        571.00
        82.7679      1307.6121        581.00
        89.6429      1165.1187        591.00
        98.6607      1343.3616        601.00
       104.2857      1560.0228        611.00
! 
! Excluded regions (LowT  HighT) for Pattern#  1
        1.00        8.00
      105.48      170.00
! 
!
      62    !Number of refined parameters
!
!  Zero    Code    SyCos    Code   SySin    Code  Lambda     Code MORE ->Patt# 1
 -0.11527   21.0  0.00000    0.0  0.00000    0.0 0.000000    0.00   0
!-------------------------------------------------------------------------------
!  Data for PHASE number:   1  ==> Current R_Bragg for Pattern#  1:     4.13
!-------------------------------------------------------------------------------
PbGaF5
!
!Nat Dis Ang Pr1 Pr2 Pr3 Jbt Irf Isy Str Furth       ATZ    Nvk Npr More
  14   0   0 0.0 0.0 1.0   0   0   0   0   0        152.335   0   5   1
!
!Jvi Jdi Hel Sol Mom Ter  Brind   RMua    RMub    RMuc   Jtyp  Nsp_Ref Ph_Shift 
N_Domains
   2   3   0   0   0   0  1.0000  0.0000  0.0000  0.0000    0      0      0    
  0
!
! Max_dst(dist) (angles)  Bond-Valence Calc.
      3.5000    180.0000           
I 4/M                    <--Space group symbol
!Atom   Typ       X        Y        Z     Biso       Occ     In Fin N_t Spc 
/Codes
Pb1    Pb      0.24834  0.07410  0.00000  0.84111   0.08000   0   0   0    0  
                121.00   131.00     0.00   391.00      0.00
Pb2    Pb      0.28165  0.55282  0.00000  0.63107   0.08000   0   0   0    0  
                141.00   151.00     0.00   401.00      0.00
Ga1    Ga      0.00000  0.00000  0.21312  0.83563   0.04000   0   0   0    0  
                  0.00     0.00   161.00   411.00      0.00
Ga2    Ga      0.00000  0.50000  0.00000  0.76686   0.04000   0   0   0    0  
                  0.00     0.00     0.00   421.00      0.00
Ga3    Ga      0.16622  0.31575  0.00000  0.37275   0.08000   0   0   0    0  
                171.00   181.00     0.00   431.00      0.00
F1     F       0.10953  0.23953  0.17239  0.71325   0.16000   0   0   0    0  
                191.00   201.00   211.00   441.00      0.00
F2     F       0.21146  0.39429  0.17239  0.71325   0.16000   0   0   0    0  
                221.00   231.00   241.00   441.00      0.00
F3     F       0.11827  0.05161  0.24150  0.71325   0.08000   0   0   0    0  
                251.00   261.00   271.00   441.00      0.00
F4     F       0.10872  0.56669  0.00000  0.71325   0.08000   0   0   0    0  
                281.00   291.00     0.00   441.00      0.00
F5     F       0.00000  0.50000  0.25000  0.71325   0.04000   0   0   0    0  
                  0.00     0.00     0.00   441.00      0.00
F6     F       0.05590  0.38688  0.05647  0.71325   0.08000   0   0   0    0  
                301.00   311.00   621.00   441.00      0.00
F7     F       0.27173  0.24430  0.00000  0.71325   0.08000   0   0   0    0  
                321.00   331.00     0.00   441.00      0.00
F8     F       0.08669  0.05123  0.36021  0.71325   0.08000   0   0   0    0  
                341.00   351.00   361.00   441.00      0.00
F9     F       0.07965  0.05291  0.00000  0.71325   0.04000   0   0   0    0  
                371.00   381.00     0.00   441.00      0.00
!-------> Profile Parameters for Pattern #  1
!  Scale        Shape1      Bov      Str1      Str2      Str3   Strain-Model
 0.69693E-02   0.76548   0.00000   0.00000   0.00000   0.00000       0
    11.00000    31.000     0.000     0.000     0.000     0.000
!       U         V          W           X          Y        GauSiz   LorSiz 
Size-Model
   0.378396  -0.091426   0.050382  -0.007820   0.000000   0.000000   0.000000
    0
    101.000     91.000     41.000    111.000      0.000      0.000      0.000
!     a          b         c        alpha      beta       gamma      #Cell 
Info
  14.478250  14.478250   7.321023  90.000000  90.000000  90.000000   
   51.00000   51.00000   61.00000    0.00000    0.00000    0.00000
!  Pref1    Pref2      Asy1     Asy2     Asy3     Asy4  
  1.00000  0.00000  0.05281  0.04249  0.00000  0.00000
     0.00     0.00    71.00    81.00     0.00     0.00
!  2Th1/TOF1    2Th2/TOF2  Pattern to plot
       8.000     105.480       1



Fullprof .dat file


      4.50   0.02  105.48
17254.  17755.  17532.  16694.  17380.  17498.  17127.  16896.  17186.  16871.
16664.  16306.  17022.  16487.  16336.  16391.  16454.  16475.  15856.  16180.
16024.  15995.  15679.  15755.  15725.  15102.  15250.  15287.  15136.  15287.
15149.  14913.  14631.  15018.  14909.  15283.  15144.  14694.  14761.  14778.
14647.  14092.  14462.  13978.  14226.  14168.  13696.  13742.  13688.  13873.
13831.  13881.  13721.  13961.  13721.  13136.  14024.  13267.  13241.  13296.
13384.  13342.  12867.  13443.  12812.  13561.  13056.  12483.  12736.  13098.
12610.  12728.  12483.  12403.  12740.  12328.  12656.  12446.  12050.  11961.
12113.  12210.  12096.  11860.  11919.  12147.  11511.  11431.  11709.  11831.
11768.  12113.  11700.  11839.  11679.  11620.  11818.  11747.  11629.  11443.
11490.  11330.  11380.  11098.  11271.  10854.  11174.  11153.  10820.  10862.
10732.  10930.  10900.  10782.  10812.  10896.  10479.  10382.  10500.  10484.
10761.  10273.  10336.  10694.  10260.  10294.  10239.  10298.   9970.   9907.
10450.  10395.   9869.  10130.   9684.   9856.   9637.   9873.   9608.   9928.
  9553.   9654.   9482.  10037.   9540.   9974.   9359.   9469.   9359.  10016.
  9545.   9679.   9397.   9848.   9275.   9460.   9641.   9435.   9305.   8842.
  9258.   8766.   9183.   9115.   9065.   9288.   9233.   9187.   9414.   8791.
  8833.   8690.   8597.   8804.   8867.   8922.   9124.   8842.   8589.   9082.
  9027.   8795.   8665.   8858.   8446.   8850.   8858.   8526.   8277.   8766.
  9010.   8526.   8900.   8534.   8858.   8934.   8484.   8572.   8408.   8846.
  9364.   9347.   9267.   8980.   8846.   8875.   8694.   8399.   8475.   8151.
  8286.   7995.   8101.   8004.   7751.   7730.   7722.   7705.   7549.   7764.
  7461.   7414.   7667.   7810.   7600.   7347.   7578.   7427.   7174.   7360.
  7023.   7448.   7507.   7098.   6960.   6964.   7406.   7372.   7397.   7452.
  6939.   7023.   7027.   7035.   7124.   7077.   7006.   6964.   6875.   7157.
  6757.   6640.   6993.   6909.   6800.   7090.   6492.   7027.   6825.   6623.
  6922.   6779.   6892.   6694.   6505.   7132.   6412.   6437.   6480.   6551.
  6623.   6437.   6863.   6766.   6454.   6294.   6383.   6240.   6324.   6176.
  6164.   6332.   6223.   6374.   6370.   6134.   6336.   6336.   6614.   6130.
  6391.   6505.   6269.   6202.   6374.   6404.   6075.   6694.   6185.   6248.
  6214.   6122.   5781.   6050.   6219.   6021.   6004.   5991.   6265.   5991.
  5675.   6042.   6059.   6181.   5894.   6021.   5958.   5595.   5456.   5810.
  5705.   5979.   5856.   5684.   5511.   5776.   5604.   5616.   5856.   5722.
  5499.   5684.   5856.   5663.   5852.   5562.   5574.   5440.   5886.   5886.
  5473.   5566.   5638.   5562.   5503.   5625.   5499.   5334.   5591.   5398.
  5646.   5423.   5431.   5456.   5528.   5271.   5347.   5376.   5452.   5633.
  5208.   5334.   5238.   5250.   5579.   5318.   5566.   5364.   5082.   5503.
  5532.   5271.   4998.   5351.   5187.   5650.   5536.   5574.   5351.   5726.
  5591.   5646.   5545.   5595.   5393.   5886.   5486.   5326.   5305.   5343.
  5040.   5107.   5027.   5002.   5006.   5229.   4884.   4724.   5073.   4838.
  4871.   4892.   4715.   4724.   5069.   4800.   4875.   4530.   4901.   4732.
  4657.   4779.   4901.   4614.   4707.   4631.   4694.   4585.   4631.   4610.
  4686.   4564.   4505.   4572.   4568.   4707.   4753.   4783.   4572.   4682.
  4795.   4400.   4732.   4467.   4543.   4572.   4678.   4555.   4278.   4480.
  4555.   4581.   4720.   4627.   4690.   4623.   4648.   4741.   4707.   4804.
  4699.   4509.   4568.   4366.   4408.   4446.   4568.   4412.   4534.   4454.
  4126.   4299.   4294.   4278.   4147.   4105.   4303.   4084.   4320.   4202.
  3966.   4341.   4156.   4139.   4231.   4046.   4118.   4063.   3949.   4029.
  4109.   4046.   4134.   4282.   3979.   4038.   4257.   3987.   4113.   4042.
  4076.   4265.   3928.   3836.   4080.   4160.   3886.   3810.   3953.   4109.
  4008.   3928.   3886.   4000.   3751.   4021.   3878.   3941.   3941.   4147.
  3781.   3819.   3789.   3953.   3907.   3857.   3857.   3709.   4046.   3852.
  3667.   3844.   3777.   3617.   3747.   3608.   3659.   4076.   3743.   3436.
  3570.   3781.   3511.   3924.   3617.   3516.   3625.   3692.   3722.   3688.
  3680.   3734.   3617.   3524.   3457.   3591.   3398.   3600.   3680.   3553.
  3629.   3591.   3410.   3625.   3764.   3415.   3482.   3440.   3503.   3608.
  3579.   3545.   3520.   3680.   3469.   3591.   3507.   3292.   3297.   3166.
  3516.   3360.   3284.   3415.   3495.   3478.   3423.   3385.   3389.   3596.
  3431.   3461.   3427.   3604.   3288.   3360.   3229.   3381.   3524.   3246.
  3553.   3330.   3263.   3436.   3276.   3444.   3347.   3082.   3267.   3351.
  3381.   3444.   3339.   3280.   3263.   3385.   3170.   3528.   3402.   3558.
  3760.   3516.   3718.   3646.   3516.   4118.   4156.   4202.   4547.   4741.
  5280.   5970.   6109.   6320.   6943.   7810.   8749.   9460.  10079.  11115.
 12749.  14214.  16079.  18929.  20416.  22841.  22916.  22369.  20706.  18083.
 15557.  12273.   9444.   7557.   5915.   4795.   4459.   4185.   3713.   3604.
  3642.   3351.   3313.   3495.   3482.   3297.   3495.   3217.   3255.   3149.
  3196.   3452.   3356.   3600.   3709.   3621.   3899.   4261.   4488.   4328.
  4880.   5532.   5524.   6219.   6753.   7267.   8088.   9002.  10214.  11549.
 12808.  14656.  15751.  17355.  17742.  17355.  16689.  14395.  13132.  10702.
  8854.   7061.   5772.   4669.   3873.   3676.   3553.   3069.   3073.   3208.
  3175.   2888.   2905.   2737.   2855.   2855.   2956.   2951.   2977.   2834.
  2876.   2695.   2745.   2619.   2716.   2825.   2610.   2732.   2526.   2871.
  2863.   2766.   2850.   2817.   2758.   2720.   2838.   2901.   3027.   2796.
  2855.   3065.   2972.   3031.   3120.   3461.   3288.   3482.   3284.   3608.
  3356.   3621.   3377.   3398.   3507.   3364.   3015.   3040.   2968.   3166.
  3166.   3356.   2909.   3010.   3019.   2758.   2594.   2556.   2556.   2514.
  2476.   2556.   2766.   2379.   2252.   2631.   2530.   2682.   2236.   2396.
  2560.   2703.   2514.   2594.   2505.   2539.   2585.   2345.   2467.   2631.
  2514.   2328.   2497.   2644.   2396.   2526.   2328.   2438.   2594.   2295.
  2509.   2556.   2442.   2492.   2488.   2450.   2589.   2375.   2286.   2459.
  2505.   2185.   2480.   2429.   2408.   2539.   2501.   2375.   2328.   2311.
  2286.   2509.   2354.   2362.   2349.   2349.   2177.   2585.   2219.   2467.
  2471.   2278.   2459.   2320.   2181.   2518.   2518.   2488.   2269.   2248.
  2320.   2240.   2488.   2488.   2471.   2412.   2375.   2484.   2412.   2307.
  2349.   2556.   2354.   2400.   2362.   2442.   2286.   2227.   2307.   2412.
  2223.   2400.   2261.   2421.   2194.   2467.   2206.   2244.   2396.   2274.
  2383.   2417.   2476.   2509.   2404.   2652.   2585.   2682.   2796.   2758.
  2825.   2812.   3044.   3124.   3095.   2956.   2926.   2627.   2522.   2539.
  2505.   2412.   2602.   2303.   2316.   2189.   2391.   2320.   2303.   2417.
  2290.   2282.   2114.   2324.   2139.   2320.   2008.   2084.   2118.   2261.
  2122.   2194.   2198.   2223.   2194.   2194.   1983.   2265.   2067.   2071.
  2025.   2017.   2383.   2097.   2252.   2172.   2076.   2050.   2324.   2177.
  2177.   2038.   2130.   2274.   2059.   2130.   2362.   2282.   2084.   2097.
  2202.   2295.   2147.   2282.   2122.   2219.   2278.   2084.   2156.   2227.
  2105.   1996.   2071.   2059.   2160.   2231.   2135.   2274.   2311.   2320.
  2202.   2177.   2248.   2526.   2615.   2627.   2838.   2972.   3381.   3583.
  3886.   4151.   4850.   5284.   6597.   7532.   8698.   9136.   9957.  10378.
10020.  10067.  10366.  10568.  11359.  12837.  14824.  16744.  20011.  22727.
27409.  33893.  41290.  51315.  58325.  63276.  66000.  63508.  58093.  50750.
42347.  33472.  26609.  23413.  22243.  22883.  24626.  26440.  28983.  30225.
30087.  28647.  25889.  22310.  19376.  15835.  12193.  10033.   8092.   6804.
  5848.   5435.   5292.   4880.   5065.   4989.   5532.   5343.   5915.   6387.
  7414.   8004.   9208.  11326.  12782.  15468.  18500.  22929.  27127.  31341.
36735.  40797.  45639.  50405.  52759.  53390.  51449.  49172.  44683.  38793.
33080.  26714.  21295.  16445.  12841.  10050.   7065.   5958.   5174.   4379.
  4198.   3962.   4046.   4185.   4282.   4450.   5006.   6210.   6656.   7183.
  7351.   7755.   8008.   7966.   7671.   7120.   7010.   6842.   7056.   7111.
  7658.   8602.   9503.  10740.  11347.  12046.  11452.  10934.  10012.   8711.
  7776.   6374.   4888.   4227.   3760.   3528.   3267.   3107.   3175.   3061.
  3090.   2926.   2707.   2644.   2396.   2396.   2219.   2029.   2194.   2126.
  1945.   2143.   1928.   2059.   2177.   2257.   2252.   2198.   2332.   2307.
  2349.   2526.   2657.   2846.   3002.   3415.   3339.   3709.   4084.   4324.
  4425.   4577.   5297.   4829.   5162.   5494.   5823.   6299.   6475.   7288.
  8235.   9263.  10058.  10947.  12033.  12761.  13763.  14799.  16083.  17515.
18934.  21081.  24899.  29354.  34288.  39837.  43071.  44873.  43665.  41290.
36326.  31362.  24975.  19616.  15570.  13039.  11351.  10143.  10580.  10488.
10884.  11507.  11768.  13216.  13666.  14727.  16858.  18656.  22529.  26200.
31501.  38958.  45467.  53213.  61183.  69389.  78277.  88032.  94849.  99000.
98040.  95931.  88748.  79473.  68396.  55664.  43488.  33770.  25464.  19430.
14593.  10867.   8661.   6724.   5153.   4690.   3861.   3318.   3086.   2749.
  2711.   2450.   2219.   2244.   2366.   2059.   2185.   2227.   2265.   2189.
  2215.   2126.   2097.   2231.   1895.   2025.   1966.   2088.   1857.   1785.
  1857.   1739.   1937.   1970.   1836.   1869.   1802.   1810.   1781.   1764.
  1823.   1693.   1823.   1570.   1777.   1730.   1583.   1726.   1810.   1823.
  1789.   1937.   1756.   1962.   2126.   2025.   2151.   2341.   2252.   2535.
  2661.   3036.   3183.   3941.   4362.   5166.   6202.   7048.   8151.   8846.
10568.  11515.  13191.  15144.  17620.  20171.  22470.  24222.  25847.  26007.
26129.  25720.  25257.  23207.  21215.  18799.  15927.  12622.  10450.   8042.
  6143.   5027.   3646.   3162.   2514.   2303.   2130.   1823.   1966.   1781.
  1747.   1895.   1739.   1684.   1583.   1583.   1469.   1545.   1545.   1448.
  1499.   1629.   1453.   1524.   1461.   1596.   1625.   1520.   1575.   1541.
  1448.   1583.   1528.   1684.   1739.   1831.   1789.   1794.   1751.   1831.
  2147.   2202.   2257.   2556.   2863.   3141.   3545.   4038.   4353.   4631.
  5410.   5528.   5869.   6025.   6353.   6366.   6437.   6564.   6261.   5616.
  5671.   4964.   4273.   4227.   4004.   3777.   3558.   3116.   3153.   2758.
  2290.   1996.   1878.   1743.   1554.   1499.   1541.   1541.   1436.   1419.
  1436.   1389.   1444.   1339.   1347.   1377.   1402.   1431.   1322.   1250.
  1360.   1322.   1368.   1394.   1394.   1364.   1297.   1284.   1373.   1322.
  1271.   1377.   1213.   1297.   1419.   1305.   1326.   1457.   1309.   1225.
  1360.   1351.   1389.   1410.   1368.   1554.   1330.   1373.   1318.   1520.
  1537.   1579.   1516.   1389.   1339.   1444.   1465.   1566.   1448.   1549.
  1457.   1697.   1705.   1886.   1777.   2067.   2076.   2274.   2657.   2985.
  3255.   3810.   4509.   5254.   6454.   7498.   8900.  10702.  11886.  13848.
14770.  16513.  17022.  17510.  17805.  16887.  15734.  14551.  12488.  10858.
  8652.   6922.   5692.   4349.   3604.   2850.   2429.   2320.   1789.   1802.
  1667.   1440.   1469.   1507.   1309.   1318.   1469.   1347.   1250.   1347.
  1217.   1419.   1385.   1314.   1263.   1335.   1406.   1196.   1381.   1389.
  1305.   1263.   1225.   1250.   1217.   1351.   1360.   1431.   1381.   1351.
  1326.   1326.   1423.   1318.   1402.   1461.   1503.   1431.   1385.   1575.
  1617.   1490.   1558.   1587.   1874.   1899.   1996.   1975.   2311.   2421.
  2505.   3351.   3781.   4417.   5052.   5646.   5878.   6332.   6989.   7296.
  8054.   9237.   9233.   9540.   9208.   9140.   8581.   8037.   7418.   5920.
  5179.   4328.   3343.   2926.   2543.   2311.   2151.   1941.   1827.   1785.
  1684.   1865.   1777.   1823.   2076.   2429.   2467.   2922.   3233.   3848.
  4467.   5381.   5958.   6812.   7865.   8711.   9414.   9856.  10374.  10471.
  9907.   8888.   8159.   7528.   6993.   6303.   6038.   5402.   5414.   5659.
  6219.   7027.   7919.   8614.   9111.   9242.  10223.   9827.  10446.  10416.
10500.   9957.  10185.  10143.  10143.   9978.   9338.   8353.   7806.   6901.
  6286.   5309.   4610.   3806.   3162.   2615.   2286.   2059.   1848.   1751.
  1583.   1663.   1503.   1604.   1638.   1604.   1625.   1604.   1566.   1646.
  1604.   1520.   1587.   1520.   1495.   1579.   1646.   1827.   1924.   2063.
  2366.   2215.   2825.   3284.   3625.   4282.   4981.   5570.   6366.   7103.
  7334.   8151.   8943.   9444.   9945.  10307.  11460.  11865.  12395.  13469.
13507.  13730.  13789.  13422.  12639.  11267.  10265.   8951.   7995.   6631.
  5263.   4231.   3722.   2888.   2484.   2316.   1722.   2151.   1937.   1865.
  1739.   1680.   1743.   1806.   1916.   1655.   1629.   1621.   1554.   1474.
  1511.   1415.   1246.   1288.   1402.   1322.   1234.   1314.   1318.   1326.
  1335.   1373.   1326.   1166.   1276.   1200.   1204.   1213.   1196.   1280.
  1204.   1196.   1103.   1179.   1170.   1301.   1175.   1204.   1250.   1196.
  1086.   1074.   1229.   1339.   1364.   1255.   1099.   1095.   1267.   1086.
  1141.   1217.   1339.   1217.   1242.   1394.   1309.   1343.   1208.   1335.
  1385.   1680.   1579.   1840.   1642.   2004.   1933.   2055.   2101.   1983.
  1970.   2295.   2261.   2421.   2349.   2501.   2665.   2787.   3431.   3899.
  4484.   5360.   5856.   6837.   7675.   8286.   9477.  10265.  11338.  12100.
12193.  12904.  13237.  13195.  12993.  12593.  11254.  10075.   9490.   8176.
  7789.   7313.   6248.   6004.   5894.   5966.   6206.   6572.   6951.   7410.
  7570.   7726.   7343.   7170.   7094.   6151.   5776.   5069.   4497.   3920.
  3562.   3608.   3372.   3537.   3570.   3440.   3857.   4033.   4463.   4450.
  4450.   4332.   4202.   4294.   3667.   3579.   3221.   2943.   2606.   2038.
  2059.   1924.   1634.   1596.   1474.   1436.   1402.   1431.   1436.   1255.
  1398.   1368.   1436.   1457.   1326.   1410.   1368.   1436.   1436.   1541.
  1486.   1495.   1448.   1591.   1474.   1511.   1373.   1474.   1373.   1520.
  1499.   1368.   1347.   1351.   1305.   1293.   1208.   1410.   1288.   1339.
  1381.   1423.   1330.   1478.   1516.   1465.   1583.   1545.   1857.   2215.
  2366.   2438.   2535.   3095.   2939.   3276.   3756.   3844.   4391.   5124.
  5920.   6791.   8096.   9006.  10551.  11414.  13801.  14525.  15506.  15624.
15203.  15477.  14222.  13784.  12408.  11048.   9439.   8307.   7048.   6038.
  5141.   4286.   3663.   3591.   3238.   2905.   2829.   2699.   2560.   2560.
  2619.   2332.   2130.   2332.   2227.   2097.   1970.   1857.   1701.   1882.
  1516.   1642.   1655.   1507.   1499.   1507.   1701.   1579.   1415.   1676.
  1486.   1655.   1507.   1596.   1697.   1705.   1697.   1730.   1815.   1747.
  1735.   1726.   2055.   2046.   2236.   2497.   2728.   2918.   3065.   2779.
  3095.   3343.   3566.   3575.   4017.   4265.   5027.   5149.   6164.   6909.
  8332.   9898.  10778.  11907.  12239.  12913.  13755.  13599.  14563.  15502.
16172.  16050.  16079.  16071.  15995.  15961.  15725.  15393.  15658.  16054.
17026.  18159.  18651.  19557.  20580.  20816.  21375.  20491.  20100.  19144.
18024.  16092.  14349.  13052.  11267.  10770.   9688.   8791.   8126.   8206.
  8538.   8235.   8724.   9044.   9898.   9780.   9801.   9873.   9431.   8938.
  8408.   8404.   7835.   7082.   6673.   5827.   5090.   4715.   4067.   3528.
  3297.   3330.   2745.   2665.   2652.   2572.   2564.   2631.   2817.   2901.
  3722.   3621.   4092.   4088.   4299.   4947.   5318.   5646.   6353.   7090.
  7713.   8366.   8972.  10311.  11334.  11822.  13111.  14542.  16546.  18971.
21725.  25299.  26979.  29207.  30891.  31956.  33021.  33097.  33316.  33333.
34440.  33564.  31964.  31232.  31489.  29973.  28061.  25775.  22550.  20327.
17574.  15367.  12963.  11536.   9549.   7448.   7006.   5932.   5195.   4577.
  4076.   3743.   3633.   3351.   3141.   2817.   2623.   2438.   2143.   1949.
  1806.   1773.   1726.   1684.   1773.   1533.   1676.   1465.   1478.   1368.
  1541.   1469.   1415.   1516.   1617.   1537.   1373.   1613.   1440.   1444.
  1431.   1562.   1402.   1259.   1533.   1482.   1453.   1528.   1516.   1427.
  1524.   1528.   1507.   1495.   1511.   1575.   1663.   1747.   1562.   1554.
  1676.   1705.   1646.   1575.   1587.   1655.   1638.   1667.   1617.   1777.
  1831.   1907.   1857.   1827.   1874.   2042.   2109.   2080.   2290.   2223.
  2198.   2535.   2901.   2972.   3596.   4046.   4951.   5191.   5924.   6555.
  6964.   7267.   7903.   8715.   9296.  10075.  10673.  11351.  12020.  11730.
11347.  11182.  10458.   9827.   8656.   7869.   6779.   6315.   5099.   4640.
  4126.   3743.   3629.   3545.   3730.   4374.   4800.   5473.   5970.   6130.
  6366.   6248.   6168.   5890.   5520.   5393.   4711.   4286.   3937.   3229.
  2690.   2425.   2168.   2071.   1815.   1768.   1810.   1650.   1579.   1541.
  1566.   1600.   1469.   1810.   1671.   1739.   1794.   1886.   1987.   2034.
  2295.   2324.   2930.   2884.   3436.   4017.   4690.   5713.   6336.   7545.
  7722.   8307.   8724.   8980.   9490.   9427.  10151.  10728.  10294.  10707.
10206.  10227.   9894.   9772.   9515.   8408.   7919.   6939.   6395.   5768.
  4918.   4454.   3629.   3208.   2817.   2484.   2101.   2021.   1836.   1768.
  1848.   1794.   1768.   1499.   1541.   1768.   1549.   1469.   1705.   1655.
  1583.   1768.   1735.   1844.   2034.   2080.   1920.   2316.   2236.   2560.
  2766.   3015.   3187.   4000.   5246.   7082.   9482.  11734.  13814.  14117.
13418.  12968.  11822.  11603.  11001.  10201.   8610.   7528.   6075.   5292.
  4160.   3372.   2888.   2690.   2299.   2286.   2311.   2126.   2375.   2366.
  2787.   2897.   3179.   3608.   3941.   4092.   4177.   4518.   4724.   4846.
  4972.   5120.   5107.   5128.   5456.   5747.   6084.   5924.   6374.   6130.
  6261.   6261.   6143.   6185.   5835.   6261.   6118.   5659.   5878.   5886.
  6328.   6471.   6896.   6854.   7254.   6635.   6968.   6997.   6783.   6892.
  7406.   7667.   8602.   9566.  10063.  10521.  10871.  11203.  10627.  10665.
10121.   9612.   8875.   8399.   7372.   6741.   6328.   5423.   4551.   4025.
  3764.   3225.   3116.   2711.   2686.   2577.   2627.   2741.   2724.   2855.
  2935.   2897.   3406.   3667.   4501.   5355.   6206.   7549.   8766.   9343.
10399.  11098.  11507.  12163.  13363.  14248.  15014.  17005.  17380.  18491.
18710.  19115.  19098.  18618.  17931.  17334.  15780.  15073.  13696.  11806.
10345.   9532.   8749.   7482.   6677.   5987.   5743.   5587.   5406.   5376.
  5781.   5802.   5718.   5995.   5772.   5583.   5330.   5305.   5191.   4715.
  4560.   4240.   3958.   3928.   3170.   3208.   2901.   2699.   2332.   2530.
  2227.   2269.   2215.   2206.   2156.   2328.   2379.   2522.   3010.   3107.
  3385.   3179.   3351.   3204.   3246.   3431.   3659.   3612.   3633.   3638.
  3343.   3250.   2838.   2838.   2665.   2412.   2560.   2665.   2442.   2551.
  2669.   2791.   2648.   3347.   3697.   4640.   5781.   6459.   7305.   8673.
  8686.   9006.   9006.   9928.  10433.  10955.  10787.  11052.  10227.   9258.
  8475.   7941.   7452.   6947.   6442.   5461.   5309.   4673.   4353.   3852.
  4033.   3566.   3461.   3170.   3495.   3558.   4214.   4433.   4909.   5410.
  5650.   5962.   6122.   6206.   6240.   6551.   6509.   6884.   6421.   6387.
  6656.   6269.   6214.   5600.   5406.   5103.   4551.   4130.   3789.   3692.
  3368.   3057.   2825.   2505.   2375.   2021.   1933.   1743.   1726.   1676.
  1549.   1591.   1545.   1680.   1587.   1575.   1575.   1705.   1751.   1970.
  1777.   1983.   2206.   2551.   2939.   3276.   3751.   4126.   4446.   4568.
  5318.   5153.   5406.   5713.   5448.   5520.   5743.   5659.   6223.   6004.
  6383.   6025.   6362.   6619.   6534.   6450.   6547.   6231.   6261.   6016.
  5604.   5469.   5259.   5027.   4652.   4290.   3840.   3503.   3570.   2968.
  2834.   2572.   2526.   2328.   2295.   2219.   1975.   2071.   1933.   2172.
  2189.   2505.   2678.   2897.   3187.   3760.   3604.   3890.   3713.   4012.
  4147.   4412.   4720.   4817.   4960.   4943.   4859.   4812.   4715.   4585.
  4177.   4265.   4320.   4004.   3819.   3444.   3415.   3255.   3170.   3191.
  3200.   3541.   3928.   3873.   4257.   4711.   4922.   5288.   5440.   5873.
  5924.   6025.   5991.   6749.   6934.   6850.   7103.   7258.   7090.   7082.
  7246.   6981.   6981.   6581.   6231.   6092.   5692.   5739.   5200.   4741.
  4555.   4092.   3667.   3377.   3061.   2935.   2787.   2951.   2497.   2551.
  2425.   2758.   2737.   2855.   3162.   3650.   3777.   3802.   4252.   4585.
  4901.   5280.   5633.   6202.   5915.   6185.   6320.   5890.   5844.   5974.
  5911.   5814.   5991.   6042.   6202.   6088.   6353.   6572.   6496.   6896.
  6985.   7334.   7018.   6892.   6623.   6572.   6555.   6867.   7431.   8223.
  8463.   8879.   9604.   9507.   9650.   8917.   9204.   8513.   8433.   7818.
  6825.   6484.   6370.   5713.   5423.   4892.   4547.   3844.   3612.   3137.
  2989.   2863.   2471.   2484.   2248.   2168.   2210.   2160.   1869.   1933.
  1865.   1768.   1743.   1709.   1566.   1693.   1646.   1490.   1461.   1516.
  1478.   1490.   1490.   1351.   1591.   1385.   1385.   1284.   1364.   1389.
  1373.   1293.   1406.   1385.   1474.   1499.   1453.   1596.   1747.   1705.
  1773.   2059.   2265.   2450.   2766.   3170.   3406.   3667.   4054.   4433.
  5006.   5473.   6042.   6475.   6926.   7170.   7465.   7612.   7317.   7183.
  7637.   7642.   7650.   7574.   8008.   8252.   8606.   8627.   8993.   9023.
  9696.   9482.  10227.  10041.  10542.  10740.  10631.   9705.   9848.  10075.
10290.   9507.   9195.   8778.   8829.   8501.   7789.   7465.   7018.   6635.
  6341.   5983.   5802.   5132.   5103.   4749.   4408.   4113.   3941.   3916.
  3823.   3566.   3629.   3120.   3242.   2968.   2754.   2581.   2471.   2084.
  2210.   1975.   2114.   1806.   1659.   1709.   1482.   1541.   1511.   1431.
  1368.   1229.   1284.   1196.   1225.   1250.   1276.   1145.   1267.   1318.
  1217.   1192.   1351.   1250.   1141.   1162.   1267.   1213.   1377.   1351.
  1238.   1293.   1444.   1478.   1444.   1549.   1638.   1676.   1848.   1840.
  1840.   2084.   2097.   2025.   2236.   2223.   2324.   2252.   2156.   2210.
  2303.   2139.   2097.   1903.   1962.   1794.   1831.   1751.   1705.   1566.
  1709.   1431.   1516.   1465.   1507.   1537.   1608.   1604.   1558.   1629.
  1642.   1659.   1650.   1684.   1629.   1756.   1819.   1760.   1899.   1983.
  2097.   2362.   2594.   2476.   2438.   2585.   2476.   2379.   2682.   2728.
  2518.   2674.   3124.   3579.   3511.   3781.   3962.   3953.   3890.   3562.
  3608.   3903.   3760.   3894.   4088.   3730.   3671.   3511.   3549.   3431.
  3351.   3301.   3263.   3250.   3343.   3448.   3608.   3772.   3890.   3937.
  3802.   3928.   3545.   3676.   3857.   3726.   4113.   4109.   4299.   4353.
  4829.   5288.   5187.   5343.   5507.   5545.   5423.   5267.   5023.   4400.
  4299.   3928.   4088.   3768.   3659.   3532.   3393.   3078.   3175.   3078.
  2762.   2930.   2631.   2526.   2358.   2278.   2316.   2050.   2147.   2097.
  2092.   2114.   1836.   2164.   2139.   2021.   1966.   2332.   2109.   2412.
  2320.   2358.   2278.   2400.   2299.   2438.   2568.   2535.   2627.   2598.
  2606.   2678.   2699.   2455.   2412.   2514.   2518.   2674.   2227.   2438.
  2029.   2076.   2055.   1726.   1789.   1853.   1625.   1554.   1524.   1566.
  1461.   1482.   1516.   1427.   1478.   1507.   1693.   1415.   1339.   1566.
  1402.   1301.   1394.   1537.   1524.   1364.   1478.   1705.   1583.   1600.
  1617.   1823.   1726.   1789.   1667.   1886.   1874.   2059.   2008.   1794.
  1941.   1819.   1861.   1743.   1941.   1979.   2088.   2101.   2055.   2177.
  2194.   2055.   1987.   2181.   1970.   2122.   2231.   2219.   2341.   2379.
  2501.   2459.   2543.   2274.   2375.   2194.   2400.   2219.   2324.   2598.
  2509.   2741.   2551.   2728.   2732.   2547.   2610.   2539.   2375.   2665.
  2480.   2577.   2522.   2606.   2644.   2665.   2358.   2341.   2442.   2615.
  2337.   2219.   2429.   2417.   2560.   2471.   2467.   2446.   2362.   2265.
  2092.   2189.   2248.   2278.   2400.   2429.   2181.   1949.   1983.   1848.
  1840.   2097.   1958.   1882.   2063.   1890.   2109.   2017.   2076.   2055.
  1991.   1941.   2118.   1954.   2290.   2307.   2320.   2505.   2370.   2770.
  2488.   2724.   2615.   2657.   2998.   2905.   3031.   2981.   2951.   2812.
  2888.   2661.   2404.   2375.   2244.   2370.   2311.   2101.   2034.   1865.
  1676.   1650.   1600.   1596.   1642.   1490.   1659.   1507.   1389.   1507.
  1676.   1638.   1739.   1853.   2013.   2391.   2758.   2690.   2901.   2951.
  2825.   2905.   3023.   2859.   2758.   2985.   3381.   3638.   3789.   4198.
  3756.   3840.   3549.   3090.   3052.   2808.   2572.   2505.   2787.   2972.
  2892.   2829.   2762.   2766.   2404.   2412.   2425.   2471.   2391.   2661.
  2644.   2674.   2749.   2935.   2985.   3166.   3389.   3532.   3579.   4134.
  4134.   4160.   4223.   4379.   4387.   4316.   4227.   4417.   3979.   4021.
  3869.   3890.   3705.   3457.   3869.   3865.   3726.   3852.   4337.   4408.
  4501.   4829.   5330.   5545.   5558.   5675.   6004.   5667.   5654.   5936.
  6126.   6623.   6981.   7738.   8147.   8509.   8399.   8341.   8875.   8686.
  8888.   8774.   8437.   7861.   7785.   7162.   7107.   6534.   6736.   6277.
  6395.   5680.   5633.   5558.   5103.   4888.   4480.   4598.   4606.   4341.
  4463.   4657.   4749.   4947.   5086.   5120.   4863.   4998.   5372.   5343.
  5124.   5124.   5094.   5225.   4741.   4673.   4745.   4156.   4236.   4172.
  3667.   3440.   3284.   3015.   2905.   2652.   2463.   2261.   2139.   2029.
  2000.   1941.   1810.   1621.   1554.   1739.   1516.   1650.   1815.   1520.
  1714.   1634.   1659.   1857.   1975.   1907.   1933.   1949.   2332.   2366.
  2564.   2754.   2631.   2610.   2977.   3036.   3419.   3541.   3697.   4076.
  4063.   4130.   4425.   4071.   4130.   4299.   4438.   4598.   4817.   4939.
  5014.   5086.   5145.   4972.   5082.   5040.   4829.   5031.   4867.   4560.
  5115.   4998.   4560.   4850.   4370.   4189.   4345.   4379.   4223.   4412.
  4307.   4602.   4320.   4450.   4358.   4497.   4257.   4223.   4160.   4214.
  4425.   4467.   4593.   4143.   4227.   4223.   4080.   3747.   3343.   3255.
  3267.   3335.   3187.   3343.   2867.   2905.   2859.   2754.   2488.   2332.
  2223.   2257.   2122.   2236.   2101.   2206.   2067.   2122.   2177.   1916.
  1958.   2000.   2172.   2185.   1916.   1983.   2215.   2265.   2509.   2429.
  2408.   2497.   2438.   2349.   2434.   2341.   2661.   2754.   2690.   2644.
  2808.   2560.   2610.   2375.   2332.   2370.   2008.   2126.   2223.   2055.
  1954.   1924.   2038.   2017.   1895.   1874.   1941.   2021.   1848.   1789.
  1911.   1747.   1991.   1777.   1941.   2025.   1911.   2139.   2156.   1890.
  1882.   1916.   1890.   1903.   1933.   1924.   2004.   1853.   1827.   1954.
  1924.   1823.   1878.   1815.   1768.   1836.   1890.   1705.   1941.   2126.
  2025.   2219.   2316.   2446.   2631.   2842.   3276.   3945.   4661.   5061.
  5882.   6496.   7069.   7056.   7338.   6989.   7242.   6901.   6795.   7002.
  6888.   6955.   7086.   7334.   7280.   7191.   7376.   7145.   6661.   6362.
  6109.   5949.   5381.   5250.   4998.   5027.   5061.   5275.   5878.   5844.
  6223.   6336.   6240.   6370.   6379.   6054.   5974.   6387.   5958.   6042.
  6101.   6606.   6652.   6741.   6433.   6290.   6059.   5297.   5006.   4598.
  4505.   4261.   4071.   3625.   3920.   3642.   3482.   3175.   2754.   2964.
  2572.   2337.   2189.   2135.   2135.   1890.   1958.   1844.   1747.   1781.
  1899.   1789.   1684.   1655.   1819.   1579.   1718.   1739.   1684.   1798.
  1836.   1979.   2202.   2181.   2463.   2509.   2745.   2968.   3364.   3448.
  3486.   3789.   3587.   3511.   3271.   3402.   3436.   3250.   3208.   3187.
  3398.   3326.   3722.   3726.   3886.   3701.   3844.   3591.   3520.   3806.
  3646.   3814.   3819.   3937.   3987.   3924.   3979.   3718.   3692.   3768.
  3553.   3545.   3377.   3339.   3734.   3751.   3764.   4282.   4429.   4905.
  4690.   4564.   4151.   3663.   3726.   3503.   3650.   3789.   3772.   4029.
  3553.   3869.   3566.   3360.   3183.   2985.   2985.   2913.   3158.   3040.
  3255.   3541.   3570.   3718.   4181.   3844.   4067.   4008.   3764.   3629.
  3718.   3532.   3604.   3276.   3204.   3166.   3208.   3015.   2913.   2846.
  2665.   2850.   2560.   2674.   2526.   2572.   2547.   2514.   2434.   2488.
  2337.   2269.   2421.   2299.   2303.   2092.   2139.   2286.   2202.   2404.
  2518.   2480.   2796.   2762.   2577.   2745.   2863.   2947.   3036.   3562.
  3970.   4648.   5124.   5515.   5520.   5250.   4871.   5006.   4358.   4177.
  3966.   3928.   3920.   3823.   4265.   4021.   4223.   3911.   3777.   3583.
  3233.   2791.   3099.   3095.   3330.   3069.   2918.   2939.   3271.   3082.
  3153.   3212.   3196.   3389.   3301.   3015.   3120.   3255.   3162.   3419.
  3532.   3676.   3692.   4438.   4307.   4269.   4467.   4332.   4526.   4555.
  4370.   4294.   4156.   3974.   3953.   3726.   3600.   3528.   3772.   3785.
  3827.   3996.   4273.   4303.   4181.   4012.   4391.   4345.   4467.   4829.
  4665.   4593.   4345.   4303.   4257.   4248.   4374.   4189.   4193.   4286.
  4383.   4593.   4572.   4703.   4673.   4686.   4817.   4644.   4236.   4593.
  4156.   4189.   3785.   3756.   3259.   3330.   3267.   3339.   3208.   3082.
  3158.   3002.   2981.   2808.   2551.   2615.   2581.   2589.   2387.   2518.
  2619.   2834.   2909.   2939.   3124.   3284.   3162.   3103.   3482.   3149.
  3339.   3292.   3351.   3562.   3646.   3684.   4092.   4362.   4459.   4686.
  4795.   5111.   4905.   4707.   5242.   4955.   5065.   5570.   5423.   6012.
  6185.   5894.   5755.   5313.   5090.   4417.   4383.   4408.   4097.   4202.
  4139.   4248.   3974.   4012.   3831.   3461.   3204.   2985.   2897.   2610.
  2568.   2492.   2829.   2787.   2876.   3116.   3082.   2960.   3078.   2859.
  3019.   3073.   3061.   3271.   3166.   3377.   3612.   3688.   3688.   3852.
  3751.   3516.   3436.   3141.   3250.   3162.   2985.   2850.   3057.   2834.
  2821.   3002.   2926.   2829.   2425.   2450.   2577.   2446.   2404.   2189.
  2172.   2063.   2088.   1924.   1865.   1928.   1979.   2046.   1954.   1996.
  2198.   1810.   1819.   1785.   1650.   1760.   1549.   1714.   1688.   1764.
  1516.   1671.   1516.   1549.   1676.   1436.   1415.   1549.   1478.   1579.
  1469.   1410.   1537.   1655.   1591.   1659.   1642.   1646.   1781.   1520.
  1861.   1663.   1857.   1684.   1688.   1836.   1878.   1798.   2084.   1789.
  1983.   2147.   2295.   2408.   2674.   2501.   2703.   2867.   2779.   3078.
  3212.   3107.   3440.   3406.   3473.   3692.   3722.   3718.   3924.   3894.
  3760.   3705.   3878.   3490.   3671.   3676.   3351.   3385.   2960.   3027.
  2913.   2892.   2657.   2741.   2514.   2775.   2480.   2539.   2610.   2817.
  2623.   2324.   2585.   2362.   2362.   2358.   2160.   2349.   2177.   2156.
  2269.   2375.   2619.   2551.   2913.   3116.   3297.   3511.   3894.   3575.
  3873.   3953.   3911.   4231.   4391.   4425.   4539.   4774.   4795.   4753.
  5343.   5115.   5191.   5351.   5654.   5305.   5600.   5663.   5440.   5625.
  5014.   5233.   5402.   5701.   5743.   5713.   5692.   5692.   5570.   5810.
  5570.   5414.   5271.   5355.   5166.   4964.   4850.   5052.   4627.   4391.
  4383.   4210.   4160.   4160.   4097.   3583.   3722.   3503.   3633.   3427.
  3246.   3351.   3191.   3048.   3271.   2964.   2998.   2939.   2998.   2905.
  2724.   2855.   2564.   2678.   2564.   2522.   2606.   2581.   2497.   2345.
  2156.   2122.   2206.   2236.   2135.   2059.   2004.   1996.   1819.   1970.
  1890.   1810.   1777.   1726.   1802.   1756.   1579.   1697.   1705.   1507.
  1743.   1570.   1865.   1848.   1693.   1693.   1823.   1566.   1583.   1545.
  1499.   1461.   1503.   1655.   1579.   1625.   1671.   1781.   1701.   1671.
  1667.   1718.   1890.   1739.   1693.   1621.   1768.   1907.   1735.   2084.
  1983.   1996.   1924.   2088.   2080.   2143.   2223.   2206.   2252.   2227.
  1937.   2118.   1937.   1996.   1996.   1966.   1949.   1798.   1903.   1886.
  1907.   1991.   2059.   2013.   2130.   1996.   1760.   1764.   1777.   1789.
  1928.   1806.   2071.   2151.   2240.   2063.   2387.   2476.   2438.   2560.
  2779.   2644.   2307.   2518.   2598.   2295.   2324.   2316.   2202.   2021.
  2151.   2198.   2295.   2160.   2387.   2412.   2370.   2417.   2408.   2442.
  2088.   2236.   2370.   2244.   2244.   2286.   2135.   2261.   2135.   2097.
  2092.   2185.   2055.   2248.   2042.   2126.   1954.   1945.   2105.   2004.
  1895.   2189.   1848.   1979.   1983.   2118.   2097.   2303.   2164.   2118.
  2055.   2114.   2307.   2050.   2160.   2185.   2160.   2189.   2076.   2358.
  2248.   2147.   2029.   2097.   2202.   1911.   1777.   1836.   1844.   1789.
  1815.   1697.   1781.   1684.   1760.   1545.   1579.   1709.   1541.   1398.
  1625.   1533.   1474.   1579.   1486.   1621.   1575.   1533.   1570.   1453.
  1423.   1566.   1385.   1495.   1570.   1684.   1970.   1785.   1680.   1815.
  1874.   1937.   2059.   2000.   2358.   2425.   2236.   2337.   2349.   2358.
  2286.   2328.   2417.   2349.   2412.   2223.   2459.   2471.   2648.   2766.
  3107.   3137.   3271.   3166.   3415.   3368.   3335.   3360.   3486.   3423.
  3452.   3642.   3777.   3541.   3499.   3389.   3537.   3415.   3145.   3271.
  3027.   2892.   3132.   3015.   3212.   2918.   3179.   2913.   2939.   2977.
  2690.   2530.   2455.   2568.   2316.   2370.   2412.   2429.   2417.   2143.
  2274.   2307.   2034.   1937.   2025.   1903.   1844.   1890.   1823.   1836.
  1861.   1810.   1831.   1899.   2080.   1844.   2050.   2147.   2008.   2307.
  2396.   2240.   2354.   2345.   2303.   2067.   2189.   2236.   2004.   2000.
  1979.   2135.   1991.   2324.   2076.   2101.   2164.   2101.   2244.   2189.
  2316.   2172.   2017.   2084.   2046.   1920.   1840.   1781.   1945.   2004.
  1869.   1836.   1895.   1848.   1958.   1954.   1861.   1907.   1874.   2017.
  1928.   1819.   1991.   1895.   2143.   1966.   2135.   2202.   2101.   2206.
  2147.   1996.   1785.   2349.   2320.   2261.   2244.   2240.   2438.   2480.
  2518.   2636.   2758.   2737.   2783.   2745.   3086.   3057.   3225.   3023.
  3082.   3381.   3297.   3330.   3360.   3255.   3284.   3221.   3377.   2972.
  3305.   3351.   3233.   3246.   3158.   3061.   3010.   3002.   2951.   2770.
  2539.   2640.   2615.   2471.   2476.   2492.   2404.   2476.   2320.   2358.
  2404.   2421.   2139.   2147.   2252.   2139.   1886.   1886.   2135.   1937.
  2118.   1966.   1886.   1941.   1928.   1941.   1933.   1789.   1874.   2059.
  1991.   2008.   2105.   2050.   2038.   2328.   2244.   2282.   2404.   2215.
  2564.   2442.   2564.   2438.   2189.   2215.   2143.   2396.   2177.   2261.
  2362.   2286.   2345.   2282.   2202.   2206.   2139.   2202.   2143.   2076.
  2215.   2274.   2282.   2215.   1991.   2088.   1966.   1903.   2042.   2000.
  1991.   1789.   1916.   2029.   2114.   2164.   2135.   2227.   2311.   2332.
  2455.   2661.   2741.   2526.   2690.   2678.   2623.   2690.   2838.   2695.
  2585.   2905.   2758.   2947.   3057.   3023.   3322.   2968.   3419.   3368.
  3288.   3575.   3503.   3629.   3444.   3482.   3406.   3688.   3427.   3259.
  3516.   3772.   3406.   3452.   3461.   3629.   3730.   3928.   3701.   3810.
  3777.   3701.   3768.   3747.   3861.   3810.   3667.   3553.   3718.   3452.
  3469.   3339.   3229.   3364.   3073.   3196.   2951.   2817.   2711.   2796.
  2556.   2732.   2669.   2299.   2223.   2332.   2227.   2114.   2265.   2038.
  2038.   1911.   2038.   1874.   1920.   1756.   1836.   1857.   1650.   1882.
  1777.   1655.   1840.   1684.   1815.   1975.   1991.   2038.   2349.   2223.
  2467.   2598.   2749.   2930.   2754.   2930.   2850.   2964.   3040.   2972.
  2897.   2758.   2897.   2754.   2808.   2787.   2800.   2737.   2901.   3069.
  2699.   2913.   2812.   2808.   2711.   2724.   2581.   2842.   2678.   2652.
  2787.   2737.   2960.   2897.   2716.   2669.   2627.   2808.   2657.   2619.
  2564.   2480.   2855.   2501.   2518.   2598.   2728.   2884.   2585.   2905.
  2741.   2754.   2888.   2661.   2766.   2796.   2732.   2556.   2678.   2652.
  2560.   2497.   2248.   2295.   2303.   2328.   2640.   2497.   2467.   2492.
  2543.   2530.   2551.   2615.   2501.   2261.   2434.   2547.   2594.   2572.
  2648.   2556.   2518.   2564.   2522.   2438.   2526.   2328.   2236.   2013.
  2114.   2071.   2164.   1848.   2021.   2206.   2122.   2118.   2156.   1933.
  2147.   2071.   1958.   1924.   1806.   1798.   1705.   1836.   1789.   1697.
  1714.   1705.   1537.   1874.   1697.   1693.   1760.   1629.   1663.   1735.
  1676.   1575.   1836.   1751.   1869.   1937.   1819.   2164.   1865.   2151.
  1983.   1869.   1823.   1831.   2025.   2038.   2088.   1983.   2126.   2261.
  2324.   2383.   2387.   2236.   2252.   2185.   2177.   2021.   1861.   2004.
  1975.   1962.   1886.   1916.   1874.   2071.   2055.   1941.   2042.   2143.
  1907.   2029.   2046.   2021.   2076.   2286.   2252.   2341.   2181.   2375.
  2366.   2286.   2417.   2396.   2429.   2459.   2518.   2754.   2695.   2918.
  2817.   3221.   3255.   3095.   3276.   3330.   3263.   3351.   3722.   3663.
  3772.   3772.   3831.   3806.   3852.   4261.   4202.   4619.   4800.   4909.
  5019.   4707.   4897.   4955.   4846.   4905.   4737.   5002.   4875.   5027.
  4774.   4606.   4560.   4905.   4387.   4555.   4467.   4396.   4488.   4265.
  4299.   4391.   4214.   3958.   3739.   3709.   3444.   3823.   3503.   3238.
  3124.   2850.   2884.   2905.   2863.   2909.   2770.   2989.   2509.   2855.
  2594.   2631.   2775.   2754.   2471.   2606.   2695.   2711.   2695.   2829.
  2842.   3132.   3052.   3326.   3233.   3457.   3158.   3132.   3069.   2943.
  2884.   2560.   2543.   2480.   2307.   2391.   2362.   2417.   2332.   2514.
  2421.   2404.   2665.   2800.   2543.   2518.   2476.   2408.   2417.   2480.
  2337.   2463.   2484.   2366.   2311.   2442.   2282.   2362.   2362.   2324.
  2231.   2181.   2248.   2059.   2307.   2215.   2227.   2046.   2135.   2164.
  2265.   2219.   2274.   2421.   2463.   2088.   2509.   2408.   2497.   2328.
  2787.   2303.   2434.   2690.   2417.   2686.   2703.   2926.   3031.   3082.
  3006.   3086.   3255.   3111.   3217.   3052.   3267.   2960.   3023.   2766.
  2930.   2728.   2901.   3107.   2977.   3061.   3027.   3191.   3158.   3330.
  3166.   3027.   3107.   3031.   3082.   2901.   2880.   3217.   2855.   2871.
  2703.   2669.   2695.   2543.   2602.   2505.   2425.   2526.   2450.   2434.
  2396.   2362.   2678.   2391.   2387.   2459.   2488.   2337.   2434.   2396.
  2358.   2328.   2332.   2442.   2244.   2332.   2240.   2194.   2299.   2257.
  2151.   2231.   2147.   2194.   2320.   2391.   2177.   2084.   2354.   2244.
  2236.   2669.   2375.   2358.   2421.   2568.   2492.   2526.   2488.   2429.
  2434.   2471.   2564.   2379.   2370.   2678.   2699.   2770.   2897.   3204.
  3166.   3250.   3301.   3385.   3305.   3604.   3162.   3444.   3385.   3356.
  3549.   3301.   3545.   3313.   3452.   3385.   3495.   3415.   3452.   3747.
  3335.   3343.   3545.   3718.   3448.   3570.   3448.   3676.   3558.   3793.
  3987.   4202.   3873.   3836.   3958.   3781.   3760.   3739.   3676.   3406.
  3305.   3368.   3499.   3671.   3591.   3503.   3503.   3608.   3676.   3827.



;
_cod_data_source_file            pbgaf5.cif
_cod_data_source_block           PbGaF5
_cod_original_cell_volume        1534.63(14)
_cod_database_code               3500061
_pd_proc_ls_prof_cr_factor       11.5455
_pd_proc_ls_prof_cwr_factor      13.9290
_pd_proc_ls_prof_cwr_expected    1.9844
_pd_proc_ls_prof_chi2            49.2722
_pd_proc_ls_prof_echi2           49.2722
loop_
_publ_manuscript_incl_extra_item
_publ_manuscript_incl_extra_info
_publ_manuscript_incl_extra_defn
'_pd_proc_ls_prof_cR_factor' 'Prof. R-factor CORRECTED for background' no
'_pd_proc_ls_prof_cwR_factor' 'wProf.R-factor CORRECTED for background' no
'_pd_proc_ls_prof_cwR_expected' 'wProf.Expected CORRECTED for background' no
'_pd_proc_ls_prof_chi2' 'Chi-square for all considered points' no
'_pd_proc_ls_prof_echi2' 'Chi-2 for points with Bragg contribution' no
loop_
_symmetry_equiv_pos_as_xyz
x,y,z
-y,x,z
-x,-y,z
y,-x,z
-x,-y,-z
y,-x,-z
x,y,-z
-y,x,-z
x+1/2,y+1/2,z+1/2
-y+1/2,x+1/2,z+1/2
-x+1/2,-y+1/2,z+1/2
y+1/2,-x+1/2,z+1/2
-x+1/2,-y+1/2,-z+1/2
y+1/2,-x+1/2,-z+1/2
x+1/2,y+1/2,-z+1/2
-y+1/2,x+1/2,-z+1/2
loop_
_atom_site_label
_atom_site_fract_x
_atom_site_fract_y
_atom_site_fract_z
_atom_site_U_iso_or_equiv
_atom_site_occupancy
_atom_site_adp_type
_atom_site_type_symbol
Pb1 0.24834(16) 0.07410(16) 0.00000 0.0107(11) 1.00000 Uiso Pb
Pb2 0.28165(16) 0.55282(15) 0.00000 0.0080(9) 1.00000 Uiso Pb
Ga1 0.00000 0.00000 0.2131(16) 0.011(3) 1.00000 Uiso Ga
Ga2 0.00000 0.50000 0.00000 0.010(3) 1.00000 Uiso Ga
Ga3 0.1662(5) 0.3158(5) 0.00000 0.0047(16) 1.00000 Uiso Ga
F1 0.1095(12) 0.2395(13) 0.172(3) 0.009(3) 1.00000 Uiso F
F2 0.2115(12) 0.3943(12) 0.172(2) 0.009(3) 1.00000 Uiso F
F3 0.118(2) 0.052(3) 0.241(5) 0.009(3) 0.50000 Uiso F
F4 0.1087(18) 0.5667(17) 0.00000 0.009(3) 1.00000 Uiso F
F5 0.00000 0.50000 0.25000 0.009(3) 1.00000 Uiso F
F6 0.056(2) 0.387(2) 0.056(4) 0.009(3) 0.50000 Uiso F
F7 0.272(2) 0.2443(18) 0.00000 0.009(3) 1.00000 Uiso F
F8 0.087(2) 0.051(3) 0.360(4) 0.009(3) 0.50000 Uiso F
F9 0.080(3) 0.053(4) 0.00000 0.009(3) 0.50000 Uiso F
loop_
_atom_type_symbol
_atom_type_scat_Cromer_Mann_a1
_atom_type_scat_Cromer_Mann_b1
_atom_type_scat_Cromer_Mann_a2
_atom_type_scat_Cromer_Mann_b2
_atom_type_scat_Cromer_Mann_a3
_atom_type_scat_Cromer_Mann_b3
_atom_type_scat_Cromer_Mann_a4
_atom_type_scat_Cromer_Mann_b4
_atom_type_scat_Cromer_Mann_c
_atom_type_scat_dispersion_real
_atom_type_scat_dispersion_imag
_atom_type_scat_source
Pb 31.06170 0.69020 13.06370 2.35760 18.44200 8.61800 5.96960 47.25790 13.41180
-4.81800 8.50500
International_Tables_for_Crystallography_Vol.C(1991)_Tables_6.1.1.4_and_6.1.1.5
Ga 15.23540 3.06690 6.70060 0.24120 4.35910 10.78050 2.96230 61.41350 1.71890
-1.35400 0.77700
International_Tables_for_Crystallography_Vol.C(1991)_Tables_6.1.1.4_and_6.1.1.5
F 3.53920 10.28250 2.64120 4.29440 1.51700 0.26150 1.02430 26.14760 0.27760
0.06900 0.05300
International_Tables_for_Crystallography_Vol.C(1991)_Tables_6.1.1.4_and_6.1.1.5
loop_
_geom_angle_atom_site_label_1
_geom_angle_atom_site_label_2
_geom_angle_atom_site_label_3
_geom_angle
_geom_angle_site_symmetry_1
_geom_angle_site_symmetry_3
F1 Pb1 F1 117.1(10) 1_555 4_555
F1 Pb1 F1 140.8(11) 1_555 6_555
F1 Pb1 F2 111.4(10) 1_555 11_554
F1 Pb1 F2 69.6(7) 1_555 13_555
F1 Pb1 F3 53.3(12) 1_555 1_555
F1 Pb1 F3 84.7(14) 1_555 7_555
F1 Pb1 F4 117.1(12) 1_555 2_655
F1 Pb1 F6 148.9(14) 1_555 4_555
F1 Pb1 F6 165.0(14) 1_555 6_555
F1 Pb1 F7 51.6(9) 1_555 1_555
F1 Pb1 F9 59.8(16) 1_555 1_555
F1 Pb1 F1 50.6(7) 4_555 6_555
F1 Pb1 F1 140.8(11) 4_555 7_555
F1 Pb1 F2 125.7(11) 4_555 11_554
F1 Pb1 F2 76.5(8) 4_555 13_555
F1 Pb1 F3 64.4(13) 4_555 1_555
F1 Pb1 F3 98.5(16) 4_555 7_555
F1 Pb1 F4 102.0(12) 4_555 2_655
F1 Pb1 F6 50.0(9) 4_555 4_555
F1 Pb1 F6 58.9(10) 4_555 6_555
F1 Pb1 F7 154.2(15) 4_555 1_555
F1 Pb1 F9 81.1(18) 4_555 1_555
F1 Pb1 F1 117.1(10) 6_555 7_555
F1 Pb1 F2 76.5(8) 6_555 11_554
F1 Pb1 F2 125.7(11) 6_555 13_555
F1 Pb1 F3 98.5(16) 6_555 1_555
F1 Pb1 F3 64.4(13) 6_555 7_555
F1 Pb1 F4 102.0(12) 6_555 2_655
F1 Pb1 F6 58.9(10) 6_555 4_555
F1 Pb1 F6 50.0(9) 6_555 6_555
F1 Pb1 F7 154.2(15) 6_555 1_555
F1 Pb1 F9 81.1(18) 6_555 1_555
F1 Pb1 F2 69.6(7) 7_555 11_554
F1 Pb1 F2 111.4(10) 7_555 13_555
F1 Pb1 F3 84.7(14) 7_555 1_555
F1 Pb1 F3 53.3(12) 7_555 7_555
F1 Pb1 F4 117.1(12) 7_555 2_655
F1 Pb1 F6 165.0(14) 7_555 4_555
F1 Pb1 F6 148.9(14) 7_555 6_555
F1 Pb1 F7 51.6(9) 7_555 1_555
F1 Pb1 F9 59.8(16) 7_555 1_555
F2 Pb1 F2 145.8(10) 11_554 13_555
F2 Pb1 F3 146.9(18) 11_554 1_555
F2 Pb1 F3 62.8(12) 11_554 7_555
F2 Pb1 F4 74.9(9) 11_554 2_655
F2 Pb1 F6 95.6(13) 11_554 4_555
F2 Pb1 F6 79.4(12) 11_554 6_555
F2 Pb1 F7 77.7(10) 11_554 1_555
F2 Pb1 F9 104.6(18) 11_554 1_555
F2 Pb1 F3 62.8(12) 13_555 1_555
F2 Pb1 F3 146.9(18) 13_555 7_555
F2 Pb1 F4 74.9(9) 13_555 2_655
F2 Pb1 F6 79.4(12) 13_555 4_555
F2 Pb1 F6 95.6(13) 13_555 6_555
F2 Pb1 F7 77.7(10) 13_555 1_555
F2 Pb1 F9 104.6(18) 13_555 1_555
F3 Pb1 F3 85.3(19) 1_555 7_555
F3 Pb1 F4 137.3(18) 1_555 2_655
F3 Pb1 F6 109.9(18) 1_555 4_555
F3 Pb1 F6 122.7(19) 1_555 6_555
F3 Pb1 F7 102.8(19) 1_555 1_555
F3 Pb1 F4 137.3(18) 7_555 2_655
F3 Pb1 F6 122.7(19) 7_555 4_555
F3 Pb1 F6 109.9(18) 7_555 6_555
F3 Pb1 F7 102.8(19) 7_555 1_555
F4 Pb1 F6 54.2(11) 2_655 4_555
F4 Pb1 F6 54.2(11) 2_655 6_555
F4 Pb1 F7 71.5(13) 2_655 1_555
F4 Pb1 F9 177(3) 2_655 1_555
F6 Pb1 F7 124.8(17) 4_555 1_555
F6 Pb1 F9 129(2) 4_555 1_555
F6 Pb1 F7 124.8(17) 6_555 1_555
F6 Pb1 F9 129(2) 6_555 1_555
F7 Pb1 F9 105(2) 1_555 1_555
F1 Pb2 F1 139.9(15) 10_554 16_555
F1 Pb2 F2 129.8(12) 10_554 1_555
F1 Pb2 F2 78.3(9) 10_554 7_555
F1 Pb2 F3 56.0(10) 10_554 10_554
F1 Pb2 F3 66.7(13) 10_554 11_554
F1 Pb2 F3 149.7(20) 10_554 13_555
F1 Pb2 F3 123.4(16) 10_554 16_555
F1 Pb2 F4 81.7(11) 10_554 1_555
F1 Pb2 F7 70.2(10) 10_554 4_565
F1 Pb2 F8 71.9(12) 10_554 10_554
F1 Pb2 F8 84.5(15) 10_554 11_554
F1 Pb2 F8 129.5(18) 10_554 13_555
F1 Pb2 F8 114.1(15) 10_554 16_555
F1 Pb2 F2 78.3(9) 16_555 1_555
F1 Pb2 F2 129.8(12) 16_555 7_555
F1 Pb2 F3 123.4(16) 16_555 10_554
F1 Pb2 F3 149.7(20) 16_555 11_554
F1 Pb2 F3 66.7(13) 16_555 13_555
F1 Pb2 F3 56.0(10) 16_555 16_555
F1 Pb2 F4 81.7(11) 16_555 1_555
F1 Pb2 F7 70.2(10) 16_555 4_565
F1 Pb2 F8 114.1(15) 16_555 10_554
F1 Pb2 F8 129.5(18) 16_555 11_554
F1 Pb2 F8 84.5(15) 16_555 13_555
F1 Pb2 F8 71.9(12) 16_555 16_555
F2 Pb2 F2 53.3(6) 1_555 7_555
F2 Pb2 F3 141.0(16) 1_555 10_554
F2 Pb2 F3 92.7(14) 1_555 11_554
F2 Pb2 F3 56.4(11) 1_555 13_555
F2 Pb2 F3 104.3(14) 1_555 16_555
F2 Pb2 F4 72.8(10) 1_555 1_555
F2 Pb2 F7 136.4(14) 1_555 4_565
F2 Pb2 F8 130.6(16) 1_555 10_554
F2 Pb2 F8 88.2(13) 1_555 11_554
F2 Pb2 F8 67.7(12) 1_555 13_555
F2 Pb2 F8 107.9(15) 1_555 16_555
F2 Pb2 F3 104.3(14) 7_555 10_554
F2 Pb2 F3 56.4(11) 7_555 11_554
F2 Pb2 F3 92.7(14) 7_555 13_555
F2 Pb2 F3 141.0(16) 7_555 16_555
F2 Pb2 F4 72.8(10) 7_555 1_555
F2 Pb2 F7 136.4(14) 7_555 4_565
F2 Pb2 F8 107.9(15) 7_555 10_554
F2 Pb2 F8 67.7(12) 7_555 11_554
F2 Pb2 F8 88.2(13) 7_555 13_555
F2 Pb2 F8 130.6(16) 7_555 16_555
F3 Pb2 F3 51.4(14) 10_554 11_554
F3 Pb2 F3 99.7(18) 10_554 13_555
F3 Pb2 F3 72.5(14) 10_554 16_555
F3 Pb2 F4 136.5(17) 10_554 1_555
F3 Pb2 F7 82.5(14) 10_554 4_565
F3 Pb2 F8 52.8(14) 10_554 11_554
F3 Pb2 F8 81.7(17) 10_554 13_555
F3 Pb2 F8 59.5(13) 10_554 16_555
F3 Pb2 F3 84.1(18) 11_554 13_555
F3 Pb2 F3 99.7(18) 11_554 16_555
F3 Pb2 F4 123.7(18) 11_554 1_555
F3 Pb2 F7 129(2) 11_554 4_565
F3 Pb2 F8 51.5(14) 11_554 10_554
F3 Pb2 F8 65.4(15) 11_554 13_555
F3 Pb2 F8 83.7(17) 11_554 16_555
F3 Pb2 F3 51.4(14) 13_555 16_555
F3 Pb2 F4 123.7(18) 13_555 1_555
F3 Pb2 F7 129(2) 13_555 4_565
F3 Pb2 F8 83.7(17) 13_555 10_554
F3 Pb2 F8 65.4(15) 13_555 11_554
F3 Pb2 F8 51.5(14) 13_555 16_555
F3 Pb2 F4 136.5(17) 16_555 1_555
F3 Pb2 F7 82.5(14) 16_555 4_565
F3 Pb2 F8 59.5(13) 16_555 10_554
F3 Pb2 F8 81.7(17) 16_555 11_554
F3 Pb2 F8 52.8(14) 16_555 13_555
F4 Pb2 F7 73.4(13) 1_555 4_565
F4 Pb2 F8 152.6(19) 1_555 10_554
F4 Pb2 F8 140.0(19) 1_555 11_554
F4 Pb2 F8 140.0(19) 1_555 13_555
F4 Pb2 F8 152.6(19) 1_555 16_555
F7 Pb2 F8 90.5(16) 4_565 10_554
F7 Pb2 F8 135(2) 4_565 11_554
F7 Pb2 F8 135(2) 4_565 13_555
F7 Pb2 F8 90.5(16) 4_565 16_555
F8 Pb2 F8 45.8(14) 10_554 11_554
F8 Pb2 F8 66.5(16) 10_554 13_555
F8 Pb2 F8 45.0(11) 10_554 16_555
F8 Pb2 F8 45.8(13) 11_554 13_555
F8 Pb2 F8 66.5(16) 11_554 16_555
F8 Pb2 F8 45.8(14) 13_555 16_555
Ga1 Ga1 F3 96.2(17) 5_555 1_555
Ga1 Ga1 F3 96.2(20) 5_555 2_555
Ga1 Ga1 F3 96.2(17) 5_555 3_555
Ga1 Ga1 F3 96.2(20) 5_555 4_555
Ga1 Ga1 F8 126.4(18) 5_555 1_555
Ga1 Ga1 F8 126.4(19) 5_555 2_555
Ga1 Ga1 F8 126.4(18) 5_555 3_555
Ga1 Ga1 F8 126.4(19) 5_555 4_555
Ga1 Ga1 F8 155.0(12) 5_555 5_556
Ga1 Ga1 F8 155.0(13) 5_555 6_556
Ga1 Ga1 F8 155.0(12) 5_555 7_556
Ga1 Ga1 F8 155.0(13) 5_555 8_556
F3 Ga1 F3 89(2) 1_555 2_555
F3 Ga1 F3 168(3) 1_555 3_555
F3 Ga1 F3 89(3) 1_555 4_555
F3 Ga1 F8 92(2) 1_555 2_555
F3 Ga1 F8 137(3) 1_555 3_555
F3 Ga1 F8 81(3) 1_555 4_555
F3 Ga1 F8 109(2) 1_555 5_556
F3 Ga1 F8 82(2) 1_555 6_556
F3 Ga1 F8 58.9(16) 1_555 7_556
F3 Ga1 F8 87.1(19) 1_555 8_556
F3 Ga1 F9 55.2(17) 1_555 1_555
F3 Ga1 F9 101(3) 1_555 2_555
F3 Ga1 F9 137(3) 1_555 3_555
F3 Ga1 F9 88(3) 1_555 4_555
F3 Ga1 F3 89(3) 2_555 3_555
F3 Ga1 F3 168(4) 2_555 4_555
F3 Ga1 F8 81(2) 2_555 1_555
F3 Ga1 F8 92(3) 2_555 3_555
F3 Ga1 F8 137(4) 2_555 4_555
F3 Ga1 F8 87(2) 2_555 5_556
F3 Ga1 F8 109(3) 2_555 6_556
F3 Ga1 F8 82(2) 2_555 7_556
F3 Ga1 F8 58.9(19) 2_555 8_556
F3 Ga1 F9 88(3) 2_555 1_555
F3 Ga1 F9 55.2(20) 2_555 2_555
F3 Ga1 F9 101(3) 2_555 3_555
F3 Ga1 F9 137(4) 2_555 4_555
F3 Ga1 F3 89(2) 3_555 4_555
F3 Ga1 F8 137(3) 3_555 1_555
F3 Ga1 F8 81(3) 3_555 2_555
F3 Ga1 F8 92(2) 3_555 4_555
F3 Ga1 F8 58.9(16) 3_555 5_556
F3 Ga1 F8 87.1(19) 3_555 6_556
F3 Ga1 F8 109(2) 3_555 7_556
F3 Ga1 F8 82(2) 3_555 8_556
F3 Ga1 F9 137(3) 3_555 1_555
F3 Ga1 F9 88(3) 3_555 2_555
F3 Ga1 F9 55.2(17) 3_555 3_555
F3 Ga1 F9 101(3) 3_555 4_555
F3 Ga1 F8 92(3) 4_555 1_555
F3 Ga1 F8 137(4) 4_555 2_555
F3 Ga1 F8 81(2) 4_555 3_555
F3 Ga1 F8 82(2) 4_555 5_556
F3 Ga1 F8 58.9(19) 4_555 6_556
F3 Ga1 F8 87(2) 4_555 7_556
F3 Ga1 F8 109(3) 4_555 8_556
F3 Ga1 F9 101(3) 4_555 1_555
F3 Ga1 F9 137(4) 4_555 2_555
F3 Ga1 F9 88(3) 4_555 3_555
F3 Ga1 F9 55.2(20) 4_555 4_555
F8 Ga1 F8 69(2) 1_555 2_555
F8 Ga1 F8 107(3) 1_555 3_555
F8 Ga1 F8 69(3) 1_555 4_555
F8 Ga1 F8 78.7(19) 1_555 5_556
F8 Ga1 F8 57.5(18) 1_555 6_556
F8 Ga1 F8 57.5(16) 1_555 8_556
F8 Ga1 F9 84.7(18) 1_555 1_555
F8 Ga1 F9 118(2) 1_555 2_555
F8 Ga1 F9 168(3) 1_555 3_555
F8 Ga1 F9 114(3) 1_555 4_555
F8 Ga1 F8 69(3) 2_555 3_555
F8 Ga1 F8 107(3) 2_555 4_555
F8 Ga1 F8 57.5(19) 2_555 5_556
F8 Ga1 F8 79(2) 2_555 6_556
F8 Ga1 F8 57.5(17) 2_555 7_556
F8 Ga1 F9 114(2) 2_555 1_555
F8 Ga1 F9 84.7(19) 2_555 2_555
F8 Ga1 F9 118(3) 2_555 3_555
F8 Ga1 F9 168(3) 2_555 4_555
F8 Ga1 F8 69(2) 3_555 4_555
F8 Ga1 F8 57.5(16) 3_555 6_556
F8 Ga1 F8 78.7(19) 3_555 7_556
F8 Ga1 F8 57.5(18) 3_555 8_556
F8 Ga1 F9 168(3) 3_555 1_555
F8 Ga1 F9 114(3) 3_555 2_555
F8 Ga1 F9 84.7(18) 3_555 3_555
F8 Ga1 F9 118(2) 3_555 4_555
F8 Ga1 F8 57.5(17) 4_555 5_556
F8 Ga1 F8 57.5(19) 4_555 7_556
F8 Ga1 F8 79(2) 4_555 8_556
F8 Ga1 F9 118(3) 4_555 1_555
F8 Ga1 F9 168(3) 4_555 2_555
F8 Ga1 F9 114(2) 4_555 3_555
F8 Ga1 F9 84.7(19) 4_555 4_555
F8 Ga1 F8 50.1(10) 5_556 7_556
F8 Ga1 F9 163(2) 5_556 1_555
F8 Ga1 F9 131.4(19) 5_556 2_555
F8 Ga1 F9 113.3(15) 5_556 3_555
F8 Ga1 F9 133.8(18) 5_556 4_555
F8 Ga1 F8 50.1(11) 6_556 8_556
F8 Ga1 F9 133.8(19) 6_556 1_555
F8 Ga1 F9 163(2) 6_556 2_555
F8 Ga1 F9 131.4(17) 6_556 3_555
F8 Ga1 F9 113.3(16) 6_556 4_555
F8 Ga1 F9 113.3(15) 7_556 1_555
F8 Ga1 F9 133.8(18) 7_556 2_555
F8 Ga1 F9 163(2) 7_556 3_555
F8 Ga1 F9 131.4(19) 7_556 4_555
F8 Ga1 F9 131.4(17) 8_556 1_555
F8 Ga1 F9 113.3(16) 8_556 2_555
F8 Ga1 F9 133.8(19) 8_556 3_555
F8 Ga1 F9 163(2) 8_556 4_555
F9 Ga1 F9 56(2) 1_555 2_555
F9 Ga1 F9 83(3) 1_555 3_555
F9 Ga1 F9 56(2) 1_555 4_555
F9 Ga1 F9 56(2) 2_555 3_555
F9 Ga1 F9 83(3) 2_555 4_555
F9 Ga1 F9 56(2) 3_555 4_555
F4 Ga2 F4 180(3) 1_555 3_565
F4 Ga2 F5 90.0(11) 1_555 1_555
F4 Ga2 F5 90.0(11) 1_555 5_565
F4 Ga2 F6 95(2) 1_555 1_555
F4 Ga2 F6 85(2) 1_555 3_565
F4 Ga2 F6 85(2) 1_555 5_565
F4 Ga2 F6 95(2) 1_555 7_555
F4 Ga2 F5 90.0(11) 3_565 1_555
F4 Ga2 F5 90.0(11) 3_565 5_565
F4 Ga2 F6 85(2) 3_565 1_555
F4 Ga2 F6 95(2) 3_565 3_565
F4 Ga2 F6 95(2) 3_565 5_565
F4 Ga2 F6 85(2) 3_565 7_555
F5 Ga2 F5 180.000(13) 1_555 5_565
F5 Ga2 F6 77.3(14) 1_555 1_555
F5 Ga2 F6 77.3(14) 1_555 3_565
F5 Ga2 F6 102.7(17) 1_555 5_565
F5 Ga2 F6 102.7(17) 1_555 7_555
F5 Ga2 F6 102.7(17) 5_565 1_555
F5 Ga2 F6 102.7(17) 5_565 3_565
F5 Ga2 F6 77.3(14) 5_565 5_565
F5 Ga2 F6 77.3(14) 5_565 7_555
F6 Ga2 F6 155(3) 1_555 3_565
F6 Ga2 F6 180(3) 1_555 5_565
F6 Ga2 F6 180(3) 3_565 7_555
F6 Ga2 F6 155(3) 5_565 7_555
F1 Ga3 F1 84.9(16) 1_555 7_555
F1 Ga3 F2 93.5(14) 1_555 1_555
F1 Ga3 F2 175.0(18) 1_555 7_555
F1 Ga3 F6 79.1(17) 1_555 1_555
F1 Ga3 F6 95.5(19) 1_555 7_555
F1 Ga3 F7 91.9(18) 1_555 1_555
F1 Ga3 F2 175.0(18) 7_555 1_555
F1 Ga3 F2 93.5(14) 7_555 7_555
F1 Ga3 F6 95.5(19) 7_555 1_555
F1 Ga3 F6 79.1(17) 7_555 7_555
F1 Ga3 F7 91.9(18) 7_555 1_555
F2 Ga3 F2 87.6(12) 1_555 7_555
F2 Ga3 F6 79.5(17) 1_555 1_555
F2 Ga3 F6 96.4(18) 1_555 7_555
F2 Ga3 F7 92.9(17) 1_555 1_555
F2 Ga3 F6 96.4(18) 7_555 1_555
F2 Ga3 F6 79.5(17) 7_555 7_555
F2 Ga3 F7 92.9(17) 7_555 1_555
F6 Ga3 F7 168(3) 1_555 1_555
F6 Ga3 F7 168(3) 7_555 1_555
Pb1 F1 Pb1 114.2(5) 1_555 2_555
Pb1 F1 Pb2 117.2(6) 1_555 12_455
Pb1 F1 Ga3 84.6(8) 1_555 1_555
Pb1 F1 F1 68.1(9) 1_555 7_555
Pb1 F1 F2 105.4(8) 1_555 1_555
Pb1 F1 F2 145.3(8) 1_555 14_455
Pb1 F1 F3 49.0(12) 1_555 1_555
Pb1 F1 F3 96.4(12) 1_555 2_555
Pb1 F1 F4 148.6(9) 1_555 12_455
Pb1 F1 F6 133.3(14) 1_555 1_555
Pb1 F1 F6 118.7(12) 1_555 7_555
Pb1 F1 F7 46.9(9) 1_555 1_555
Pb1 F1 F7 90.8(7) 1_555 11_555
Pb1 F1 F8 66.4(11) 1_555 1_555
Pb1 F1 F8 95.5(10) 1_555 2_555
Pb1 F1 Pb2 96.7(6) 2_555 12_455
Pb1 F1 Ga3 94.8(8) 2_555 1_555
Pb1 F1 F1 64.7(9) 2_555 7_555
Pb1 F1 F2 117.4(9) 2_555 1_555
Pb1 F1 F2 148.1(8) 2_555 13_555
Pb1 F1 F2 46.0(6) 2_555 14_455
Pb1 F1 F3 99.3(15) 2_555 1_555
Pb1 F1 F3 52.2(11) 2_555 2_555
Pb1 F1 F4 96.4(7) 2_555 12_455
Pb1 F1 F6 61.5(11) 2_555 1_555
Pb1 F1 F6 57.7(10) 2_555 7_555
Pb1 F1 F7 126.4(13) 2_555 1_555
Pb1 F1 F7 150.1(10) 2_555 11_555
Pb1 F1 F8 97.7(14) 2_555 1_555
Pb1 F1 F8 66.1(10) 2_555 2_555
Pb1 F1 F9 74.5(17) 2_555 1_555
Pb2 F1 Ga3 147.8(8) 12_455 1_555
Pb2 F1 F1 160.0(13) 12_455 7_555
Pb2 F1 F2 106.1(9) 12_455 1_555
Pb2 F1 F2 82.1(8) 12_455 13_555
Pb2 F1 F2 54.1(7) 12_455 14_455
Pb2 F1 F3 74.0(15) 12_455 1_555
Pb2 F1 F3 61.1(12) 12_455 2_555
Pb2 F1 F4 48.6(8) 12_455 12_455
Pb2 F1 F6 109.4(15) 12_455 1_555
Pb2 F1 F6 124.0(14) 12_455 7_555
Pb2 F1 F7 136.8(11) 12_455 1_555
Pb2 F1 F7 55.5(9) 12_455 11_555
Pb2 F1 F8 55.9(13) 12_455 1_555
Pb2 F1 F8 48.7(10) 12_455 2_555
Pb2 F1 F9 103.9(16) 12_455 1_555
Ga3 F1 F1 47.5(11) 1_555 7_555
Ga3 F1 F2 103.1(10) 1_555 13_555
Ga3 F1 F2 120.5(11) 1_555 14_455
Ga3 F1 F3 133(2) 1_555 1_555
Ga3 F1 F3 144(2) 1_555 2_555
Ga3 F1 F4 100.3(9) 1_555 12_455
Ga3 F1 F6 51.9(13) 1_555 1_555
Ga3 F1 F7 104.2(9) 1_555 11_555
Ga3 F1 F8 151(2) 1_555 1_555
Ga3 F1 F8 159.1(19) 1_555 2_555
Ga3 F1 F9 108(3) 1_555 1_555
F1 F1 F2 90.0(12) 7_555 1_555
F1 F1 F2 109.4(12) 7_555 13_555
F1 F1 F2 109.7(12) 7_555 14_455
F1 F1 F3 100.5(19) 7_555 1_555
F1 F1 F3 99.8(17) 7_555 2_555
F1 F1 F4 136.4(12) 7_555 12_455
F1 F1 F6 69.5(14) 7_555 1_555
F1 F1 F6 53.7(12) 7_555 7_555
F1 F1 F7 61.9(12) 7_555 1_555
F1 F1 F7 144.2(13) 7_555 11_555
F1 F1 F8 116.6(18) 7_555 1_555
F1 F1 F8 113.2(16) 7_555 2_555
F1 F1 F9 65.3(18) 7_555 1_555
F2 F1 F2 93.2(10) 1_555 13_555
F2 F1 F2 109.3(10) 1_555 14_455
F2 F1 F3 143(2) 1_555 1_555
F2 F1 F3 158.1(19) 1_555 2_555
F2 F1 F4 63.2(9) 1_555 12_455
F2 F1 F6 56.0(12) 1_555 1_555
F2 F1 F6 61.2(11) 1_555 7_555
F2 F1 F7 59.6(11) 1_555 1_555
F2 F1 F7 67.4(9) 1_555 11_555
F2 F1 F8 143.1(20) 1_555 1_555
F2 F1 F8 153.5(17) 1_555 2_555
F2 F1 F9 146(3) 1_555 1_555
F2 F1 F2 134.4(10) 13_555 14_455
F2 F1 F3 49.5(12) 13_555 1_555
F2 F1 F3 101.8(13) 13_555 2_555
F2 F1 F4 105.9(10) 13_555 12_455
F2 F1 F6 148.8(16) 13_555 1_555
F2 F1 F6 146.3(15) 13_555 7_555
F2 F1 F7 60.4(9) 13_555 1_555
F2 F1 F7 48.5(8) 13_555 11_555
F2 F1 F8 55.2(11) 13_555 1_555
F2 F1 F8 90.8(11) 13_555 2_555
F2 F1 F9 74.9(14) 13_555 1_555
F2 F1 F3 100.6(16) 14_455 1_555
F2 F1 F3 49.0(11) 14_455 2_555
F2 F1 F4 56.3(8) 14_455 12_455
F2 F1 F6 68.9(12) 14_455 1_555
F2 F1 F6 77.8(11) 14_455 7_555
F2 F1 F7 164.3(14) 14_455 1_555
F2 F1 F7 104.0(12) 14_455 11_555
F2 F1 F8 86.4(14) 14_455 1_555
F2 F1 F8 52.3(10) 14_455 2_555
F2 F1 F9 101.4(18) 14_455 1_555
F3 F1 F3 54.7(15) 1_555 2_555
F3 F1 F4 121.8(19) 1_555 12_455
F3 F1 F6 161(3) 1_555 1_555
F3 F1 F6 150(2) 1_555 7_555
F3 F1 F7 94.2(18) 1_555 1_555
F3 F1 F7 84.5(17) 1_555 11_555
F3 F1 F8 48.4(14) 1_555 2_555
F3 F1 F4 97.0(16) 2_555 12_455
F3 F1 F6 109(2) 2_555 1_555
F3 F1 F6 109.5(19) 2_555 7_555
F3 F1 F7 142.2(19) 2_555 1_555
F3 F1 F7 111.4(16) 2_555 11_555
F3 F1 F8 46.7(13) 2_555 1_555
F3 F1 F9 55.1(16) 2_555 1_555
F4 F1 F6 67.0(12) 12_455 1_555
F4 F1 F6 82.8(11) 12_455 7_555
F4 F1 F7 119.3(12) 12_455 1_555
F4 F1 F7 57.9(10) 12_455 11_555
F4 F1 F8 104.2(17) 12_455 1_555
F4 F1 F8 90.5(14) 12_455 2_555
F4 F1 F9 151(2) 12_455 1_555
F6 F1 F7 95.4(17) 1_555 1_555
F6 F1 F7 113.5(16) 1_555 11_555
F6 F1 F8 155(2) 1_555 1_555
F6 F1 F8 119(2) 1_555 2_555
F6 F1 F9 127(3) 1_555 1_555
F6 F1 F7 86.7(15) 7_555 1_555
F6 F1 F7 125.4(15) 7_555 11_555
F6 F1 F8 155(2) 7_555 1_555
F6 F1 F8 122.0(18) 7_555 2_555
F6 F1 F9 113(2) 7_555 1_555
F7 F1 F7 82.5(9) 1_555 11_555
F7 F1 F8 109.1(17) 1_555 1_555
F7 F1 F8 142.2(17) 1_555 2_555
F7 F1 F9 87(2) 1_555 1_555
F7 F1 F8 76.6(15) 11_555 1_555
F7 F1 F8 96.7(14) 11_555 2_555
F7 F1 F9 119.5(18) 11_555 1_555
F8 F1 F9 51.4(14) 1_555 1_555
F8 F1 F9 60.2(14) 2_555 1_555
Pb1 F2 Pb2 101.3(5) 11_555 1_555
Pb1 F2 Ga3 149.2(7) 11_555 1_555
Pb1 F2 F1 106.2(9) 11_555 1_555
Pb1 F2 F1 67.0(7) 11_555 13_555
Pb1 F2 F1 57.5(7) 11_555 16_555
Pb1 F2 F2 162.9(9) 11_555 7_555
Pb1 F2 F3 60.3(11) 11_555 13_555
Pb1 F2 F4 110.2(8) 11_555 1_555
Pb1 F2 F4 55.6(7) 11_555 12_455
Pb1 F2 F5 88.1(4) 11_555 1_555
Pb1 F2 F6 124.1(15) 11_555 1_555
Pb1 F2 F6 139.6(14) 11_555 7_555
Pb1 F2 F6 53.8(9) 11_555 16_555
Pb1 F2 F7 121.7(9) 11_555 1_555
Pb1 F2 F7 50.8(7) 11_555 11_555
Pb1 F2 F8 78.7(11) 11_555 13_555
Pb2 F2 Ga3 109.3(7) 1_555 1_555
Pb2 F2 F1 151.8(10) 1_555 1_555
Pb2 F2 F1 109.7(8) 1_555 13_555
Pb2 F2 F1 47.5(6) 1_555 16_555
Pb2 F2 F2 63.4(7) 1_555 7_555
Pb2 F2 F3 62.2(12) 1_555 13_555
Pb2 F2 F4 49.3(8) 1_555 1_555
Pb2 F2 F4 125.9(8) 1_555 12_455
Pb2 F2 F5 91.9(5) 1_555 1_555
Pb2 F2 F6 102.5(13) 1_555 1_555
Pb2 F2 F6 93.1(12) 1_555 7_555
Pb2 F2 F6 81.4(10) 1_555 16_555
Pb2 F2 F7 109.6(11) 1_555 1_555
Pb2 F2 F7 146.9(9) 1_555 11_555
Pb2 F2 F8 53.4(10) 1_555 13_555
Ga3 F2 F1 98.6(10) 1_555 13_555
Ga3 F2 F1 151.9(12) 1_555 16_555
Ga3 F2 F2 46.2(8) 1_555 7_555
Ga3 F2 F3 133.0(19) 1_555 13_555
Ga3 F2 F4 92.7(12) 1_555 1_555
Ga3 F2 F4 106.0(8) 1_555 12_455
Ga3 F2 F5 94.1(6) 1_555 1_555
Ga3 F2 F6 52.5(12) 1_555 1_555
Ga3 F2 F6 133.4(15) 1_555 16_555
Ga3 F2 F7 99.1(8) 1_555 11_555
Ga3 F2 F8 117.2(17) 1_555 13_555
F1 F2 F1 86.8(10) 1_555 13_555
F1 F2 F1 151.9(12) 1_555 16_555
F1 F2 F2 90.0(11) 1_555 7_555
F1 F2 F3 138.9(18) 1_555 13_555
F1 F2 F4 113.5(13) 1_555 1_555
F1 F2 F4 68.1(9) 1_555 12_455
F1 F2 F5 83.3(8) 1_555 1_555
F1 F2 F6 56.6(12) 1_555 1_555
F1 F2 F6 61.8(12) 1_555 7_555
F1 F2 F6 110.2(13) 1_555 16_555
F1 F2 F7 59.9(11) 1_555 1_555
F1 F2 F7 60.5(9) 1_555 11_555
F1 F2 F8 138.4(17) 1_555 13_555
F1 F2 F1 104.4(9) 13_555 16_555
F1 F2 F2 109.4(10) 13_555 7_555
F1 F2 F3 52.1(12) 13_555 13_555
F1 F2 F4 158.8(12) 13_555 1_555
F1 F2 F4 103.8(10) 13_555 12_455
F1 F2 F5 149.4(8) 13_555 1_555
F1 F2 F6 143.0(16) 13_555 1_555
F1 F2 F6 141.5(15) 13_555 7_555
F1 F2 F6 120.8(12) 13_555 16_555
F1 F2 F7 56.5(9) 13_555 1_555
F1 F2 F7 47.7(7) 13_555 11_555
F1 F2 F8 56.4(11) 13_555 13_555
F1 F2 F2 109.7(11) 16_555 7_555
F1 F2 F3 57.2(12) 16_555 13_555
F1 F2 F4 60.6(8) 16_555 1_555
F1 F2 F4 84.1(9) 16_555 12_455
F1 F2 F5 74.0(6) 16_555 1_555
F1 F2 F6 110.8(15) 16_555 1_555
F1 F2 F6 113.7(14) 16_555 7_555
F1 F2 F7 147.2(14) 16_555 1_555
F1 F2 F7 108.3(11) 16_555 11_555
F1 F2 F8 65.5(11) 16_555 13_555
F2 F2 F3 103.8(16) 7_555 13_555
F2 F2 F4 66.6(10) 7_555 1_555
F2 F2 F4 138.9(9) 7_555 12_455
F2 F2 F5 99.5(7) 7_555 1_555
F2 F2 F6 69.4(13) 7_555 1_555
F2 F2 F6 53.5(11) 7_555 7_555
F2 F2 F6 126.0(14) 7_555 16_555
F2 F2 F7 61.7(10) 7_555 1_555
F2 F2 F7 139.9(9) 7_555 11_555
F2 F2 F8 85.6(13) 7_555 13_555
F3 F2 F4 107.5(16) 13_555 1_555
F3 F2 F4 115.7(16) 13_555 12_455
F3 F2 F5 130.5(13) 13_555 1_555
F3 F2 F6 164(2) 13_555 1_555
F3 F2 F6 154(2) 13_555 7_555
F3 F2 F6 92.7(15) 13_555 16_555
F3 F2 F7 92.7(17) 13_555 1_555
F3 F2 F7 86.2(15) 13_555 11_555
F4 F2 F4 90.1(8) 1_555 12_455
F4 F2 F5 45.8(6) 1_555 1_555
F4 F2 F6 57.0(12) 1_555 1_555
F4 F2 F6 54.3(11) 1_555 7_555
F4 F2 F6 59.4(9) 1_555 16_555
F4 F2 F7 127.6(15) 1_555 1_555
F4 F2 F7 147.5(12) 1_555 11_555
F4 F2 F8 102.5(14) 1_555 13_555
F4 F2 F5 45.7(6) 12_455 1_555
F4 F2 F6 69.5(12) 12_455 1_555
F4 F2 F6 85.4(11) 12_455 7_555
F4 F2 F7 124.2(12) 12_455 1_555
F4 F2 F7 57.7(9) 12_455 11_555
F4 F2 F8 134.0(15) 12_455 13_555
F5 F2 F6 53.6(9) 1_555 7_555
F5 F2 F7 136.8(12) 1_555 1_555
F5 F2 F7 102.9(9) 1_555 11_555
F5 F2 F8 138.3(12) 1_555 13_555
F6 F2 F6 81.0(15) 1_555 16_555
F6 F2 F7 96.0(17) 1_555 1_555
F6 F2 F7 108.2(15) 1_555 11_555
F6 F2 F8 152(2) 1_555 13_555
F6 F2 F6 92.2(14) 7_555 16_555
F6 F2 F7 87.2(15) 7_555 1_555
F6 F2 F7 119.5(14) 7_555 11_555
F6 F2 F8 137.4(18) 7_555 13_555
F6 F2 F7 168.9(16) 16_555 1_555
F6 F2 F7 91.4(12) 16_555 11_555
F6 F2 F8 105.7(15) 16_555 13_555
F7 F2 F7 79.3(8) 1_555 11_555
F7 F2 F8 81.9(15) 1_555 13_555
F7 F2 F8 98.8(14) 11_555 13_555
Pb1 F3 Pb2 98.5(10) 1_555 11_555
Pb1 F3 Pb2 121.4(10) 1_555 12_455
Pb1 F3 Ga1 129.4(12) 1_555 1_555
Pb1 F3 F1 77.7(13) 1_555 1_555
Pb1 F3 F1 63.4(12) 1_555 4_555
Pb1 F3 F2 57.0(11) 1_555 13_555
Pb1 F3 F3 129.1(17) 1_555 2_555
Pb1 F3 F3 112.1(20) 1_555 4_555
Pb1 F3 F8 159(4) 1_555 1_555
Pb1 F3 F8 150.4(17) 1_555 2_555
Pb1 F3 F8 148.4(16) 1_555 3_555
Pb1 F3 F8 130(2) 1_555 4_555
Pb1 F3 F8 141.3(16) 1_555 7_556
Pb1 F3 F9 64.4(19) 1_555 1_555
Pb1 F3 F9 100.3(18) 1_555 2_555
Pb1 F3 F9 84.2(20) 1_555 4_555
Pb2 F3 Pb2 99.1(10) 11_555 12_455
Pb2 F3 Ga1 109.0(13) 11_555 1_555
Pb2 F3 F1 132.2(14) 11_555 1_555
Pb2 F3 F1 52.2(12) 11_555 4_555
Pb2 F3 F2 61.4(11) 11_555 13_555
Pb2 F3 F3 132.3(18) 11_555 2_555
Pb2 F3 F3 71.7(17) 11_555 4_555
Pb2 F3 F8 68(3) 11_555 1_555
Pb2 F3 F8 110.9(16) 11_555 2_555
Pb2 F3 F8 92.3(13) 11_555 3_555
Pb2 F3 F8 60.9(17) 11_555 4_555
Pb2 F3 F8 54.1(13) 11_555 7_556
Pb2 F3 F9 142.8(20) 11_555 1_555
Pb2 F3 F9 150.5(18) 11_555 2_555
Pb2 F3 F9 103.4(16) 11_555 4_555
Pb2 F3 Ga1 95.6(12) 12_455 1_555
Pb2 F3 F1 50.0(13) 12_455 1_555
Pb2 F3 F1 150.0(13) 12_455 4_555
Pb2 F3 F2 85.0(11) 12_455 13_555
Pb2 F3 F3 56.9(14) 12_455 2_555
Pb2 F3 F3 126(2) 12_455 4_555
Pb2 F3 F8 50(3) 12_455 1_555
Pb2 F3 F8 52.4(13) 12_455 2_555
Pb2 F3 F8 85.5(14) 12_455 3_555
Pb2 F3 F8 107(2) 12_455 4_555
Pb2 F3 F8 51.3(13) 12_455 7_556
Pb2 F3 F9 118.1(19) 12_455 1_555
Pb2 F3 F9 90.2(14) 12_455 2_555
Pb2 F3 F9 143(2) 12_455 4_555
Ga1 F3 F1 109.5(16) 1_555 1_555
Ga1 F3 F1 101.8(15) 1_555 4_555
Ga1 F3 F2 170.2(15) 1_555 13_555
Ga1 F3 F3 45.3(16) 1_555 2_555
Ga1 F3 F3 45.3(18) 1_555 4_555
Ga1 F3 F8 71(3) 1_555 1_555
Ga1 F3 F8 48.3(19) 1_555 4_555
Ga1 F3 F8 88.1(17) 1_555 7_556
Ga1 F3 F9 68.2(19) 1_555 1_555
Ga1 F3 F9 49.0(18) 1_555 4_555
F1 F3 F1 140.2(16) 1_555 4_555
F1 F3 F2 78.4(14) 1_555 13_555
F1 F3 F3 66.6(16) 1_555 2_555
F1 F3 F3 154(3) 1_555 4_555
F1 F3 F8 99(4) 1_555 1_555
F1 F3 F8 80.3(17) 1_555 2_555
F1 F3 F8 115.7(18) 1_555 3_555
F1 F3 F8 151(3) 1_555 4_555
F1 F3 F8 100.3(18) 1_555 7_556
F1 F3 F9 79(2) 1_555 1_555
F1 F3 F9 74.3(18) 1_555 2_555
F1 F3 F9 123(3) 1_555 4_555
F1 F3 F2 73.8(13) 4_555 13_555
F1 F3 F3 147(2) 4_555 2_555
F1 F3 F3 58.7(17) 4_555 4_555
F1 F3 F8 114(4) 4_555 1_555
F1 F3 F8 139.0(19) 4_555 2_555
F1 F3 F8 102.3(15) 4_555 3_555
F1 F3 F8 68.9(18) 4_555 4_555
F1 F3 F8 104.7(17) 4_555 7_556
F1 F3 F9 91(2) 4_555 1_555
F1 F3 F9 119(2) 4_555 2_555
F1 F3 F9 63.2(17) 4_555 4_555
F2 F3 F3 139.3(18) 13_555 2_555
F2 F3 F3 127(2) 13_555 4_555
F2 F3 F8 102(4) 13_555 1_555
F2 F3 F8 136.2(18) 13_555 2_555
F2 F3 F8 150.1(17) 13_555 3_555
F2 F3 F8 122(2) 13_555 4_555
F2 F3 F8 84.6(15) 13_555 7_556
F2 F3 F9 120(2) 13_555 1_555
F2 F3 F9 148(2) 13_555 2_555
F2 F3 F9 132(2) 13_555 4_555
F3 F3 F3 90(2) 2_555 4_555
F3 F3 F8 65(4) 2_555 1_555
F3 F3 F8 49.6(16) 2_555 3_555
F3 F3 F8 86(2) 2_555 4_555
F3 F3 F8 82.0(18) 2_555 7_556
F3 F3 F9 74(2) 2_555 1_555
F3 F3 F9 86(2) 2_555 4_555
F3 F3 F8 80(5) 4_555 1_555
F3 F3 F8 81(2) 4_555 2_555
F3 F3 F8 87(2) 4_555 7_556
F3 F3 F9 84(3) 4_555 1_555
F3 F3 F9 80(2) 4_555 2_555
F8 F3 F8 51(4) 1_555 3_555
F8 F3 F8 59(4) 1_555 4_555
F8 F3 F9 135(4) 1_555 1_555
F8 F3 F9 98(4) 1_555 2_555
F8 F3 F9 114(4) 1_555 4_555
F8 F3 F8 71(2) 2_555 4_555
F8 F3 F8 62.3(16) 2_555 7_556
F8 F3 F9 92(2) 2_555 1_555
F8 F3 F9 54.4(14) 2_555 2_555
F8 F3 F9 92(2) 2_555 4_555
F8 F3 F8 67.4(15) 3_555 7_556
F8 F3 F9 89(2) 3_555 1_555
F8 F3 F9 60.4(15) 3_555 2_555
F8 F3 F9 64.4(16) 3_555 4_555
F8 F3 F8 65(2) 4_555 7_556
F8 F3 F9 103(3) 4_555 1_555
F8 F3 F9 90(2) 4_555 2_555
F8 F3 F9 60.9(19) 4_555 4_555
F8 F3 F9 154(2) 7_556 1_555
F8 F3 F9 116.5(17) 7_556 2_555
F8 F3 F9 125(2) 7_556 4_555
F9 F3 F9 45(2) 1_555 4_555
F9 F3 F9 57(2) 2_555 4_555
Pb1 F4 Pb2 105.2(8) 4_565 1_555
Pb1 F4 Ga2 110.9(10) 4_565 1_555
Pb1 F4 F1 86.5(9) 4_565 10_554
Pb1 F4 F1 86.5(9) 4_565 16_555
Pb1 F4 F2 149.4(10) 4_565 1_555
Pb1 F4 F2 149.4(10) 4_565 7_555
Pb1 F4 F2 49.5(7) 4_565 10_554
Pb1 F4 F2 49.5(7) 4_565 16_555
Pb1 F4 F5 104.7(7) 4_565 1_555
Pb1 F4 F5 104.7(7) 4_565 5_565
Pb1 F4 F6 151.8(15) 4_565 1_555
Pb1 F4 F6 64.1(12) 4_565 3_565
Pb1 F4 F6 64.1(12) 4_565 5_565
Pb1 F4 F6 151.8(15) 4_565 7_555
Pb1 F4 F6 92.9(11) 4_565 10_554
Pb1 F4 F6 92.9(11) 4_565 16_555
Pb1 F4 F7 50.6(10) 4_565 4_565
Pb2 F4 Ga2 143.9(10) 1_555 1_555
Pb2 F4 F1 49.7(8) 1_555 10_554
Pb2 F4 F1 49.7(8) 1_555 16_555
Pb2 F4 F2 57.9(9) 1_555 1_555
Pb2 F4 F2 57.9(9) 1_555 7_555
Pb2 F4 F2 93.8(9) 1_555 10_554
Pb2 F4 F2 93.8(9) 1_555 16_555
Pb2 F4 F5 125.0(7) 1_555 1_555
Pb2 F4 F5 125.0(7) 1_555 5_565
Pb2 F4 F6 101.6(14) 1_555 1_555
Pb2 F4 F6 165.5(17) 1_555 3_565
Pb2 F4 F6 165.5(17) 1_555 5_565
Pb2 F4 F6 101.6(14) 1_555 7_555
Pb2 F4 F6 88.7(11) 1_555 10_554
Pb2 F4 F6 88.7(11) 1_555 16_555
Pb2 F4 F7 54.5(11) 1_555 4_565
Ga2 F4 F1 131.5(12) 1_555 10_554
Ga2 F4 F1 131.5(12) 1_555 16_555
Ga2 F4 F2 89.3(11) 1_555 1_555
Ga2 F4 F2 89.3(11) 1_555 7_555
Ga2 F4 F2 109.4(11) 1_555 10_554
Ga2 F4 F2 109.4(11) 1_555 16_555
Ga2 F4 F6 47.9(14) 1_555 3_565
Ga2 F4 F6 47.9(14) 1_555 5_565
Ga2 F4 F6 89.5(14) 1_555 10_554
Ga2 F4 F6 89.5(14) 1_555 16_555
Ga2 F4 F7 161.6(17) 1_555 4_565
F1 F4 F1 92.9(10) 10_554 16_555
F1 F4 F2 97.1(10) 10_554 1_555
F1 F4 F2 63.1(8) 10_554 7_555
F1 F4 F2 48.7(7) 10_554 10_554
F1 F4 F2 115.6(10) 10_554 16_555
F1 F4 F5 168.8(10) 10_554 1_555
F1 F4 F5 87.8(8) 10_554 5_565
F1 F4 F6 118.1(15) 10_554 1_555
F1 F4 F6 134.3(16) 10_554 3_565
F1 F4 F6 117.5(15) 10_554 5_565
F1 F4 F6 104.7(14) 10_554 7_555
F1 F4 F6 136.0(14) 10_554 16_555
F1 F4 F7 55.3(9) 10_554 4_565
F1 F4 F2 63.1(8) 16_555 1_555
F1 F4 F2 97.1(10) 16_555 7_555
F1 F4 F2 115.6(10) 16_555 10_554
F1 F4 F2 48.7(7) 16_555 16_555
F1 F4 F5 87.8(8) 16_555 1_555
F1 F4 F5 168.8(10) 16_555 5_565
F1 F4 F6 104.7(14) 16_555 1_555
F1 F4 F6 117.5(15) 16_555 3_565
F1 F4 F6 134.3(16) 16_555 5_565
F1 F4 F6 118.1(15) 16_555 7_555
F1 F4 F6 136.0(14) 16_555 10_554
F1 F4 F7 55.3(9) 16_555 4_565
F2 F4 F2 46.9(8) 1_555 7_555
F2 F4 F2 145.5(10) 1_555 10_554
F2 F4 F2 103.0(10) 1_555 16_555
F2 F4 F5 73.3(8) 1_555 1_555
F2 F4 F5 105.8(8) 1_555 5_565
F2 F4 F6 47.4(11) 1_555 1_555
F2 F4 F6 126.3(16) 1_555 3_565
F2 F4 F6 136.2(16) 1_555 5_565
F2 F4 F6 56.1(11) 1_555 7_555
F2 F4 F6 110.5(12) 1_555 10_554
F2 F4 F6 63.7(10) 1_555 16_555
F2 F4 F7 107.5(13) 1_555 4_565
F2 F4 F2 103.0(10) 7_555 10_554
F2 F4 F2 145.5(10) 7_555 16_555
F2 F4 F5 105.8(8) 7_555 1_555
F2 F4 F5 73.3(8) 7_555 5_565
F2 F4 F6 56.1(11) 7_555 1_555
F2 F4 F6 136.2(16) 7_555 3_565
F2 F4 F6 126.3(16) 7_555 5_565
F2 F4 F6 47.4(11) 7_555 7_555
F2 F4 F6 63.7(10) 7_555 10_554
F2 F4 F6 110.5(12) 7_555 16_555
F2 F4 F7 107.5(13) 7_555 4_565
F2 F4 F2 97.7(8) 10_554 16_555
F2 F4 F5 140.0(8) 10_554 1_555
F2 F4 F5 72.9(7) 10_554 5_565
F2 F4 F6 137.1(15) 10_554 1_555
F2 F4 F6 86.2(13) 10_554 3_565
F2 F4 F6 71.8(13) 10_554 5_565
F2 F4 F6 120.5(14) 10_554 7_555
F2 F4 F6 141.6(13) 10_554 16_555
F2 F4 F7 60.4(9) 10_554 4_565
F2 F4 F5 72.9(7) 16_555 1_555
F2 F4 F5 140.0(8) 16_555 5_565
F2 F4 F6 120.5(14) 16_555 1_555
F2 F4 F6 71.8(13) 16_555 3_565
F2 F4 F6 86.2(13) 16_555 5_565
F2 F4 F6 137.1(15) 16_555 7_555
F2 F4 F6 141.6(13) 16_555 10_554
F2 F4 F7 60.4(9) 16_555 4_565
F5 F4 F5 89.5(6) 1_555 5_565
F5 F4 F6 51.2(10) 1_555 1_555
F5 F4 F6 53.8(11) 1_555 3_565
F5 F4 F6 68.9(12) 1_555 5_565
F5 F4 F6 65.4(11) 1_555 7_555
F5 F4 F6 134.2(13) 1_555 10_554
F5 F4 F7 132.4(13) 1_555 4_565
F5 F4 F6 65.4(11) 5_565 1_555
F5 F4 F6 68.9(12) 5_565 3_565
F5 F4 F6 53.8(11) 5_565 5_565
F5 F4 F6 51.2(10) 5_565 7_555
F5 F4 F6 134.2(13) 5_565 16_555
F5 F4 F7 132.4(13) 5_565 4_565
F6 F4 F6 88.0(17) 1_555 3_565
F6 F4 F6 90.8(17) 1_555 5_565
F6 F4 F6 96.3(15) 1_555 10_554
F6 F4 F6 79.1(14) 1_555 16_555
F6 F4 F7 154.9(19) 1_555 4_565
F6 F4 F6 90.8(17) 3_565 7_555
F6 F4 F6 101.2(17) 3_565 10_554
F6 F4 F6 82.4(15) 3_565 16_555
F6 F4 F7 114.0(18) 3_565 4_565
F6 F4 F6 88.0(17) 5_565 7_555
F6 F4 F6 82.4(15) 5_565 10_554
F6 F4 F6 101.2(17) 5_565 16_555
F6 F4 F7 114.0(18) 5_565 4_565
F6 F4 F6 79.1(14) 7_555 10_554
F6 F4 F6 96.3(15) 7_555 16_555
F6 F4 F7 154.9(19) 7_555 4_565
F6 F4 F6 174.1(16) 10_554 16_555
F6 F4 F7 91.4(13) 10_554 4_565
F6 F4 F7 91.4(13) 16_555 4_565
Ga2 F5 Ga2 180.000(13) 1_555 10_555
Ga2 F5 F2 80.5(6) 1_555 1_555
Ga2 F5 F2 80.5(6) 1_555 3_565
Ga2 F5 F2 99.5(7) 1_555 14_455
Ga2 F5 F2 99.5(7) 1_555 16_555
Ga2 F5 F4 45.3(7) 1_555 1_555
Ga2 F5 F4 45.3(7) 1_555 3_565
Ga2 F5 F4 134.7(7) 1_555 10_555
Ga2 F5 F4 134.7(7) 1_555 12_455
Ga2 F5 F6 52.1(10) 1_555 1_555
Ga2 F5 F6 52.1(10) 1_555 3_565
Ga2 F5 F6 140.8(15) 1_555 10_555
Ga2 F5 F6 140.8(15) 1_555 12_455
Ga2 F5 F6 127.9(16) 1_555 14_455
Ga2 F5 F6 127.9(16) 1_555 16_555
Ga2 F5 F2 99.5(7) 10_555 1_555
Ga2 F5 F2 99.5(7) 10_555 3_565
Ga2 F5 F2 80.5(6) 10_555 14_455
Ga2 F5 F2 80.5(6) 10_555 16_555
Ga2 F5 F4 134.7(7) 10_555 1_555
Ga2 F5 F4 134.7(7) 10_555 3_565
Ga2 F5 F4 45.3(7) 10_555 10_555
Ga2 F5 F4 45.3(7) 10_555 12_455
Ga2 F5 F6 127.9(16) 10_555 1_555
Ga2 F5 F6 127.9(16) 10_555 3_565
Ga2 F5 F6 140.8(15) 10_555 5_565
Ga2 F5 F6 140.8(15) 10_555 7_555
Ga2 F5 F6 52.1(10) 10_555 14_455
Ga2 F5 F6 52.1(10) 10_555 16_555
F2 F5 F2 161.1(9) 1_555 3_565
F2 F5 F2 91.6(7) 1_555 14_455
F2 F5 F2 91.6(7) 1_555 16_555
F2 F5 F4 60.9(8) 1_555 1_555
F2 F5 F4 104.7(11) 1_555 3_565
F2 F5 F4 135.3(11) 1_555 10_555
F2 F5 F4 61.4(7) 1_555 12_455
F2 F5 F6 121.3(14) 1_555 3_565
F2 F5 F6 111.7(12) 1_555 5_565
F2 F5 F6 51.3(8) 1_555 7_555
F2 F5 F6 75.6(10) 1_555 10_555
F2 F5 F6 120.2(12) 1_555 12_455
F2 F5 F6 124.8(15) 1_555 14_455
F2 F5 F6 68.4(11) 1_555 16_555
F2 F5 F2 91.6(7) 3_565 14_455
F2 F5 F2 91.6(7) 3_565 16_555
F2 F5 F4 104.7(11) 3_565 1_555
F2 F5 F4 60.9(8) 3_565 3_565
F2 F5 F4 61.4(7) 3_565 10_555
F2 F5 F4 135.3(11) 3_565 12_455
F2 F5 F6 121.3(14) 3_565 1_555
F2 F5 F6 51.3(8) 3_565 5_565
F2 F5 F6 111.7(12) 3_565 7_555
F2 F5 F6 120.2(12) 3_565 10_555
F2 F5 F6 75.6(10) 3_565 12_455
F2 F5 F6 68.4(11) 3_565 14_455
F2 F5 F6 124.8(15) 3_565 16_555
F2 F5 F2 161.1(9) 14_455 16_555
F2 F5 F4 135.3(11) 14_455 1_555
F2 F5 F4 61.4(7) 14_455 3_565
F2 F5 F4 104.7(10) 14_455 10_555
F2 F5 F4 60.9(8) 14_455 12_455
F2 F5 F6 68.4(11) 14_455 1_555
F2 F5 F6 124.8(15) 14_455 3_565
F2 F5 F6 120.2(12) 14_455 5_565
F2 F5 F6 75.6(10) 14_455 7_555
F2 F5 F6 111.7(12) 14_455 10_555
F2 F5 F6 51.3(8) 14_455 12_455
F2 F5 F6 121.3(14) 14_455 16_555
F2 F5 F4 61.4(7) 16_555 1_555
F2 F5 F4 135.3(11) 16_555 3_565
F2 F5 F4 60.9(8) 16_555 10_555
F2 F5 F4 104.7(10) 16_555 12_455
F2 F5 F6 124.8(15) 16_555 1_555
F2 F5 F6 68.4(11) 16_555 3_565
F2 F5 F6 75.6(10) 16_555 5_565
F2 F5 F6 120.2(12) 16_555 7_555
F2 F5 F6 51.3(8) 16_555 10_555
F2 F5 F6 111.7(12) 16_555 12_455
F2 F5 F6 121.3(14) 16_555 14_455
F4 F5 F4 90.5(13) 1_555 3_565
F4 F5 F4 119.7(10) 1_555 10_555
F4 F5 F4 119.7(10) 1_555 12_455
F4 F5 F6 67.6(13) 1_555 1_555
F4 F5 F6 61.1(12) 1_555 3_565
F4 F5 F6 54.1(10) 1_555 5_565
F4 F5 F6 59.7(11) 1_555 7_555
F4 F5 F6 95.7(12) 1_555 10_555
F4 F5 F6 173.0(16) 1_555 12_455
F4 F5 F6 172.1(18) 1_555 14_455
F4 F5 F6 82.8(12) 1_555 16_555
F4 F5 F4 119.7(10) 3_565 10_555
F4 F5 F4 119.7(10) 3_565 12_455
F4 F5 F6 61.1(12) 3_565 1_555
F4 F5 F6 67.6(13) 3_565 3_565
F4 F5 F6 59.7(11) 3_565 5_565
F4 F5 F6 54.1(10) 3_565 7_555
F4 F5 F6 173.0(16) 3_565 10_555
F4 F5 F6 95.7(12) 3_565 12_455
F4 F5 F6 82.8(12) 3_565 14_455
F4 F5 F6 172.1(18) 3_565 16_555
F4 F5 F4 90.5(12) 10_555 12_455
F4 F5 F6 172.1(18) 10_555 1_555
F4 F5 F6 82.8(12) 10_555 3_565
F4 F5 F6 95.7(11) 10_555 5_565
F4 F5 F6 173.0(16) 10_555 7_555
F4 F5 F6 59.7(11) 10_555 10_555
F4 F5 F6 54.1(10) 10_555 12_455
F4 F5 F6 61.1(12) 10_555 14_455
F4 F5 F6 67.6(13) 10_555 16_555
F4 F5 F6 82.8(12) 12_455 1_555
F4 F5 F6 172.1(18) 12_455 3_565
F4 F5 F6 173.0(16) 12_455 5_565
F4 F5 F6 95.7(11) 12_455 7_555
F4 F5 F6 54.1(10) 12_455 10_555
F4 F5 F6 59.7(11) 12_455 12_455
F4 F5 F6 67.6(13) 12_455 14_455
F4 F5 F6 61.1(12) 12_455 16_555
F6 F5 F6 104.2(19) 1_555 3_565
F6 F5 F6 91.3(16) 1_555 5_565
F6 F5 F6 118.4(18) 1_555 10_555
F6 F5 F6 118.4(18) 1_555 12_455
F6 F5 F6 112.1(20) 1_555 14_455
F6 F5 F6 112.1(20) 1_555 16_555
F6 F5 F6 91.3(16) 3_565 7_555
F6 F5 F6 118.4(18) 3_565 10_555
F6 F5 F6 118.4(18) 3_565 12_455
F6 F5 F6 112.1(20) 3_565 14_455
F6 F5 F6 112.1(20) 3_565 16_555
F6 F5 F6 78.4(13) 5_565 7_555
F6 F5 F6 126.9(17) 5_565 10_555
F6 F5 F6 126.9(17) 5_565 12_455
F6 F5 F6 118.4(18) 5_565 14_455
F6 F5 F6 118.4(18) 5_565 16_555
F6 F5 F6 126.9(17) 7_555 10_555
F6 F5 F6 126.9(17) 7_555 12_455
F6 F5 F6 118.4(18) 7_555 14_455
F6 F5 F6 118.4(18) 7_555 16_555
F6 F5 F6 78.4(13) 10_555 12_455
F6 F5 F6 91.3(16) 10_555 14_455
F6 F5 F6 91.3(16) 12_455 16_555
F6 F5 F6 104.2(19) 14_455 16_555
Pb1 F6 Ga2 107.8(11) 2_555 1_555
Pb1 F6 Ga3 98.2(11) 2_555 1_555
Pb1 F6 F1 68.4(11) 2_555 1_555
Pb1 F6 F1 63.4(10) 2_555 7_555
Pb1 F6 F2 135.7(12) 2_555 1_555
Pb1 F6 F2 118.9(11) 2_555 7_555
Pb1 F6 F2 46.8(9) 2_555 14_455
Pb1 F6 F4 148.3(14) 2_555 1_555
Pb1 F6 F4 61.7(12) 2_555 3_565
Pb1 F6 F4 101.1(9) 2_555 12_455
Pb1 F6 F5 111.3(9) 2_555 1_555
Pb1 F6 F5 96.0(8) 2_555 5_565
Pb1 F6 F6 82(4) 2_555 7_555
Ga2 F6 Ga3 140.6(13) 1_555 1_555
Ga2 F6 F1 170.0(16) 1_555 1_555
Ga2 F6 F1 130.7(14) 1_555 7_555
Ga2 F6 F2 116.4(14) 1_555 1_555
Ga2 F6 F2 100.6(13) 1_555 7_555
Ga2 F6 F2 101.4(12) 1_555 14_455
Ga2 F6 F4 47.1(14) 1_555 3_565
Ga2 F6 F4 102.9(11) 1_555 12_455
Ga2 F6 F5 50.5(11) 1_555 1_555
Ga2 F6 F6 77(4) 1_555 7_555
Ga3 F6 F1 49.0(13) 1_555 1_555
Ga3 F6 F2 47.9(12) 1_555 1_555
Ga3 F6 F2 117.9(13) 1_555 14_455
Ga3 F6 F4 104.1(16) 1_555 1_555
Ga3 F6 F4 152.5(18) 1_555 3_565
Ga3 F6 F4 100.5(11) 1_555 12_455
Ga3 F6 F5 142.4(12) 1_555 1_555
Ga3 F6 F5 111.5(11) 1_555 5_565
Ga3 F6 F6 78(4) 1_555 7_555
F1 F6 F1 56.8(13) 1_555 7_555
F1 F6 F2 67.5(13) 1_555 1_555
F1 F6 F2 89.2(13) 1_555 7_555
F1 F6 F2 69.2(12) 1_555 14_455
F1 F6 F4 143.0(17) 1_555 1_555
F1 F6 F4 126.6(17) 1_555 3_565
F1 F6 F4 69.6(12) 1_555 12_455
F1 F6 F5 121.3(13) 1_555 1_555
F1 F6 F5 149.3(13) 1_555 5_565
F1 F6 F6 110(4) 1_555 7_555
F1 F6 F2 89.2(13) 7_555 1_555
F1 F6 F2 57.0(11) 7_555 7_555
F1 F6 F2 102.7(12) 7_555 14_455
F1 F6 F4 123.6(15) 7_555 1_555
F1 F6 F4 111.5(16) 7_555 3_565
F1 F6 F4 126.4(12) 7_555 12_455
F1 F6 F5 174.6(14) 7_555 1_555
F1 F6 F5 92.7(11) 7_555 5_565
F1 F6 F6 54(4) 7_555 7_555
F2 F6 F2 57.2(11) 1_555 7_555
F2 F6 F2 117.2(13) 1_555 14_455
F2 F6 F4 75.6(14) 1_555 1_555
F2 F6 F4 159.0(18) 1_555 3_565
F2 F6 F4 66.6(11) 1_555 12_455
F2 F6 F5 94.6(12) 1_555 1_555
F2 F6 F5 120.7(12) 1_555 5_565
F2 F6 F6 111(4) 1_555 7_555
F2 F6 F2 157.0(12) 7_555 14_455
F2 F6 F4 69.6(12) 7_555 1_555
F2 F6 F4 130.9(16) 7_555 3_565
F2 F6 F4 123.7(11) 7_555 12_455
F2 F6 F5 128.3(12) 7_555 1_555
F2 F6 F5 75.1(10) 7_555 5_565
F2 F6 F6 53(4) 7_555 7_555
F2 F6 F4 132.8(14) 14_455 1_555
F2 F6 F4 63.4(12) 14_455 3_565
F2 F6 F4 56.9(9) 14_455 12_455
F2 F6 F5 72.2(10) 14_455 1_555
F2 F6 F5 120.0(10) 14_455 5_565
F2 F6 F6 126(4) 14_455 7_555
F4 F6 F4 89.2(16) 1_555 3_565
F4 F6 F4 96.8(11) 1_555 12_455
F4 F6 F5 61.2(12) 1_555 1_555
F4 F6 F5 54.9(10) 1_555 5_565
F4 F6 F6 81(4) 1_555 7_555
F4 F6 F4 101.7(12) 3_565 12_455
F4 F6 F5 65.1(12) 3_565 1_555
F4 F6 F5 57.0(11) 3_565 5_565
F4 F6 F6 81(4) 3_565 7_555
F4 F6 F5 52.4(10) 12_455 1_555
F4 F6 F5 141.0(8) 12_455 5_565
F4 F6 F6 177(4) 12_455 7_555
F5 F6 F5 88.7(9) 1_555 5_565
F5 F6 F6 128(4) 1_555 7_555
Pb1 F7 Pb2 109.9(9) 1_555 2_655
Pb1 F7 Ga3 116.1(11) 1_555 1_555
Pb1 F7 F1 81.5(11) 1_555 1_555
Pb1 F7 F1 81.5(11) 1_555 7_555
Pb1 F7 F1 99.1(10) 1_555 11_554
Pb1 F7 F1 99.1(10) 1_555 13_555
Pb1 F7 F2 139.8(11) 1_555 1_555
Pb1 F7 F2 139.8(11) 1_555 7_555
Pb1 F7 F2 51.5(8) 1_555 11_554
Pb1 F7 F2 51.5(8) 1_555 13_555
Pb1 F7 F4 57.9(11) 1_555 2_655
Pb2 F7 Ga3 133.9(12) 2_655 1_555
Pb2 F7 F1 150.2(12) 2_655 1_555
Pb2 F7 F1 150.2(12) 2_655 7_555
Pb2 F7 F1 54.3(9) 2_655 11_554
Pb2 F7 F1 54.3(9) 2_655 13_555
Pb2 F7 F2 98.7(11) 2_655 1_555
Pb2 F7 F2 98.7(11) 2_655 7_555
Pb2 F7 F2 93.4(9) 2_655 11_554
Pb2 F7 F2 93.4(9) 2_655 13_555
Pb2 F7 F4 52.1(11) 2_655 2_655
Ga3 F7 F1 115.8(13) 1_555 11_554
Ga3 F7 F1 115.8(13) 1_555 13_555
Ga3 F7 F2 114.9(12) 1_555 11_554
Ga3 F7 F2 114.9(12) 1_555 13_555
Ga3 F7 F4 174.0(17) 1_555 2_655
F1 F7 F1 56.3(11) 1_555 7_555
F1 F7 F1 153.6(14) 1_555 11_554
F1 F7 F1 97.5(11) 1_555 13_555
F1 F7 F2 60.5(11) 1_555 1_555
F1 F7 F2 87.4(12) 1_555 7_555
F1 F7 F2 114.3(12) 1_555 11_554
F1 F7 F2 71.9(10) 1_555 13_555
F1 F7 F4 131.1(15) 1_555 2_655
F1 F7 F1 97.5(11) 7_555 11_554
F1 F7 F1 153.6(14) 7_555 13_555
F1 F7 F2 87.4(12) 7_555 1_555
F1 F7 F2 60.5(11) 7_555 7_555
F1 F7 F2 71.9(10) 7_555 11_554
F1 F7 F2 114.3(12) 7_555 13_555
F1 F7 F4 131.1(15) 7_555 2_655
F1 F7 F1 108.4(12) 11_554 13_555
F1 F7 F2 120.7(12) 11_554 1_555
F1 F7 F2 75.1(10) 11_554 7_555
F1 F7 F2 52.1(8) 11_554 11_554
F1 F7 F2 128.8(11) 11_554 13_555
F1 F7 F4 66.9(10) 11_554 2_655
F1 F7 F2 75.1(10) 13_555 1_555
F1 F7 F2 120.7(12) 13_555 7_555
F1 F7 F2 128.8(11) 13_555 11_554
F1 F7 F2 52.1(8) 13_555 13_555
F1 F7 F4 66.9(10) 13_555 2_655
F2 F7 F2 56.5(10) 1_555 7_555
F2 F7 F2 155.5(12) 1_555 11_554
F2 F7 F2 100.7(11) 1_555 13_555
F2 F7 F4 141.1(15) 1_555 2_655
F2 F7 F2 100.7(11) 7_555 11_554
F2 F7 F2 155.5(12) 7_555 13_555
F2 F7 F4 141.1(15) 7_555 2_655
F2 F7 F2 99.8(8) 11_554 13_555
F2 F7 F4 62.0(9) 11_554 2_655
F2 F7 F4 62.0(9) 13_555 2_655
Pb2 F8 Pb2 120.1(12) 11_555 12_455
Pb2 F8 Ga1 120.0(13) 11_555 1_555
Pb2 F8 Ga1 77.8(9) 11_555 5_556
Pb2 F8 F1 127.2(13) 11_555 1_555
Pb2 F8 F1 46.8(11) 11_555 4_555
Pb2 F8 F2 58.9(11) 11_555 13_555
Pb2 F8 F3 91(4) 11_555 1_555
Pb2 F8 F3 168(2) 11_555 2_555
Pb2 F8 F3 118.4(15) 11_555 3_555
Pb2 F8 F3 74.8(17) 11_555 4_555
Pb2 F8 F3 60.5(14) 11_555 7_556
Pb2 F8 F8 147(2) 11_555 2_555
Pb2 F8 F8 109.5(15) 11_555 3_555
Pb2 F8 F8 68(2) 11_555 4_555
Pb2 F8 F8 57.5(14) 11_555 6_556
Pb2 F8 F8 67.1(17) 11_555 7_556
Pb2 F8 F8 108.9(16) 11_555 8_556
Pb2 F8 F9 115.0(14) 11_555 1_555
Pb2 F8 F9 144.6(17) 11_555 2_555
Pb2 F8 F9 95.2(13) 11_555 4_555
Pb2 F8 Ga1 117.9(14) 12_455 1_555
Pb2 F8 Ga1 77.3(10) 12_455 5_556
Pb2 F8 F1 52.2(13) 12_455 1_555
Pb2 F8 F1 150.6(13) 12_455 4_555
Pb2 F8 F2 88.3(12) 12_455 13_555
Pb2 F8 F3 114(4) 12_455 1_555
Pb2 F8 F3 67.5(17) 12_455 2_555
Pb2 F8 F3 109.3(17) 12_455 3_555
Pb2 F8 F3 158(2) 12_455 4_555
Pb2 F8 F3 69.2(16) 12_455 7_556
Pb2 F8 F8 66.0(18) 12_455 2_555
Pb2 F8 F8 107.4(18) 12_455 3_555
Pb2 F8 F8 146(3) 12_455 4_555
Pb2 F8 F8 108.6(20) 12_455 6_556
Pb2 F8 F8 67.5(19) 12_455 7_556
Pb2 F8 F8 56.0(14) 12_455 8_556
Pb2 F8 F9 111.4(16) 12_455 1_555
Pb2 F8 F9 94.4(14) 12_455 2_555
Pb2 F8 F9 143(2) 12_455 4_555
Ga1 F8 Ga1 101.3(13) 1_555 5_556
Ga1 F8 F1 99.8(15) 1_555 1_555
Ga1 F8 F1 86.2(14) 1_555 4_555
Ga1 F8 F2 136.8(15) 1_555 13_555
Ga1 F8 F3 78(3) 1_555 1_555
Ga1 F8 F3 50.7(18) 1_555 2_555
Ga1 F8 F3 45.2(19) 1_555 4_555
Ga1 F8 F3 134(2) 1_555 7_556
Ga1 F8 F8 55.3(19) 1_555 2_555
Ga1 F8 F8 55(2) 1_555 4_555
Ga1 F8 F8 90.8(19) 1_555 6_556
Ga1 F8 F8 126(2) 1_555 7_556
Ga1 F8 F8 90.8(18) 1_555 8_556
Ga1 F8 F9 52.1(15) 1_555 1_555
Ga1 F8 F1 129.4(12) 5_556 1_555
Ga1 F8 F1 116.5(11) 5_556 4_555
Ga1 F8 F2 118.5(10) 5_556 13_555
Ga1 F8 F3 167(4) 5_556 1_555
Ga1 F8 F3 96.3(17) 5_556 2_555
Ga1 F8 F3 79.7(12) 5_556 3_555
Ga1 F8 F3 91.7(18) 5_556 4_555
Ga1 F8 F8 72.6(16) 5_556 2_555
Ga1 F8 F8 65.0(12) 5_556 3_555
Ga1 F8 F8 72.6(20) 5_556 4_555
Ga1 F8 F9 153.3(10) 5_556 1_555
Ga1 F8 F9 121.2(10) 5_556 2_555
Ga1 F8 F9 123.3(11) 5_556 4_555
F1 F8 F1 110.3(13) 1_555 4_555
F1 F8 F2 68.4(12) 1_555 13_555
F1 F8 F3 63(4) 1_555 1_555
F1 F8 F3 64.3(17) 1_555 2_555
F1 F8 F3 111.3(17) 1_555 3_555
F1 F8 F3 134(2) 1_555 4_555
F1 F8 F3 115.0(19) 1_555 7_556
F1 F8 F8 83.0(19) 1_555 2_555
F1 F8 F8 122.7(19) 1_555 3_555
F1 F8 F8 152(3) 1_555 4_555
F1 F8 F8 161(2) 1_555 6_556
F1 F8 F8 117(2) 1_555 7_556
F1 F8 F8 103.2(17) 1_555 8_556
F1 F8 F9 63.1(16) 1_555 1_555
F1 F8 F9 66.5(15) 1_555 2_555
F1 F8 F9 100(2) 1_555 4_555
F1 F8 F2 62.3(11) 4_555 13_555
F1 F8 F3 51(3) 4_555 1_555
F1 F8 F3 131.1(19) 4_555 2_555
F1 F8 F3 99.1(13) 4_555 3_555
F1 F8 F3 51.3(16) 4_555 4_555
F1 F8 F3 107.3(17) 4_555 7_556
F1 F8 F8 141(2) 4_555 2_555
F1 F8 F8 102.1(15) 4_555 3_555
F1 F8 F8 61.0(20) 4_555 4_555
F1 F8 F8 86.2(15) 4_555 6_556
F1 F8 F8 113.2(20) 4_555 7_556
F1 F8 F8 146.3(17) 4_555 8_556
F1 F8 F9 68.7(15) 4_555 1_555
F1 F8 F9 99.0(16) 4_555 2_555
F1 F8 F9 52.7(13) 4_555 4_555
F2 F8 F3 59(3) 13_555 1_555
F2 F8 F3 132.4(18) 13_555 2_555
F2 F8 F3 157.7(16) 13_555 3_555
F2 F8 F3 113.6(20) 13_555 4_555
F2 F8 F3 85.9(15) 13_555 7_556
F2 F8 F8 150(2) 13_555 2_555
F2 F8 F8 164.2(18) 13_555 3_555
F2 F8 F8 120(2) 13_555 4_555
F2 F8 F8 114.0(17) 13_555 6_556
F2 F8 F8 94.4(18) 13_555 7_556
F2 F8 F8 131.9(16) 13_555 8_556
F2 F8 F9 87.5(14) 13_555 1_555
F2 F8 F9 119.2(16) 13_555 2_555
F2 F8 F9 103.5(17) 13_555 4_555
F3 F8 F3 93(4) 1_555 2_555
F3 F8 F3 100(4) 1_555 3_555
F3 F8 F3 79(5) 1_555 4_555
F3 F8 F3 144(5) 1_555 7_556
F3 F8 F8 116(4) 1_555 2_555
F3 F8 F8 114(4) 1_555 3_555
F3 F8 F8 97(5) 1_555 4_555
F3 F8 F8 136(5) 1_555 6_556
F3 F8 F8 153(5) 1_555 7_556
F3 F8 F8 160(4) 1_555 8_556
F3 F8 F9 65(4) 1_555 2_555
F3 F8 F9 50(4) 1_555 4_555
F3 F8 F3 50.1(17) 2_555 3_555
F3 F8 F3 95(3) 2_555 4_555
F3 F8 F3 119(2) 2_555 7_556
F3 F8 F8 58.7(19) 2_555 3_555
F3 F8 F8 100(3) 2_555 4_555
F3 F8 F8 113(2) 2_555 6_556
F3 F8 F8 111(3) 2_555 7_556
F3 F8 F8 66.9(18) 2_555 8_556
F3 F8 F9 66.4(18) 2_555 1_555
F3 F8 F9 79(2) 2_555 4_555
F3 F8 F3 49.4(17) 3_555 4_555
F3 F8 F3 112.6(19) 3_555 7_556
F3 F8 F8 50(2) 3_555 4_555
F3 F8 F8 74.1(16) 3_555 6_556
F3 F8 F8 105(2) 3_555 7_556
F3 F8 F8 70.3(16) 3_555 8_556
F3 F8 F9 73.6(16) 3_555 1_555
F3 F8 F9 48.1(13) 3_555 2_555
F3 F8 F9 54.3(14) 3_555 4_555
F3 F8 F3 111(2) 4_555 7_556
F3 F8 F8 93(3) 4_555 2_555
F3 F8 F8 50.7(18) 4_555 3_555
F3 F8 F8 64.1(19) 4_555 6_556
F3 F8 F8 109(3) 4_555 7_556
F3 F8 F8 105(2) 4_555 8_556
F3 F8 F9 71(2) 4_555 1_555
F3 F8 F9 75(2) 4_555 2_555
F3 F8 F8 98(2) 7_556 2_555
F3 F8 F8 97.7(19) 7_556 3_555
F3 F8 F8 92(3) 7_556 4_555
F3 F8 F8 48.3(16) 7_556 6_556
F3 F8 F8 53.6(14) 7_556 8_556
F3 F8 F9 173.4(19) 7_556 1_555
F3 F8 F9 150.3(18) 7_556 2_555
F3 F8 F9 145.0(19) 7_556 4_555
F8 F8 F8 45.0(19) 2_555 3_555
F8 F8 F8 90(3) 2_555 4_555
F8 F8 F8 90(2) 2_555 6_556
F8 F8 F8 90(2) 2_555 7_556
F8 F8 F9 87.7(19) 2_555 1_555
F8 F8 F9 51.9(15) 2_555 2_555
F8 F8 F9 90(2) 2_555 4_555
F8 F8 F8 45(2) 3_555 4_555
F8 F8 F8 59.9(16) 3_555 6_556
F8 F8 F8 90(2) 3_555 7_556
F8 F8 F8 59.9(16) 3_555 8_556
F8 F8 F9 88.4(18) 3_555 1_555
F8 F8 F9 62.7(15) 3_555 2_555
F8 F8 F9 65.1(15) 3_555 4_555
F8 F8 F8 90(3) 4_555 7_556
F8 F8 F8 90(3) 4_555 8_556
F8 F8 F9 90(3) 4_555 1_555
F8 F8 F9 88(2) 4_555 2_555
F8 F8 F9 53.4(20) 4_555 4_555
F8 F8 F8 45.2(20) 6_556 7_556
F8 F8 F8 60.2(17) 6_556 8_556
F8 F8 F9 134.8(19) 6_556 1_555
F8 F8 F9 122.1(19) 6_556 2_555
F8 F8 F9 98.2(16) 6_556 4_555
F8 F8 F8 45.2(17) 7_556 8_556
F8 F8 F9 177.7(20) 7_556 1_555
F8 F8 F9 141.9(20) 7_556 2_555
F8 F8 F9 143(2) 7_556 4_555
F8 F8 F9 132.5(17) 8_556 1_555
F8 F8 F9 96.7(13) 8_556 2_555
F8 F8 F9 124.5(18) 8_556 4_555
F9 F8 F9 49.5(16) 2_555 4_555
Pb1 F9 Ga1 126.6(14) 1_555 1_555
Pb1 F9 Ga1 126.6(14) 1_555 5_555
Pb1 F9 F1 75.4(16) 1_555 1_555
Pb1 F9 F1 75.4(16) 1_555 7_555
Pb1 F9 F3 72.9(19) 1_555 1_555
Pb1 F9 F3 130.0(19) 1_555 2_555
Pb1 F9 F3 103.4(20) 1_555 4_555
Pb1 F9 F3 103.4(20) 1_555 6_555
Pb1 F9 F3 72.9(19) 1_555 7_555
Pb1 F9 F3 130.0(19) 1_555 8_555
Pb1 F9 F8 87.9(15) 1_555 1_555
Pb1 F9 F8 123.7(16) 1_555 2_555
Pb1 F9 F8 101.5(17) 1_555 4_555
Pb1 F9 F8 101.5(17) 1_555 6_555
Pb1 F9 F8 87.9(15) 1_555 7_555
Pb1 F9 F8 123.7(16) 1_555 8_555
Pb1 F9 F9 161(3) 1_555 2_555
Pb1 F9 F9 154(3) 1_555 3_555
Pb1 F9 F9 109(3) 1_555 4_555
Ga1 F9 Ga1 96.6(15) 1_555 5_555
Ga1 F9 F1 95.5(15) 1_555 1_555
Ga1 F9 F1 136.1(17) 1_555 7_555
Ga1 F9 F3 56.6(17) 1_555 1_555
Ga1 F9 F3 93.4(20) 1_555 6_555
Ga1 F9 F3 151(3) 1_555 7_555
Ga1 F9 F3 103(2) 1_555 8_555
Ga1 F9 F8 107.2(17) 1_555 6_555
Ga1 F9 F8 139.8(18) 1_555 7_555
Ga1 F9 F8 109.5(17) 1_555 8_555
Ga1 F9 F9 62(2) 1_555 2_555
Ga1 F9 F9 48.3(18) 1_555 3_555
Ga1 F9 F9 62(3) 1_555 4_555
Ga1 F9 F1 136.1(17) 5_555 1_555
Ga1 F9 F1 95.5(15) 5_555 7_555
Ga1 F9 F3 151(3) 5_555 1_555
Ga1 F9 F3 103(2) 5_555 2_555
Ga1 F9 F3 93.4(20) 5_555 4_555
Ga1 F9 F3 56.6(17) 5_555 7_555
Ga1 F9 F8 139.8(18) 5_555 1_555
Ga1 F9 F8 109.5(17) 5_555 2_555
Ga1 F9 F8 107.2(17) 5_555 4_555
Ga1 F9 F9 62(2) 5_555 2_555
Ga1 F9 F9 48.3(18) 5_555 3_555
Ga1 F9 F9 62(3) 5_555 4_555
F1 F9 F1 49.5(16) 1_555 7_555
F1 F9 F3 64(2) 1_555 1_555
F1 F9 F3 61.7(17) 1_555 2_555
F1 F9 F3 120(2) 1_555 4_555
F1 F9 F3 170(2) 1_555 6_555
F1 F9 F3 111(2) 1_555 7_555
F1 F9 F3 93.4(19) 1_555 8_555
F1 F9 F8 65.6(16) 1_555 1_555
F1 F9 F8 67.2(15) 1_555 2_555
F1 F9 F8 103.4(19) 1_555 4_555
F1 F9 F8 153(2) 1_555 6_555
F1 F9 F8 115.0(19) 1_555 7_555
F1 F9 F8 106.5(17) 1_555 8_555
F1 F9 F9 88(3) 1_555 2_555
F1 F9 F9 128(3) 1_555 3_555
F1 F9 F9 155(4) 1_555 4_555
F1 F9 F3 111(2) 7_555 1_555
F1 F9 F3 93.4(19) 7_555 2_555
F1 F9 F3 170(2) 7_555 4_555
F1 F9 F3 120(2) 7_555 6_555
F1 F9 F3 64(2) 7_555 7_555
F1 F9 F3 61.7(17) 7_555 8_555
F1 F9 F8 115.0(19) 7_555 1_555
F1 F9 F8 106.5(17) 7_555 2_555
F1 F9 F8 153(2) 7_555 4_555
F1 F9 F8 103.4(19) 7_555 6_555
F1 F9 F8 65.6(16) 7_555 7_555
F1 F9 F8 67.2(15) 7_555 8_555
F1 F9 F9 88(3) 7_555 2_555
F1 F9 F9 128(3) 7_555 3_555
F1 F9 F9 155(4) 7_555 4_555
F3 F9 F3 66(2) 1_555 2_555
F3 F9 F3 59(2) 1_555 4_555
F3 F9 F3 126(3) 1_555 6_555
F3 F9 F3 145(3) 1_555 7_555
F3 F9 F3 145(3) 1_555 8_555
F3 F9 F8 53.6(17) 1_555 2_555
F3 F9 F8 142(3) 1_555 6_555
F3 F9 F8 160(3) 1_555 7_555
F3 F9 F8 160(3) 1_555 8_555
F3 F9 F9 107(3) 1_555 2_555
F3 F9 F9 104(3) 1_555 3_555
F3 F9 F9 93(4) 1_555 4_555
F3 F9 F3 79(2) 2_555 4_555
F3 F9 F3 123(2) 2_555 6_555
F3 F9 F3 145(3) 2_555 7_555
F3 F9 F3 79.3(20) 2_555 8_555
F3 F9 F8 52.6(15) 2_555 1_555
F3 F9 F8 67.5(18) 2_555 4_555
F3 F9 F8 128(2) 2_555 6_555
F3 F9 F8 132(2) 2_555 7_555
F3 F9 F8 93.5(18) 2_555 8_555
F3 F9 F9 67(2) 2_555 3_555
F3 F9 F9 101(4) 2_555 4_555
F3 F9 F3 70.2(20) 4_555 6_555
F3 F9 F3 126(3) 4_555 7_555
F3 F9 F3 123(2) 4_555 8_555
F3 F9 F8 54.6(17) 4_555 1_555
F3 F9 F8 65.4(18) 4_555 2_555
F3 F9 F8 87.0(19) 4_555 6_555
F3 F9 F8 125(2) 4_555 7_555
F3 F9 F8 120(2) 4_555 8_555
F3 F9 F9 92(3) 4_555 2_555
F3 F9 F9 56(2) 4_555 3_555
F3 F9 F3 59(2) 6_555 7_555
F3 F9 F3 79(2) 6_555 8_555
F3 F9 F8 125(2) 6_555 1_555
F3 F9 F8 120(2) 6_555 2_555
F3 F9 F8 87.0(19) 6_555 4_555
F3 F9 F8 54.6(17) 6_555 7_555
F3 F9 F8 65.4(18) 6_555 8_555
F3 F9 F9 92(3) 6_555 2_555
F3 F9 F9 56(2) 6_555 3_555
F3 F9 F3 66(2) 7_555 8_555
F3 F9 F8 160(3) 7_555 1_555
F3 F9 F8 160(3) 7_555 2_555
F3 F9 F8 142(3) 7_555 4_555
F3 F9 F8 53.6(17) 7_555 8_555
F3 F9 F9 107(3) 7_555 2_555
F3 F9 F9 104(3) 7_555 3_555
F3 F9 F9 93(4) 7_555 4_555
F3 F9 F8 132(2) 8_555 1_555
F3 F9 F8 93.5(18) 8_555 2_555
F3 F9 F8 128(2) 8_555 4_555
F3 F9 F8 67.5(18) 8_555 6_555
F3 F9 F8 52.6(15) 8_555 7_555
F3 F9 F9 67(2) 8_555 3_555
F3 F9 F9 101(4) 8_555 4_555
F8 F9 F8 141.6(19) 1_555 6_555
F8 F9 F8 175(2) 1_555 7_555
F8 F9 F8 145.7(18) 1_555 8_555
F8 F9 F9 92(2) 1_555 2_555
F8 F9 F9 91(2) 1_555 3_555
F8 F9 F9 90(3) 1_555 4_555
F8 F9 F8 52.2(14) 2_555 4_555
F8 F9 F8 130.5(18) 2_555 6_555
F8 F9 F8 145.7(18) 2_555 7_555
F8 F9 F8 106.7(15) 2_555 8_555
F8 F9 F9 53(2) 2_555 2_555
F8 F9 F9 66.5(19) 2_555 3_555
F8 F9 F9 92(3) 2_555 4_555
F8 F9 F8 103.7(16) 4_555 6_555
F8 F9 F8 141.6(19) 4_555 7_555
F8 F9 F8 130.5(18) 4_555 8_555
F8 F9 F9 90(3) 4_555 2_555
F8 F9 F9 64.0(18) 4_555 3_555
F8 F9 F9 52(3) 4_555 4_555
F8 F9 F8 52.2(14) 6_555 8_555
F8 F9 F9 90(3) 6_555 2_555
F8 F9 F9 64.0(18) 6_555 3_555
F8 F9 F9 52(3) 6_555 4_555
F8 F9 F9 92(2) 7_555 2_555
F8 F9 F9 91(2) 7_555 3_555
F8 F9 F9 90(3) 7_555 4_555
F8 F9 F9 53(2) 8_555 2_555
F8 F9 F9 66.5(19) 8_555 3_555
F8 F9 F9 92(3) 8_555 4_555
F9 F9 F9 45(3) 2_555 3_555
F9 F9 F9 90(4) 2_555 4_555
F9 F9 F9 45(3) 3_555 4_555
loop_
_geom_bond_atom_site_label_1
_geom_bond_atom_site_label_2
_geom_bond_distance
_geom_bond_site_symmetry_2
Pb1 F1 3.371(19) 1_555
Pb1 F1 2.944(20) 4_555
Pb1 F1 2.944(20) 6_555
Pb1 F1 3.371(19) 7_555
Pb1 F2 2.513(15) 11_554
Pb1 F2 2.513(15) 13_555
Pb1 F3 2.60(3) 1_555
Pb1 F3 2.60(3) 7_555
Pb1 F4 2.72(3) 2_655
Pb1 F6 2.78(3) 4_555
Pb1 F6 2.78(3) 6_555
Pb1 F7 2.49(3) 1_555
Pb1 F9 2.46(4) 1_555
Pb2 F1 2.56(2) 10_554
Pb2 F1 2.56(2) 16_555
Pb2 F2 2.808(17) 1_555
Pb2 F2 2.808(17) 7_555
Pb2 F3 3.21(3) 10_554
Pb2 F3 2.83(4) 11_554
Pb2 F3 2.83(4) 13_555
Pb2 F3 3.21(3) 16_555
Pb2 F4 2.51(3) 1_555
Pb2 F7 2.59(3) 4_565
Pb2 F8 2.68(3) 10_554
Pb2 F8 2.63(3) 11_554
Pb2 F8 2.63(3) 13_555
Pb2 F8 2.68(3) 16_555
Ga1 Ga1 3.120(17) 5_555
Ga1 F3 1.88(3) 1_555
Ga1 F3 1.88(4) 2_555
Ga1 F3 1.88(3) 3_555
Ga1 F3 1.88(4) 4_555
Ga1 F8 1.81(3) 1_555
Ga1 F8 1.81(4) 2_555
Ga1 F8 1.81(3) 3_555
Ga1 F8 1.81(4) 4_555
Ga1 F8 3.45(3) 5_556
Ga1 F8 3.45(3) 6_556
Ga1 F8 3.45(3) 7_556
Ga1 F8 3.45(3) 8_556
Ga1 F9 2.09(3) 1_555
Ga1 F9 2.09(4) 2_555
Ga1 F9 2.09(3) 3_555
Ga1 F9 2.09(4) 4_555
Ga2 F4 1.85(3) 1_555
Ga2 F4 1.85(3) 3_565
Ga2 F5 1.83025(10) 1_555
Ga2 F5 1.83025(10) 5_565
Ga2 F6 1.87(3) 1_555
Ga2 F6 1.87(3) 3_565
Ga2 F6 1.87(3) 5_565
Ga2 F6 1.87(3) 7_555
Ga3 F1 1.87(2) 1_555
Ga3 F1 1.87(2) 7_555
Ga3 F2 1.819(17) 1_555
Ga3 F2 1.819(17) 7_555
Ga3 F6 1.94(3) 1_555
Ga3 F6 1.94(3) 7_555
Ga3 F7 1.85(3) 1_555
F1 Pb1 3.371(19) 1_555
F1 Pb1 2.944(18) 2_555
F1 Pb2 2.56(2) 12_455
F1 Ga3 1.87(2) 1_555
F1 F1 2.52(3) 7_555
F1 F2 2.68(3) 1_555
F1 F2 3.43(3) 13_555
F1 F2 3.39(2) 14_455
F1 F3 2.76(5) 1_555
F1 F3 2.97(4) 2_555
F1 F4 3.31(3) 12_455
F1 F6 2.43(3) 1_555
F1 F6 2.82(4) 7_555
F1 F7 2.67(3) 1_555
F1 F7 2.96(3) 11_555
F1 F8 3.07(5) 1_555
F1 F8 3.49(4) 2_555
F1 F9 3.01(6) 1_555
F2 Pb1 2.513(15) 11_555
F2 Pb2 2.808(17) 1_555
F2 Ga3 1.819(17) 1_555
F2 F1 2.68(3) 1_555
F2 F1 3.43(3) 13_555
F2 F1 3.39(3) 16_555
F2 F2 2.52(2) 7_555
F2 F3 2.67(4) 13_555
F2 F4 3.17(3) 1_555
F2 F4 3.19(2) 12_455
F2 F5 3.471(17) 1_555
F2 F6 2.41(3) 1_555
F2 F6 2.80(3) 7_555
F2 F6 3.39(3) 16_555
F2 F7 2.66(3) 1_555
F2 F7 3.14(2) 11_555
F2 F8 3.03(3) 13_555
F3 Pb1 2.60(3) 1_555
F3 Pb2 2.83(4) 11_555
F3 Pb2 3.21(4) 12_455
F3 Ga1 1.88(3) 1_555
F3 F1 2.76(5) 1_555
F3 F1 2.97(4) 4_555
F3 F2 2.67(4) 13_555
F3 F3 2.64(4) 2_555
F3 F3 2.64(6) 4_555
F3 F8 0.98(5) 1_555
F3 F8 2.65(4) 2_555
F3 F8 3.43(5) 3_555
F3 F8 2.40(6) 4_555
F3 F8 2.96(5) 7_556
F3 F9 1.85(4) 1_555
F3 F9 3.07(5) 2_555
F3 F9 2.77(6) 4_555
F4 Pb1 2.72(2) 4_565
F4 Pb2 2.51(3) 1_555
F4 Ga2 1.85(3) 1_555
F4 F1 3.31(3) 10_554
F4 F1 3.31(3) 16_555
F4 F2 3.17(3) 1_555
F4 F2 3.17(3) 7_555
F4 F2 3.19(2) 10_554
F4 F2 3.19(2) 16_555
F4 F5 2.600(18) 1_555
F4 F5 2.600(18) 5_565
F4 F6 2.74(4) 1_555
F4 F6 2.51(4) 3_565
F4 F6 2.51(4) 5_565
F4 F6 2.74(4) 7_555
F4 F6 3.25(3) 10_554
F4 F6 3.25(3) 16_555
F4 F7 3.05(4) 4_565
F5 Ga2 1.83025(10) 1_555
F5 Ga2 1.83025(10) 10_555
F5 F2 3.471(17) 1_555
F5 F2 3.471(17) 3_565
F5 F2 3.471(17) 14_455
F5 F2 3.471(17) 16_555
F5 F4 2.600(18) 1_555
F5 F4 2.600(18) 3_565
F5 F4 2.600(18) 10_555
F5 F4 2.600(18) 12_455
F5 F6 2.31(3) 1_555
F5 F6 2.31(3) 3_565
F5 F6 2.89(3) 5_565
F5 F6 2.89(3) 7_555
F5 F6 2.89(3) 10_555
F5 F6 2.89(3) 12_455
F5 F6 2.31(3) 14_455
F5 F6 2.31(3) 16_555
F6 Pb1 2.78(3) 2_555
F6 Ga2 1.87(3) 1_555
F6 Ga3 1.94(3) 1_555
F6 F1 2.43(3) 1_555
F6 F1 2.82(4) 7_555
F6 F2 2.41(3) 1_555
F6 F2 2.80(3) 7_555
F6 F2 3.39(3) 14_455
F6 F4 2.74(4) 1_555
F6 F4 2.51(4) 3_565
F6 F4 3.25(3) 12_455
F6 F5 2.31(3) 1_555
F6 F5 2.89(3) 5_565
F6 F6 0.82(4) 7_555
F7 Pb1 2.49(3) 1_555
F7 Pb2 2.59(3) 2_655
F7 Ga3 1.85(3) 1_555
F7 F1 2.67(3) 1_555
F7 F1 2.67(3) 7_555
F7 F1 2.96(3) 11_554
F7 F1 2.96(3) 13_555
F7 F2 2.66(3) 1_555
F7 F2 2.66(3) 7_555
F7 F2 3.14(2) 11_554
F7 F2 3.14(2) 13_555
F7 F4 3.05(4) 2_655
F8 Pb2 2.63(3) 11_555
F8 Pb2 2.68(4) 12_455
F8 Ga1 1.81(3) 1_555
F8 Ga1 3.45(3) 5_556
F8 F1 3.07(5) 1_555
F8 F1 3.49(4) 4_555
F8 F2 3.03(3) 13_555
F8 F3 0.98(5) 1_555
F8 F3 2.40(5) 2_555
F8 F3 3.43(5) 3_555
F8 F3 2.65(6) 4_555
F8 F3 2.96(5) 7_556
F8 F8 2.06(4) 2_555
F8 F8 2.92(5) 3_555
F8 F8 2.06(6) 4_555
F8 F8 2.91(5) 6_556
F8 F8 2.05(4) 7_556
F8 F8 2.91(4) 8_556
F8 F9 2.64(3) 1_555
F8 F9 3.35(4) 2_555
F8 F9 3.28(5) 4_555
F9 Pb1 2.46(4) 1_555
F9 Ga1 2.09(3) 1_555
F9 Ga1 2.09(3) 5_555
F9 F1 3.01(6) 1_555
F9 F1 3.01(6) 7_555
F9 F3 1.85(4) 1_555
F9 F3 2.77(5) 2_555
F9 F3 3.07(6) 4_555
F9 F3 3.07(6) 6_555
F9 F3 1.85(4) 7_555
F9 F3 2.77(5) 8_555
F9 F8 2.64(3) 1_555
F9 F8 3.28(4) 2_555
F9 F8 3.35(5) 4_555
F9 F8 3.35(5) 6_555
F9 F8 2.64(3) 7_555
F9 F8 3.28(4) 8_555
F9 F9 1.96(6) 2_555
F9 F9 2.78(7) 3_555
F9 F9 1.96(8) 4_555
