#------------------------------------------------------------------------------
#$Date: 2016-11-25 18:11:24 +0200 (Fri, 25 Nov 2016) $
#$Revision: 188673 $
#$URL: file:///home/coder/svn-repositories/cod/cif/3/50/00/3500046.cif $
#------------------------------------------------------------------------------
#
# This file is available in the Crystallography Open Database (COD),
# http://www.crystallography.net/
#
# All data on this site have been placed in the public domain by the
# contributors.
#
data_3500046
loop_
_publ_author_name
'Lubomir Smrcok'
'Armel Le Bail'
'Miroslav Boca'
_publ_requested_journal          'Inorganic Chemistry'
_publ_section_abstract
;
At least 7 polymorphs in the range 273-763K
;
_publ_section_title
;
 Polymorphism of K~2~ZrF~6~ by synchrotron powder diffraction and DFT
;
_journal_name_full               'Personal communication to COD'
_journal_year                    2016
_chemical_formula_moiety         'F6 Zr, 2(K)'
_chemical_formula_sum            'F6 K2 Zr'
_chemical_formula_weight         283.42
_chemical_name_systematic        ' ?'
_space_group_IT_number           63
_symmetry_cell_setting           orthorhombic
_symmetry_space_group_name_Hall  '-C 2c 2'
_symmetry_space_group_name_H-M   'C m c m'
_cell_angle_alpha                90.00000
_cell_angle_beta                 90.00000
_cell_angle_gamma                90.00000
_cell_formula_units_Z            16
_cell_length_a                   6.37122(8)
_cell_length_b                   20.5603(3)
_cell_length_c                   19.6642(3)
_cell_measurement_temperature    327
_cell_volume                     2575.90(6)
_computing_molecular_graphics    DIAMOND
_computing_structure_refinement  FULLPROF
_computing_structure_solution    ESPOIR
_diffrn_ambient_temperature      327
_diffrn_measurement_device_type  synchrotron
_diffrn_radiation_probe          x-ray
_diffrn_radiation_type           synchrotron
_diffrn_radiation_wavelength     0.82711
_exptl_absorpt_coefficient_mu    4.572
_exptl_crystal_density_diffrn    2.923
_exptl_crystal_density_method    'Not Measured'
_exptl_crystal_F_000             2112
_exptl_special_details
; 
Beamline I11
;
_pd_calibration_special_details  ' ?'
_pd_char_colour                  white
_pd_instr_location
; 
Diamond Light Source, Didcot, UK
;
_pd_meas_2theta_range_inc        0.004
_pd_meas_2theta_range_max        60.00
_pd_meas_2theta_range_min        2.084
_pd_meas_number_of_points        14480
_pd_proc_2theta_range_inc        0.004
_pd_proc_2theta_range_max        60.0000
_pd_proc_2theta_range_min        2.0999
_pd_proc_ls_pref_orient_corr     ' ?'
_pd_proc_ls_prof_R_factor        2.9931
_pd_proc_ls_prof_wR_expected     1.2615
_pd_proc_ls_prof_wR_factor       4.3488
_pd_proc_ls_special_details      ' ?'
_pd_proc_wavelength              0.827110
_refine_ls_goodness_of_fit_all   3.447
_refine_ls_number_parameters     183
_refine_ls_number_reflns         4085
_refine_ls_number_restraints     0
_refine_ls_R_I_factor            6.0290
_refine_ls_shift/su_max          0.03
_refine_special_details          ' ?'
_iucr_refine_instructions_details
;
Fullprof .pcr file, modified to fit inside 80 columns
followed by the .dat file


COMM         Down from 300 to 54&#x00B0;C
! Current global Chi2 (Bragg contrib.) =      12.39    
! Files => DAT-file: 54-2.dat,  PCR-file: 54-2
!Job Npr Nph Nba Nex Nsc Nor Dum Iwg Ilo Ias Res Ste Nre Cry Uni Cor Opt Aut
   0   5   2 124   5   0   1   1   0   0   1   0   0   0   0   0   0   0   0
!
!Ipr Ppl Ioc Mat Pcr Ls1 Ls2 Ls3 NLI Prf Ins Rpa Sym Hkl Fou Sho Ana
   0   0   1   0   2   0   4   0   0   3  10  -1   0  -2   2   0   0
!
! Lambda1  Lambda2    Ratio    Bkpos    Wdt    Cthm     muR   AsyLim   Rpolarz  2nd-muR -> Patt# 1
 0.827110 0.827110  1.00000   40.000 10.0000  0.0000  0.0000   30.00    0.0000  0.0000
!
!NCY  Eps  R_at  R_an  R_pr  R_gl     Thmin       Step       Thmax    PSD    Sent0
 20  0.01  0.20  0.20  0.20  0.20      2.0840   0.004000    60.0000   0.000   0.000
!
!2Theta/TOF/E(Kev)   Background  for Pattern#  1
         2.1400      2555.4270          0.00
         2.6920      3391.8860          0.00
         3.3320      3928.7319          0.00
         3.6110      5056.2290        581.00
         3.7810      5476.5220        591.00
         3.9160      6053.9160        601.00
         4.0850      6286.6304        611.00
         4.2540      6397.5547        621.00
         4.4400      6442.8066        631.00
         4.6770      6634.7227        641.00
         4.8890      6655.6953        651.00
         5.2270      7230.3198        661.00
         5.3620      7660.2773        671.00
         5.4550      8174.0654        681.00
         5.5820      8431.5791        691.00
         5.7010      8045.9355        701.00
         5.7770      7698.5210        711.00
         5.9460      7480.1274        721.00
         6.0980      7539.8232        731.00
         6.3440      7722.6113        741.00
         6.5040      7997.4175        751.00
         6.7070      8770.5752        761.00
         6.9270      9226.3213        771.00
         7.0710      9665.7568        781.00
         7.2400     10013.8223        791.00
         7.3920     10080.9570        801.00
         7.5620     10405.8623        811.00
         7.7050      9595.5645        821.00
         7.8580      9653.8408        831.00
         8.0020      9602.1094        841.00
         8.1880      9840.7139        851.00
         8.3110      9748.5557        861.00
         8.5850     13967.5605        871.00
         8.6630      8504.2100        881.00
         9.0000      9346.5146        891.00
         9.2360      9198.3574        901.00
         9.6680     10622.1201        911.00
         9.9810     10220.8408        921.00
        10.7420     10466.8086        931.00
        11.1850     10220.7959        941.00
        11.2830      9902.8779        951.00
        11.4440      9979.5469        961.00
        11.9180      9825.1494        971.00
        12.1290      9435.9785        981.00
        12.5400      9427.4873        991.00
        13.3960      9385.5439       1001.00
        13.9960      6735.0835       1011.00
        14.5440      7512.5723       1021.00
        15.2760      7222.3999       1031.00
        15.8040      5914.8984       1041.00
        16.4320      5531.1460       1051.00
        17.0440      5493.4692       1061.00
        17.2920      5232.0195       1071.00
        17.9360      5218.9316       1081.00
        18.7160      5178.2305       1091.00
        19.1560      5023.4702       1101.00
        19.9720      4978.7163       1111.00
        20.1960      5210.3960       1121.00
        20.9840      4971.9722       1131.00
        21.7440      5434.2930       1141.00
        22.2120      5519.2720       1151.00
        22.6480      5181.0322       1161.00
        23.2480      5475.2451       1171.00
        24.0800      4966.8853       1181.00
        24.5840      4855.0557       1191.00
        24.9760      4822.6143       1201.00
        25.8120      5355.2446       1211.00
        26.2080      4376.1338       1221.00
        27.2840      4729.0479       1231.00
        27.2920      4131.5273       1241.00
        28.4280      4647.5488       1251.00
        28.9160      4119.3311       1261.00
        29.4880      3777.2007       1271.00
        30.0560      4393.3140       1281.00
        30.7880      4060.3486       1291.00
        31.2960      4289.5947       1301.00
        32.0920      4042.6072       1311.00
        32.6920      3932.3811       1321.00
        32.7120      3887.2761       1331.00
        33.7040      4086.4365       1341.00
        33.8960      3990.5784       1351.00
        34.6320      3878.1436       1361.00
        35.6040      4417.0635       1371.00
        36.0360      4057.7446       1381.00
        36.3240      4104.6069       1391.00
        37.2480      4025.0317       1401.00
        37.9200      4301.6113       1411.00
        38.3040      4336.7090       1421.00
        39.1520      4176.4707       1431.00
        39.8600      4273.7842       1441.00
        40.4560      3979.9878       1451.00
        41.0640      3932.5945       1461.00
        41.6480      3758.5010       1471.00
        42.2760      3811.6646       1481.00
        42.8280      3517.9495       1491.00
        43.1720      3536.1770       1501.00
        43.8560      3415.3677       1511.00
        44.5640      3419.7971       1521.00
        45.2360      3319.3728       1531.00
        45.8440      3343.3870       1541.00
        46.2440      3184.7671       1551.00
        47.0880      3371.7083       1561.00
        47.2440      3381.9612       1571.00
        47.7480      3173.1519       1581.00
        48.7320      3256.3291       1591.00
        49.2080      3276.3657       1601.00
        49.8400      3264.0552       1611.00
        50.6600      3287.7444       1681.00
        50.7840      3321.0391       1691.00
        51.4880      3163.0645       1701.00
        52.0160      3243.6582       1711.00
        53.0240      3188.4001       1721.00
        53.6960      3186.1377       1731.00
        53.7320      3187.4534       1741.00
        54.4520      3166.9788       1751.00
        55.4760      3146.9631       1761.00
        55.7720      3160.0684       1771.00
        56.6640      3086.3799       1781.00
        57.2560      3035.9797       1791.00
        57.7160      3048.9578       1801.00
        58.4680      2993.6252       1811.00
        58.9080      2982.1042       1821.00
        59.1160      2958.9473       1831.00
        60.0920      2916.4221          0.00
! 
! Excluded regions (LowT  HighT) for Pattern#  1
        0.00        3.57
        8.32        8.50
        8.68        8.99
       10.79       11.15
       60.00      180.00
! 
!
     183    !Number of refined parameters
!
!  Zero    Code    SyCos    Code   SySin    Code  Lambda     Code MORE ->Patt# 1
 -0.01595 1661.0  0.00000    0.0  0.00000    0.0 0.000000    0.00   0
!-------------------------------------------------------------------------------
!  Data for PHASE number:   1  ==> Current R_Bragg for Pattern#  1:     6.03
!-------------------------------------------------------------------------------
 phase 1:
!
!Nat Dis Ang Pr1 Pr2 Pr3 Jbt Irf Isy Str Furth       ATZ    Nvk Npr More
  18   0   0 0.0 0.0 1.0   0   0   0   0   0       3557.269   0   5   1
!
!Jvi Jdi Hel Sol Mom Ter  Brind   RMua    RMub    RMuc   Jtyp  Nsp_Ref Ph_Shift N_Domains
   0   3   0   0   0   0  1.0000  0.0000  0.0000  0.0000    0      0      0      0
!
! Max_dst(dist) (angles)  Bond-Valence Calc.
      4.0000      3.5000        1  
C M C M                  <--Space group symbol
!Atom   Typ       X        Y        Z     Biso       Occ     In Fin N_t Spc /Codes
ZR1    Zr      0.50000  0.87239  0.03589  2.00969   0.50000   0   0   0    0  
                  0.00    61.00    71.00   341.00      0.00
ZR2    Zr      0.50000  0.30631  0.75000  1.11676   0.25000   0   0   0    0  
                  0.00    51.00     0.00   371.00      0.00
ZR3    Zr      0.50000  0.50675  0.75000  5.92146   0.25000   0   0   0    0  
                  0.00    81.00     0.00   381.00      0.00
K1     K       0.00000  0.77150  0.34445  3.23764   0.50000   0   0   0    0  
                  0.00    91.00   101.00    31.00      0.00
K2     K       0.00000  0.18648  0.05434  3.52691   0.50000   0   0   0    0  
                  0.00   111.00   121.00   391.00      0.00
K3     K       0.50000  0.06622  0.35130  5.29683   0.50000   0   0   0    0  
                  0.00   131.00   141.00   401.00      0.00
K4     K       0.00000  0.00000  0.00000  9.53034   0.25000   0   0   0    0  
                  0.00     0.00     0.00   411.00      0.00
K5     K       0.50000  0.11414  0.75000  6.78845   0.25000   0   0   0    0  
                  0.00    41.00     0.00   421.00      0.00
F1     F       0.30095  0.82462  0.41488 10.07247   1.00000   0   0   0    0  
                151.00   161.00   171.00   431.00      0.00
F2     F       0.22391  0.58881  0.02410  5.01100   1.00000   0   0   0    0  
                201.00   211.00   221.00   441.00      0.00
F3     F       0.20335  0.82551  0.82895  2.11492   1.00000   0   0   0    0  
                231.00   241.00   251.00  1671.00      0.00
F4     F       0.30215  0.22140  0.75000  3.91088   0.50000   0   0   0    0  
                181.00   191.00     0.00   451.00      0.00
F5     F       0.00000  0.55795  0.90270  6.94155   0.50000   0   0   0    0  
                  0.00   261.00   271.00   461.00      0.00
F6     F       0.50000  0.80537 -0.03085 11.18388   0.50000   0   0   0    0  
                  0.00   301.00   311.00   471.00      0.00
F7     F       0.77467  0.50558  0.75000 32.59980   0.50000   0   0   0    0  
                321.00   331.00     0.00   481.00      0.00
F8     F       0.50000  0.50458  0.64829 12.18433   0.50000   0   0   0    0  
                  0.00   351.00   361.00   491.00      0.00
F9     F       0.50000  0.59937  0.75000 12.64972   0.25000   0   0   0    0  
                  0.00   281.00     0.00   501.00      0.00
F10    F       0.50000  0.40560  0.75000  4.09075   0.25000   0   0   0    0  
                  0.00   291.00     0.00   511.00      0.00
!-------> Profile Parameters for Pattern #  1
!  Scale        Shape1      Bov      Str1      Str2      Str3   Strain-Model
 0.74379E-04   0.28909   0.00000   0.00000   0.00000   0.00000       0
    11.00000   521.000     0.000     0.000     0.000     0.000
!       U         V          W           X          Y        GauSiz   LorSiz Size-Model
   0.008000   0.022823  -0.000500   0.000000   0.000000   0.000000   0.000000    0
      0.000    541.000    531.000      0.000      0.000      0.000      0.000
!     a          b         c        alpha      beta       gamma      #Cell Info
   6.371222  20.560316  19.664181  90.000000  90.000000  90.000000   
  551.00000  561.00000  571.00000    0.00000    0.00000    0.00000
!  Pref1    Pref2      Asy1     Asy2     Asy3     Asy4  
  1.00000  0.00000 -0.05069 -0.00494  0.00000  0.00000
     0.00     0.00  1641.00  1651.00     0.00     0.00
!-------------------------------------------------------------------------------
!  Data for PHASE number:   2  ==> Current R_Bragg for Pattern#  1:    15.49
!-------------------------------------------------------------------------------
 phase 2:
!
!Nat Dis Ang Pr1 Pr2 Pr3 Jbt Irf Isy Str Furth       ATZ    Nvk Npr More
   6   0   0 0.0 0.0 1.0   0   0   0   0   0        566.813   0   5   1
!
!Jvi Jdi Hel Sol Mom Ter  Brind   RMua    RMub    RMuc   Jtyp  Nsp_Ref Ph_Shift N_Domains
   0   3   0   0   0   0  1.0000  0.0000  0.0000  0.0000    0      0      0      0
!
! Max_dst(dist) (angles)  Bond-Valence Calc.
      4.0000      3.5000        1  
P 4/N M M                <--Space group symbol
!Atom   Typ       X        Y        Z     Biso       Occ     In Fin N_t Spc /Codes
ZR     Zr      0.25000  0.25000  0.77181  2.92070   0.12500   0   0   0    0  
                  0.00     0.00     0.00     0.00      0.00
K1     K       0.25000  0.25000  0.29244  3.96854   0.12500   0   0   0    0  
                  0.00     0.00     0.00     0.00      0.00
K2     K       0.75000  0.25000  0.00000  5.46207   0.12500   0   0   0    0  
                  0.00     0.00     0.00     0.00      0.00
F1     F       0.47133  0.02867  0.79176  7.79780   0.50000   0   0   0    0  
                  0.00     0.00     0.00     0.00      0.00
F2     F       0.25000  0.25000  0.55999  9.11946   0.12500   0   0   0    0  
                  0.00     0.00     0.00     0.00      0.00
F3     F       0.25000  0.25000  0.98998  9.11946   0.12500   0   0   0    0  
                  0.00     0.00     0.00     0.00      0.00
!-------> Profile Parameters for Pattern #  1
!  Scale        Shape1      Bov      Str1      Str2      Str3   Strain-Model
 0.53718E-04   0.29790   0.00000   0.00000   0.00000   0.00000       0
    21.00000     0.000     0.000     0.000     0.000     0.000
!       U         V          W           X          Y        GauSiz   LorSiz Size-Model
   0.008000   0.022353  -0.000590   0.000000   0.000000   0.000000   0.000000    0
      0.000      0.000      0.000      0.000      0.000      0.000      0.000
!     a          b         c        alpha      beta       gamma      #Cell Info
   6.325798   6.325798   9.240684  90.000000  90.000000  90.000000   
 1621.00000 1621.00000 1631.00000    0.00000    0.00000    0.00000
!  Pref1    Pref2      Asy1     Asy2     Asy3     Asy4  
  1.00000  0.00000 -0.05069 -0.00494  0.00000  0.00000
     0.00     0.00  1641.00  1651.00     0.00     0.00
!  2Th1/TOF1    2Th2/TOF2  Pattern # 1
       3.570      60.000       1




The .dat file :



!
!
!     54&#x00B0;C back
!
!
!
2.084000 2857.630400 53.456809
2.088000 2720.437867 52.157817
2.092000 2936.569218 54.190121
2.096000 2906.864000 53.915341
2.100000 2928.154667 54.112426
2.104000 2858.736000 53.467149
2.108000 2801.832489 52.932339
2.112000 2896.675200 53.820769
2.116000 2940.092800 54.222623
2.120000 3031.264533 55.056921
2.124000 2951.612800 54.328747
2.128000 2949.230933 54.306822
2.132000 3047.505067 55.204212
2.136000 2956.661510 54.375192
2.140000 2975.588267 54.548953
2.144000 3071.315200 55.419448
2.148000 2872.811733 53.598617
2.152000 3064.538667 55.358276
2.156000 3025.529600 55.004814
2.160000 2989.114370 54.672794
2.164000 2913.116267 53.973292
2.168000 2976.821333 54.560254
2.172000 3144.939200 56.079757
2.176000 3117.041600 55.830472
2.180000 3096.823467 55.649110
2.184000 3063.841600 55.351979
2.188000 2950.310850 54.316764
2.192000 3050.848000 55.234482
2.196000 3066.613333 55.377011
2.200000 3041.536000 55.150122
2.204000 3099.875200 55.676523
2.208000 3058.636267 55.304939
2.212000 3189.787257 56.478202
2.216000 3122.510933 55.879432
2.220000 3141.420800 56.048379
2.224000 3129.635830 55.943148
2.228000 3215.140267 56.702207
2.232000 3146.348707 56.092323
2.236000 3109.257600 55.760717
2.240000 3204.187150 56.605540
2.244000 3201.224000 56.579360
2.248000 3278.294855 57.256396
2.252000 3357.655467 57.945280
2.256000 3366.264996 58.019523
2.260000 3380.946133 58.145904
2.264000 3300.009600 57.445710
2.268000 3311.147427 57.542571
2.272000 3229.890696 56.832127
2.276000 3326.400000 57.674951
2.280000 3391.989336 58.240788
2.284000 3470.700080 58.912648
2.288000 3431.961610 58.582946
2.292000 3454.024000 58.770945
2.296000 3415.639563 58.443473
2.300000 3457.074913 58.796895
2.304000 3528.597174 59.401996
2.308000 3548.390400 59.568367
2.312000 3385.573447 58.185681
2.316000 3515.184751 59.288994
2.320000 3553.171421 59.608484
2.324000 3544.026660 59.531728
2.328000 3475.539856 58.953709
2.332000 3441.223674 58.661944
2.336000 3637.659948 60.313016
2.340000 3622.804726 60.189739
2.344000 3658.110364 60.482314
2.348000 3576.234446 59.801626
2.352000 3612.105821 60.100797
2.356000 3584.389189 59.869769
2.360000 3654.971639 60.456361
2.364000 3631.143802 60.258973
2.368000 3613.176674 60.109705
2.372000 3608.432741 60.070232
2.376000 3626.363069 60.219292
2.380000 3617.949309 60.149392
2.384000 3727.646005 61.054451
2.388000 3652.468421 60.435655
2.392000 3697.825386 60.809747
2.396000 3775.173685 61.442442
2.400000 3717.427690 60.970712
2.404000 3746.177956 61.206029
2.408000 3737.914013 61.138482
2.412000 3727.338345 61.051932
2.416000 3715.563972 60.955426
2.420000 3674.919204 60.621112
2.424000 3777.332501 61.460007
2.428000 3699.145629 60.820602
2.432000 3709.517468 60.905808
2.436000 3838.851442 61.958465
2.440000 3692.770982 60.768174
2.444000 3776.792239 61.455612
2.448000 3788.288053 61.549070
2.452000 3777.157160 61.458581
2.456000 3737.842442 61.137897
2.460000 3809.414163 61.720452
2.464000 3765.509154 61.363745
2.468000 3783.010090 61.506179
2.472000 3757.476364 61.298257
2.476000 3717.985870 60.975289
2.480000 3889.017022 62.361984
2.484000 3880.846960 62.296444
2.488000 3845.540078 62.012419
2.492000 3803.824813 61.675156
2.496000 3829.563270 61.883465
2.500000 3808.045055 61.709360
2.504000 3765.776768 61.365925
2.508000 3780.354876 61.484591
2.512000 3803.150093 61.669685
2.516000 3815.926573 61.773187
2.520000 3889.996338 62.369835
2.524000 3929.346401 62.684499
2.528000 3824.343376 61.841276
2.532000 3878.116081 62.274522
2.536000 3830.740757 61.892978
2.540000 3839.377316 61.962709
2.544000 3800.147427 61.645336
2.548000 3816.175635 61.775202
2.552000 3824.613158 61.843457
2.556000 3872.873314 62.232414
2.560000 3880.533849 62.293931
2.564000 3930.746022 62.695662
2.568000 3939.042712 62.761793
2.572000 3925.045959 62.650187
2.576000 4030.576286 63.486820
2.580000 4036.051459 63.529926
2.584000 3950.669764 62.854354
2.588000 3991.102645 63.175174
2.592000 3963.100915 62.953164
2.596000 3908.273554 62.516186
2.600000 3892.914339 62.393224
2.604000 4052.117508 63.656245
2.608000 4029.819126 63.480856
2.612000 4070.000845 63.796558
2.616000 4090.548169 63.957393
2.620000 4041.511365 63.572882
2.624000 4057.587182 63.699193
2.628000 4007.474671 63.304618
2.632000 4027.427505 63.462016
2.636000 4029.435109 63.477832
2.640000 4030.431405 63.485679
2.644000 4146.145141 64.390567
2.648000 4042.640616 63.581763
2.652000 4129.392018 64.260346
2.656000 4007.240257 63.302767
2.660000 4098.857481 64.022320
2.664000 4098.830629 64.022110
2.668000 4082.673260 63.895800
2.672000 4148.237740 64.406814
2.676000 4218.832713 64.952542
2.680000 4166.276829 64.546703
2.684000 4071.685025 63.809757
2.688000 4157.232469 64.476604
2.692000 4097.691380 64.013213
2.696000 4092.163546 63.970021
2.700000 4104.277186 64.064633
2.704000 4113.851200 64.139311
2.708000 4107.141980 64.086988
2.712000 4162.064499 64.514064
2.716000 4089.923292 63.952508
2.720000 4161.648716 64.510842
2.724000 4223.095416 64.985348
2.728000 4149.476217 64.416428
2.732000 4129.982260 64.264938
2.736000 4163.959412 64.528749
2.740000 4208.126066 64.870071
2.744000 4226.660767 65.012774
2.748000 4235.459599 65.080409
2.752000 4150.836638 64.426987
2.756000 4289.352612 65.493149
2.760000 4295.121865 65.537179
2.764000 4159.337865 64.492929
2.768000 4162.894138 64.520494
2.772000 4271.357805 65.355626
2.776000 4235.583447 65.081360
2.780000 4295.876912 65.542939
2.784000 4268.699866 65.335288
2.788000 4232.968979 65.061271
2.792000 4239.353180 65.110315
2.796000 4228.649520 65.028067
2.800000 4237.190262 65.093704
2.804000 4190.459459 64.733758
2.808000 4310.822912 65.656857
2.812000 4250.677862 65.197223
2.816000 4218.801739 64.952304
2.820000 4197.914166 64.791312
2.824000 4319.370310 65.721917
2.828000 4329.116105 65.796019
2.832000 4301.370903 65.584837
2.836000 4313.037449 65.673720
2.840000 4426.084732 66.528826
2.844000 4322.789256 65.747922
2.848000 4341.552880 65.890461
2.852000 4288.823874 65.489113
2.856000 4348.803291 65.945457
2.860000 4374.392604 66.139191
2.864000 4286.689623 65.472816
2.868000 4261.589350 65.280850
2.872000 4382.328537 66.199158
2.876000 4412.307415 66.425202
2.880000 4293.491871 65.524742
2.884000 4315.182254 65.690047
2.888000 4341.078662 65.886863
2.892000 4447.550563 66.689958
2.896000 4359.181988 66.024102
2.900000 4263.527657 65.295694
2.904000 4373.870067 66.135241
2.908000 4386.715013 66.232281
2.912000 4319.938716 65.726241
2.916000 4402.290096 66.349756
2.920000 4440.041672 66.633638
2.924000 4447.016130 66.685952
2.928000 4453.712898 66.736144
2.932000 4383.995344 66.211746
2.936000 4481.382894 66.943132
2.940000 4373.515874 66.132563
2.944000 4375.260858 66.145755
2.948000 4458.419973 66.771401
2.952000 4447.966890 66.693080
2.956000 4293.499504 65.524801
2.960000 4424.130557 66.514138
2.964000 4466.383693 66.831008
2.968000 4351.437053 65.965423
2.972000 4402.513722 66.351441
2.976000 4427.564012 66.539943
2.980000 4398.527215 66.321393
2.984000 4398.924993 66.324392
2.988000 4390.009672 66.257148
2.992000 4539.211298 67.373669
2.996000 4588.130487 67.735740
3.000000 4474.800282 66.893948
3.004000 4474.976926 66.895268
3.008000 4523.272848 67.255281
3.012000 4522.392835 67.248739
3.016000 4495.425418 67.047934
3.020000 4508.796209 67.147570
3.024000 4496.203391 67.053735
3.028000 4475.657291 66.900353
3.032000 4492.487714 67.026023
3.036000 4573.885159 67.630505
3.040000 4613.133762 67.920054
3.044000 4584.274500 67.707271
3.048000 4441.613824 66.645434
3.052000 4492.715694 67.027723
3.056000 4527.790495 67.288859
3.060000 4553.166317 67.477154
3.064000 4505.825096 67.125443
3.068000 4430.829382 66.564475
3.072000 4567.148908 67.580684
3.076000 4451.423634 66.718990
3.080000 4575.167924 67.639988
3.084000 4581.671329 67.688044
3.088000 4520.713175 67.236249
3.092000 4554.125020 67.484258
3.096000 4590.225360 67.751202
3.100000 4604.228880 67.854468
3.104000 4637.704473 68.100694
3.108000 4608.798783 67.888134
3.112000 4633.148611 68.067236
3.116000 4567.677411 67.584594
3.120000 4549.745919 67.451804
3.124000 4532.314926 67.322470
3.128000 4548.365607 67.441572
3.132000 4632.023442 68.058970
3.136000 4617.612474 67.953017
3.140000 4663.039998 68.286455
3.144000 4638.656093 68.107680
3.148000 4612.582046 67.915993
3.152000 4636.841902 68.094360
3.156000 4720.706272 68.707396
3.160000 4589.800359 67.748065
3.164000 4573.422312 67.627083
3.168000 4631.664891 68.056336
3.172000 4614.881265 67.932917
3.176000 4606.684070 67.872558
3.180000 4578.796815 67.666807
3.184000 4607.562352 67.879027
3.188000 4708.906994 68.621476
3.192000 4719.731220 68.700300
3.196000 4662.177698 68.280141
3.200000 4586.919819 67.726803
3.204000 4729.103452 68.768477
3.208000 4712.796473 68.649810
3.212000 4591.525839 67.760799
3.216000 4667.176033 68.316733
3.220000 4695.511714 68.523804
3.224000 4803.199254 69.305117
3.228000 4656.110667 68.235699
3.232000 4672.778370 68.357724
3.236000 4771.936335 69.079203
3.240000 4666.684522 68.313136
3.244000 4754.178906 68.950554
3.248000 4640.347728 68.120098
3.252000 4723.156367 68.725224
3.256000 4747.872446 68.904807
3.260000 4655.979755 68.234740
3.264000 4729.852355 68.773922
3.268000 4780.856686 69.143739
3.272000 4718.491406 68.691276
3.276000 4712.337332 68.646466
3.280000 4734.529835 68.807920
3.284000 4678.370500 68.398615
3.288000 4710.213639 68.630996
3.292000 4658.430300 68.252694
3.296000 4802.241812 69.298209
3.300000 4751.185728 68.928845
3.304000 4820.859084 69.432407
3.308000 4818.639109 69.416418
3.312000 4754.639462 68.953894
3.316000 4815.048901 69.390553
3.320000 4847.710709 69.625503
3.324000 4794.884410 69.245104
3.328000 4780.192735 69.138938
3.332000 4759.952584 68.992410
3.336000 4756.747986 68.969181
3.340000 4782.423406 69.155068
3.344000 4772.121795 69.080546
3.348000 4821.369206 69.436080
3.352000 4778.055391 69.123479
3.356000 4936.205271 70.258133
3.360000 4766.491984 69.039786
3.364000 4893.422216 69.953000
3.368000 4713.772745 68.656921
3.372000 4808.849800 69.345871
3.376000 4836.888867 69.547745
3.380000 4772.737398 69.085001
3.384000 4891.406996 69.938594
3.388000 4926.626798 70.189934
3.392000 4904.252463 70.030368
3.396000 4889.368054 69.924016
3.400000 4860.972944 69.720678
3.404000 4821.014770 69.433528
3.408000 4841.561843 69.581333
3.412000 4855.117710 69.678675
3.416000 4806.931877 69.332041
3.420000 4802.691854 69.301456
3.424000 4899.402663 69.995733
3.428000 4885.568257 69.896840
3.432000 4803.204154 69.305152
3.436000 4916.085069 70.114799
3.440000 4910.814381 70.077203
3.444000 4865.043745 69.749866
3.448000 4876.282327 69.830383
3.452000 4925.824071 70.184215
3.456000 4922.908921 70.163444
3.460000 4836.924698 69.548003
3.464000 4923.198501 70.165508
3.468000 4884.296138 69.887740
3.472000 4944.722290 70.318719
3.476000 4983.358722 70.592908
3.480000 4913.347327 70.095273
3.484000 5019.337949 70.847286
3.488000 4905.478336 70.039120
3.492000 5001.622712 70.722151
3.496000 4965.056486 70.463157
3.500000 4934.508978 70.246060
3.504000 4997.172836 70.690684
3.508000 4956.937417 70.405521
3.512000 4848.007989 69.627638
3.516000 4901.295555 70.009253
3.520000 4973.019174 70.519637
3.524000 5015.321525 70.818935
3.528000 5046.466312 71.038485
3.532000 5035.785965 70.963272
3.536000 4996.986004 70.689363
3.540000 5083.162450 71.296300
3.544000 5014.953927 70.816339
3.548000 4996.055925 70.682784
3.552000 5036.555663 70.968695
3.556000 4943.716911 70.311570
3.560000 5036.606391 70.969052
3.564000 5052.567945 71.081418
3.568000 5062.509488 71.151314
3.572000 4987.814647 70.624462
3.576000 4908.105749 70.057874
3.580000 4980.724773 70.574250
3.584000 5027.914248 70.907787
3.588000 5067.081758 71.183437
3.592000 4975.437202 70.536779
3.596000 5003.671638 70.736636
3.600000 5106.954727 71.462961
3.604000 5058.886818 71.125852
3.608000 5099.050590 71.407637
3.612000 5113.604029 71.509468
3.616000 5038.943808 70.985518
3.620000 5169.707889 71.900681
3.624000 5124.138482 71.583088
3.628000 5186.002984 72.013908
3.632000 5176.960320 71.951097
3.636000 5121.241545 71.562850
3.640000 5064.507002 71.165350
3.644000 5039.319574 70.988165
3.648000 5011.366488 70.791006
3.652000 5069.185353 71.198212
3.656000 5130.954397 71.630681
3.660000 5133.405326 71.647787
3.664000 5179.358251 71.967758
3.668000 5152.424834 71.780393
3.672000 5237.904128 72.373366
3.676000 5198.421916 72.100083
3.680000 5173.282249 71.925533
3.684000 5295.807679 72.772300
3.688000 5345.071638 73.109997
3.692000 5210.208429 72.181774
3.696000 5177.777097 71.956772
3.700000 5202.868743 72.130914
3.704000 5132.604527 71.642198
3.708000 5256.297590 72.500328
3.712000 5300.212517 72.802558
3.716000 5265.987521 72.567124
3.720000 5257.494170 72.508580
3.724000 5329.830626 73.005689
3.728000 5248.727563 72.448103
3.732000 5314.750232 72.902334
3.736000 5329.653694 73.004477
3.740000 5377.963782 73.334602
3.744000 5327.153544 72.987352
3.748000 5340.241074 73.076953
3.752000 5356.053860 73.185066
3.756000 5347.622893 73.127443
3.760000 5368.770706 73.271896
3.764000 5470.696810 73.964159
3.768000 5431.920660 73.701565
3.772000 5387.525433 73.399765
3.776000 5405.015718 73.518812
3.780000 5488.600652 74.085091
3.784000 5559.612517 74.562809
3.788000 5620.177849 74.967845
3.792000 5576.161385 74.673699
3.796000 5636.363136 75.075716
3.800000 5657.804812 75.218381
3.804000 5661.286741 75.241523
3.808000 5560.256458 74.567127
3.812000 5612.657943 74.917674
3.816000 5739.948765 75.762450
3.820000 5641.350284 75.108923
3.824000 5716.610120 75.608268
3.828000 5694.564963 75.462341
3.832000 5755.872540 75.867467
3.836000 5764.727729 75.925804
3.840000 5802.404498 76.173516
3.844000 5695.885265 75.471089
3.848000 5782.598176 76.043397
3.852000 5899.121938 76.805742
3.856000 5826.577097 76.332019
3.860000 5872.721258 76.633682
3.864000 5849.230298 76.480261
3.868000 5919.246455 76.936639
3.872000 5976.338392 77.306781
3.876000 5961.976032 77.213833
3.880000 5963.226038 77.221927
3.884000 5930.418842 77.009213
3.888000 5854.325879 76.513567
3.892000 5903.596030 76.834862
3.896000 5907.430777 76.859812
3.900000 5940.642344 77.075563
3.904000 6074.902869 77.941663
3.908000 6080.958733 77.980502
3.912000 6116.946837 78.210913
3.916000 5920.128062 76.942368
3.920000 5951.005337 77.142759
3.924000 5921.057774 76.948410
3.928000 6002.835156 77.477966
3.932000 6015.739677 77.561200
3.936000 6072.097731 77.923666
3.940000 5986.537405 77.372717
3.944000 6114.888179 78.197750
3.948000 6123.939297 78.255602
3.952000 6024.665991 77.618722
3.956000 6022.820554 77.606833
3.960000 6030.263790 77.654773
3.964000 6158.435037 78.475697
3.968000 6152.018646 78.434805
3.972000 6071.594515 77.920437
3.976000 6198.103834 78.728037
3.980000 6197.116257 78.721765
3.984000 6152.644302 78.438793
3.988000 6220.088757 78.867539
3.992000 6215.867732 78.840775
3.996000 6177.273962 78.595636
4.000000 6030.550451 77.656619
4.004000 6184.325581 78.640483
4.008000 6154.059105 78.447811
4.012000 6158.108892 78.473619
4.016000 6184.764465 78.643273
4.020000 6262.275559 79.134541
4.024000 6328.787806 79.553679
4.028000 6378.563167 79.865907
4.032000 6123.790202 78.254650
4.036000 6273.378141 79.204660
4.040000 6253.219382 79.077300
4.044000 6203.806719 78.764248
4.048000 6242.190096 79.007532
4.052000 6306.307242 79.412261
4.056000 6275.875284 79.220422
4.060000 6304.895634 79.403373
4.064000 6233.706070 78.953822
4.068000 6335.786863 79.597656
4.072000 6368.565495 79.803293
4.076000 6386.189563 79.913638
4.080000 6216.722045 78.846192
4.084000 6238.210572 78.982343
4.088000 6330.116613 79.562030
4.092000 6117.135783 78.212120
4.096000 6286.007721 79.284347
4.100000 6251.282215 79.065051
4.104000 6209.710276 78.801715
4.108000 6221.794462 78.878352
4.112000 6256.664537 79.099081
4.116000 6299.772630 79.371107
4.120000 6335.849308 79.598048
4.124000 6300.974973 79.378681
4.128000 6309.258520 79.430841
4.132000 6344.608892 79.653053
4.136000 6309.125399 79.430003
4.140000 6228.218051 78.919060
4.144000 6351.493732 79.696259
4.148000 6361.940895 79.761776
4.152000 6299.902556 79.371925
4.156000 6310.897231 79.441156
4.160000 6296.455272 79.350206
4.164000 6409.295527 80.058076
4.168000 6396.297642 79.976857
4.172000 6352.764909 79.704234
4.176000 6298.806643 79.365022
4.180000 6429.080937 80.181550
4.184000 6422.150426 80.138321
4.188000 6199.761182 78.738562
4.192000 6271.875399 79.195173
4.196000 6351.659042 79.697296
4.200000 6417.210863 80.107496
4.204000 6361.988818 79.762076
4.208000 6381.764377 79.885946
4.212000 6434.205272 80.213498
4.216000 6393.497338 79.959348
4.220000 6359.384452 79.745749
4.224000 6386.261070 79.914086
4.228000 6353.597977 79.709460
4.232000 6340.040469 79.624371
4.236000 6495.178647 80.592671
4.240000 6368.429482 79.802440
4.244000 6454.845580 80.342054
4.248000 6422.756124 80.142100
4.252000 6404.105431 80.025655
4.256000 6394.822151 79.967632
4.260000 6363.628297 79.772353
4.264000 6419.514909 80.121875
4.268000 6321.047125 79.505013
4.272000 6463.981363 80.398889
4.276000 6359.633387 79.747310
4.280000 6433.478701 80.208969
4.284000 6292.169329 79.323195
4.288000 6321.054313 79.505058
4.292000 6341.964856 79.636454
4.296000 6361.357473 79.758119
4.300000 6411.388179 80.071144
4.304000 6431.817625 80.198614
4.308000 6561.449414 81.002774
4.312000 6428.940250 80.180673
4.316000 6370.021565 79.812415
4.320000 6500.424388 80.625209
4.324000 6425.617412 80.159949
4.328000 6460.962460 80.380112
4.332000 6489.813877 80.559381
4.336000 6396.148296 79.975923
4.340000 6385.616613 79.910053
4.344000 6401.841547 80.011509
4.348000 6350.191161 79.688087
4.352000 6456.690362 80.353534
4.356000 6417.221778 80.107564
4.360000 6462.659744 80.390670
4.364000 6374.692308 79.841670
4.368000 6410.462993 80.065367
4.372000 6477.050852 80.480127
4.376000 6334.592918 79.590156
4.380000 6609.102140 81.296385
4.384000 6452.792332 80.329274
4.388000 6427.477636 80.171551
4.392000 6523.520767 80.768315
4.396000 6491.912430 80.572405
4.400000 6461.385250 80.382742
4.404000 6380.215389 79.876250
4.408000 6420.853016 80.130225
4.412000 6387.853568 79.924049
4.416000 6424.057774 80.150220
4.420000 6321.417199 79.507341
4.424000 6360.286370 79.751404
4.428000 6360.341062 79.751746
4.432000 6465.863685 80.410594
4.436000 6378.108892 79.863063
4.440000 6376.912148 79.855571
4.444000 6407.632055 80.047686
4.448000 6441.647676 80.259876
4.452000 6478.575346 80.489598
4.456000 6441.962469 80.261837
4.460000 6514.974973 80.715395
4.464000 6536.552183 80.848947
4.468000 6445.434520 80.283464
4.472000 6492.204886 80.574220
4.476000 6522.648562 80.762916
4.480000 6537.608094 80.855477
4.484000 6626.714937 81.404637
4.488000 6510.468317 80.687473
4.492000 6533.690895 80.831249
4.496000 6507.270767 80.667656
4.500000 6425.880460 80.161590
4.504000 6360.607029 79.753414
4.508000 6518.141374 80.735007
4.512000 6541.173311 80.877520
4.516000 6524.278919 80.773009
4.520000 6418.579073 80.116035
4.524000 6505.805911 80.658576
4.528000 6501.848803 80.634042
4.532000 6486.481984 80.538699
4.536000 6508.522364 80.675414
4.540000 6544.359425 80.897215
4.544000 6555.010499 80.963019
4.548000 6585.108360 81.148681
4.552000 6457.340753 80.357581
4.556000 6569.391374 81.051782
4.560000 6584.029540 81.142033
4.564000 6588.205748 81.167763
4.568000 6730.192226 82.037749
4.572000 6826.154952 82.620548
4.576000 7160.962089 84.622468
4.580000 7379.574814 85.904452
4.584000 8133.143399 90.183942
4.588000 8928.573482 94.491129
4.592000 9541.255591 97.679351
4.596000 10513.127796 102.533545
4.600000 10925.889247 104.526979
4.604000 10320.609109 101.590399
4.608000 9324.568956 96.563808
4.612000 8518.997071 92.298413
4.616000 7786.338269 88.240230
4.620000 7397.484907 86.008633
4.624000 6918.475506 83.177374
4.628000 6697.066560 81.835607
4.632000 6683.285418 81.751363
4.636000 6586.960064 81.160089
4.640000 6621.137874 81.370375
4.644000 6558.287540 80.983255
4.648000 6635.079140 81.455995
4.652000 6623.060843 81.382190
4.656000 6599.451012 81.237005
4.660000 6598.470181 81.230968
4.664000 6659.014121 81.602783
4.668000 6682.292332 81.745289
4.672000 6676.261704 81.708394
4.676000 6601.058040 81.246896
4.680000 6592.986422 81.197207
4.684000 6547.179712 80.914645
4.688000 6523.520249 80.768312
4.692000 6524.814918 80.776326
4.696000 6459.339191 80.370014
4.700000 6578.769968 81.109617
4.704000 6624.820288 81.392999
4.708000 6710.060687 81.914960
4.712000 6581.484026 81.126346
4.716000 6625.988818 81.400177
4.720000 6597.015974 81.222017
4.724000 6620.559755 81.366822
4.728000 6644.515176 81.513896
4.732000 6613.517572 81.323536
4.736000 6637.702875 81.472099
4.740000 6652.318424 81.561746
4.744000 6647.726305 81.533590
4.748000 6606.136319 81.278142
4.752000 6738.327778 82.087318
4.756000 6801.964324 82.474022
4.760000 6590.301917 81.180675
4.764000 6669.012885 81.664024
4.768000 6741.391906 82.105980
4.772000 6728.583785 82.027945
4.776000 6685.174121 81.762914
4.780000 6816.901431 82.564529
4.784000 6832.030618 82.656098
4.788000 6876.763578 82.926254
4.792000 7129.021464 84.433533
4.796000 7314.211470 85.523163
4.800000 7534.619010 86.802183
4.804000 7668.575346 87.570402
4.808000 7657.088043 87.504789
4.812000 7756.559105 88.071330
4.816000 7809.702077 88.372519
4.820000 7431.625932 86.206879
4.824000 7248.356816 85.137282
4.828000 7052.894327 83.981512
4.832000 6901.492013 83.075219
4.836000 6858.564430 82.816450
4.840000 6763.741747 82.241971
4.844000 6642.669917 81.502576
4.848000 6657.070554 81.590873
4.852000 6570.642931 81.059502
4.856000 6653.004260 81.565950
4.860000 6623.325039 81.383813
4.864000 6506.568158 80.663301
4.868000 6554.590256 80.960424
4.872000 6697.254233 81.836754
4.876000 6729.268903 82.032121
4.880000 6746.909478 82.139573
4.884000 6664.284345 81.635068
4.888000 6681.654789 81.741390
4.892000 6645.262247 81.518478
4.896000 6742.818690 82.114668
4.900000 6710.694670 81.918830
4.904000 6775.394036 82.312782
4.908000 6700.730372 81.857989
4.912000 6708.542332 81.905692
4.916000 6711.950213 81.926493
4.920000 6641.427849 81.494956
4.924000 6753.844033 82.181774
4.928000 6767.479233 82.264690
4.932000 6737.606496 82.082925
4.936000 6738.838126 82.090427
4.940000 6733.872083 82.060174
4.944000 6750.274760 82.160056
4.948000 6681.876198 81.742744
4.952000 6840.432375 82.706906
4.956000 6743.918797 82.121366
4.960000 6766.293824 82.257485
4.964000 6683.738552 81.754135
4.968000 6695.451544 81.825739
4.972000 6721.638978 81.985602
4.976000 6713.195421 81.934092
4.980000 6761.993229 82.231340
4.984000 6759.044728 82.213410
4.988000 6728.932641 82.030072
4.992000 6737.828541 82.084277
4.996000 6698.990948 81.847364
5.000000 6745.617931 82.131711
5.004000 6829.454739 82.640515
5.008000 6783.764111 82.363609
5.012000 6916.851621 83.167612
5.016000 6910.264377 83.128000
5.020000 6780.596379 82.344377
5.024000 6819.210289 82.578510
5.028000 6797.528222 82.447124
5.032000 6761.902822 82.230790
5.036000 6914.240948 83.151915
5.040000 6917.825612 83.173467
5.044000 6801.050053 82.468479
5.048000 6941.391210 83.315012
5.052000 6919.739883 83.184974
5.056000 6828.782281 82.636446
5.060000 6820.158147 82.584249
5.064000 6870.028222 82.885633
5.068000 6804.136848 82.487192
5.072000 6756.667732 82.198952
5.076000 6838.661783 82.696202
5.080000 7076.290202 84.120688
5.084000 6953.594249 83.388214
5.088000 7023.297391 83.805116
5.092000 7173.898829 84.698871
5.096000 7419.705538 86.137713
5.100000 7614.224441 87.259523
5.104000 7911.052969 88.944100
5.108000 8474.940096 92.059438
5.112000 9086.634979 95.323843
5.116000 9782.785410 98.907964
5.120000 10100.700745 100.502242
5.124000 9692.372862 98.449849
5.128000 8923.152290 94.462439
5.132000 8248.886848 90.823383
5.136000 7861.005325 88.662311
5.140000 7504.432109 86.628125
5.144000 7411.788072 86.091742
5.148000 7216.143770 84.947889
5.152000 7154.827476 84.586213
5.156000 7199.427348 84.849439
5.160000 7307.120341 85.481696
5.164000 7590.651225 87.124343
5.168000 7930.100586 89.051112
5.172000 8589.254792 92.678233
5.176000 9203.690895 95.935869
5.180000 10193.107827 100.960922
5.184000 11370.478350 106.632445
5.188000 12150.108626 110.227531
5.192000 12590.676784 112.208185
5.196000 12400.955595 111.359578
5.200000 11350.739350 106.539849
5.204000 10636.680665 103.134285
5.208000 9435.496006 97.136481
5.212000 8785.157614 93.729172
5.216000 8134.949786 90.193956
5.220000 7724.116347 87.886952
5.224000 7461.451544 86.379694
5.228000 7431.279169 86.204867
5.232000 7133.875399 84.462272
5.236000 7134.281048 84.464673
5.240000 7246.972843 85.129154
5.244000 7281.405522 85.331152
5.248000 7269.789056 85.263058
5.252000 7330.820554 85.620211
5.256000 7355.894980 85.766514
5.260000 7206.206603 84.889379
5.264000 7367.986688 85.836977
5.268000 7472.572684 86.444044
5.272000 7359.089002 85.785133
5.276000 7330.707135 85.619549
5.280000 7301.027895 85.446053
5.284000 7456.367146 86.350259
5.288000 7403.817891 86.045441
5.292000 7345.669329 85.706880
5.296000 7340.390679 85.676080
5.300000 7383.219116 85.925660
5.304000 7502.050829 86.614380
5.308000 7500.645900 86.606269
5.312000 7423.653515 86.160626
5.316000 7443.236954 86.274196
5.320000 7409.844931 86.080456
5.324000 7493.764643 86.566533
5.328000 7498.931341 86.596370
5.332000 7468.417601 86.420007
5.336000 7604.894215 87.206045
5.340000 7647.299787 87.448841
5.344000 7716.106116 87.841369
5.348000 7750.606496 88.037529
5.352000 7785.970439 88.238146
5.356000 7774.410692 88.172619
5.360000 7660.952077 87.526865
5.364000 7730.883070 87.925440
5.368000 7660.652522 87.525154
5.372000 7731.670762 87.929920
5.376000 7715.808634 87.839676
5.380000 7851.873269 88.610797
5.384000 7748.758840 88.027035
5.388000 7818.211451 88.420651
5.392000 8005.354708 89.472648
5.396000 7927.915626 89.038843
5.400000 7985.042858 89.359067
5.404000 7778.484476 88.195717
5.408000 7860.427481 88.659052
5.412000 7849.753406 88.598834
5.416000 8036.374334 89.645827
5.420000 8068.287691 89.823648
5.424000 8074.563821 89.858577
5.428000 7949.668442 89.160913
5.432000 8029.843184 89.609392
5.436000 8130.014545 90.166593
5.440000 8099.394141 89.996634
5.444000 8212.756646 90.624261
5.448000 8018.258145 89.544727
5.452000 8075.546738 89.864046
5.456000 8151.944101 90.288117
5.460000 8069.153813 89.828469
5.464000 8207.792277 90.596867
5.468000 8243.423737 90.793302
5.472000 8193.483759 90.517864
5.476000 8218.751531 90.657330
5.480000 8308.410725 91.150484
5.484000 8172.573369 90.402286
5.488000 8155.485317 90.307726
5.492000 8389.398935 91.593662
5.496000 8245.694896 90.805809
5.500000 8336.021781 91.301817
5.504000 8271.248202 90.946403
5.508000 8325.135891 91.242183
5.512000 8338.077497 91.313074
5.516000 8425.889873 91.792646
5.520000 8270.260985 90.940975
5.524000 8271.705478 90.948917
5.528000 8334.419498 91.293042
5.532000 8383.738748 91.562759
5.536000 8346.788729 91.360761
5.540000 8347.182956 91.362919
5.544000 8244.358722 90.798451
5.548000 8378.042698 91.531649
5.552000 8251.947004 90.840228
5.556000 8139.583309 90.219639
5.560000 8186.099568 90.477067
5.564000 8385.876100 91.574429
5.568000 8416.163249 91.739649
5.572000 8406.411984 91.686487
5.576000 8519.968217 92.303674
5.580000 8427.260985 91.800114
5.584000 8444.922086 91.896257
5.588000 8450.469507 91.926435
5.592000 8306.779433 91.141535
5.596000 8368.014647 91.476853
5.600000 8328.263648 91.259321
5.604000 8420.531824 91.763456
5.608000 8436.985824 91.853066
5.612000 8405.842077 91.683380
5.616000 8341.510034 91.331868
5.620000 8306.720409 91.141211
5.624000 8342.762184 91.338722
5.628000 8363.799734 91.453812
5.632000 8344.384325 91.347602
5.636000 8246.039414 90.807706
5.640000 8226.794141 90.701677
5.644000 8242.716410 90.789407
5.648000 8206.940613 90.592166
5.652000 8248.357390 90.820468
5.656000 8325.353450 91.243375
5.660000 8275.033172 90.967209
5.664000 8200.912383 90.558889
5.668000 8234.367139 90.743414
5.672000 8151.317701 90.284648
5.676000 7978.002929 89.319667
5.680000 8071.270726 89.840251
5.684000 8056.103035 89.755797
5.688000 8108.673768 90.048175
5.692000 7879.334950 88.765618
5.696000 8007.496575 89.484616
5.700000 7964.894807 89.246259
5.704000 8079.726795 89.887301
5.708000 7920.215487 88.995593
5.712000 7886.229028 88.804443
5.716000 8022.085250 89.566094
5.720000 7977.717443 89.318069
5.724000 8060.147636 89.778325
5.728000 8051.403196 89.729612
5.732000 7954.996069 89.190785
5.736000 7856.099068 88.634638
5.740000 7912.796124 88.953899
5.744000 7790.336085 88.262881
5.748000 7805.632918 88.349493
5.752000 7833.403963 88.506519
5.756000 7910.777324 88.942551
5.760000 7772.264980 88.160450
5.764000 7748.675735 88.026563
5.768000 7899.769389 88.880647
5.772000 7750.702264 88.038073
5.776000 7675.385174 87.609276
5.780000 7730.700035 87.924400
5.784000 7740.549401 87.980392
5.788000 7680.314450 87.637403
5.792000 7698.101767 87.738827
5.796000 7701.003196 87.755360
5.800000 7680.265646 87.637125
5.804000 7578.306477 87.053469
5.808000 7592.544485 87.135208
5.812000 7725.093742 87.892512
5.816000 7583.182423 87.081470
5.820000 7722.601576 87.878334
5.824000 7686.792011 87.674352
5.828000 7537.975569 86.821516
5.832000 7573.143353 87.023809
5.836000 7574.792423 87.033283
5.840000 7595.802877 87.153903
5.844000 7749.315212 88.030195
5.848000 7513.460985 86.680223
5.852000 7670.672395 87.582375
5.856000 7537.390835 86.818148
5.860000 7499.356420 86.598825
5.864000 7545.208368 86.863159
5.868000 7646.143548 87.442230
5.872000 7693.493934 87.712564
5.876000 7518.971308 86.712002
5.880000 7485.721364 86.520063
5.884000 7400.842160 86.028147
5.888000 7495.017632 86.573770
5.892000 7491.550451 86.553743
5.896000 7424.430741 86.165136
5.900000 7513.760704 86.681951
5.904000 7522.622094 86.733051
5.908000 7468.829515 86.422390
5.912000 7475.977211 86.463733
5.916000 7409.061534 86.075906
5.920000 7429.043122 86.191897
5.924000 7363.370299 85.810083
5.928000 7434.785296 86.225201
5.932000 7586.356231 87.099691
5.936000 7520.624401 86.721534
5.940000 7563.060118 86.965856
5.944000 7611.181645 87.242086
5.948000 7525.712307 86.750863
5.952000 7453.128664 86.331504
5.956000 7487.519979 86.530457
5.960000 7507.118695 86.643630
5.964000 7388.231753 85.954824
5.968000 7541.238918 86.840307
5.972000 7393.143773 85.983392
5.976000 7429.734417 86.195907
5.980000 7431.910523 86.208529
5.984000 7538.395212 86.823932
5.988000 7554.310655 86.915537
5.992000 7619.864145 87.291833
5.996000 7603.514365 87.198133
6.000000 7587.041822 87.103627
6.004000 7570.101344 87.006329
6.008000 7573.176878 87.024002
6.012000 7616.571689 87.272972
6.016000 7689.972464 87.692488
6.020000 7595.475493 87.152025
6.024000 7644.854901 87.434861
6.028000 7479.610016 86.484739
6.032000 7561.910174 86.959244
6.036000 7659.325253 87.517571
6.040000 7504.510280 86.628577
6.044000 7490.050879 86.545080
6.048000 7609.392228 87.231830
6.052000 7613.996537 87.258218
6.056000 7539.804103 86.832045
6.060000 7456.421216 86.350572
6.064000 7484.812772 86.514812
6.068000 7568.599893 86.997701
6.072000 7589.028209 87.115029
6.076000 7480.217416 86.488250
6.080000 7439.236438 86.251008
6.084000 7462.442526 86.385430
6.088000 7601.114103 87.184368
6.092000 7405.210442 86.053532
6.096000 7559.807154 86.947152
6.100000 7600.844069 87.182820
6.104000 7552.459068 86.904885
6.108000 7633.958408 87.372527
6.112000 7559.837847 86.947328
6.116000 7438.346036 86.245846
6.120000 7393.662430 85.986408
6.124000 7444.145568 86.279462
6.128000 7558.708817 86.940835
6.132000 7529.181012 86.770853
6.136000 7625.817986 87.325930
6.140000 7627.693523 87.336668
6.144000 7646.633763 87.445033
6.148000 7587.102025 87.103972
6.152000 7631.425142 87.358028
6.156000 7496.772927 86.583907
6.160000 7583.696509 87.084422
6.164000 7544.615640 86.859747
6.168000 7565.488231 86.979815
6.172000 7518.000099 86.706402
6.176000 7576.857181 87.045144
6.180000 7459.912971 86.370788
6.184000 7623.174631 87.310793
6.188000 7602.673141 87.193309
6.192000 7602.948306 87.194887
6.196000 7736.296381 87.956219
6.200000 7589.279278 87.116470
6.204000 7720.381589 87.865702
6.208000 7767.431941 88.133035
6.212000 7606.980777 87.218007
6.216000 7656.523848 87.501565
6.220000 7689.311074 87.688717
6.224000 7565.604635 86.980484
6.228000 7624.220890 87.316785
6.232000 7605.075660 87.207085
6.236000 7525.485495 86.749556
6.240000 7625.514788 87.324194
6.244000 7592.149627 87.132942
6.248000 7521.684802 86.727647
6.252000 7567.616790 86.992050
6.256000 7732.764895 87.936141
6.260000 7704.505577 87.775313
6.264000 7605.239435 87.208024
6.268000 7622.275894 87.305646
6.272000 7714.923261 87.834636
6.276000 7605.553578 87.209825
6.280000 7707.631186 87.793116
6.284000 7688.115322 87.681898
6.288000 7566.382808 86.984957
6.292000 7672.613706 87.593457
6.296000 7588.424237 87.111562
6.300000 7665.828517 87.554717
6.304000 7805.406750 88.348213
6.308000 7606.687716 87.216327
6.312000 7681.441160 87.643831
6.316000 7693.209432 87.710942
6.320000 7737.742504 87.964439
6.324000 7679.469084 87.632580
6.328000 7795.900346 88.294396
6.332000 7878.551668 88.761206
6.336000 7676.751630 87.617074
6.340000 7693.331202 87.711637
6.344000 7622.273730 87.305634
6.348000 7700.038301 87.749862
6.352000 7753.485212 88.053877
6.356000 7767.411698 88.132921
6.360000 7783.558823 88.224480
6.364000 7805.945877 88.351264
6.368000 7727.151343 87.904217
6.372000 7855.180705 88.629457
6.376000 7773.967329 88.170105
6.380000 7806.956329 88.356982
6.384000 7890.214585 88.826880
6.388000 7789.329070 88.257176
6.392000 7787.423904 88.246382
6.396000 7854.795906 88.627286
6.400000 7895.719763 88.857863
6.404000 7867.945018 88.701438
6.408000 7934.426382 89.075397
6.412000 7897.132560 88.865812
6.416000 7821.069602 88.436811
6.420000 7834.087224 88.510379
6.424000 7819.637611 88.428715
6.428000 7929.013175 89.045006
6.432000 7795.767446 88.293643
6.436000 7980.281060 89.332419
6.440000 7867.316916 88.697897
6.444000 7933.497524 89.070183
6.448000 7822.396010 88.444310
6.452000 7927.144362 89.034512
6.456000 7853.290163 88.618791
6.460000 7968.934242 89.268887
6.464000 7953.152994 89.180452
6.468000 7967.814499 89.262615
6.472000 7984.622255 89.356714
6.476000 7971.247320 89.281842
6.480000 7928.911261 89.044434
6.484000 7967.026379 89.258201
6.488000 7951.485265 89.171101
6.492000 7917.113748 88.978164
6.496000 7978.994632 89.325218
6.500000 8070.638002 89.836730
6.504000 8074.937418 89.860656
6.508000 8077.887239 89.877067
6.512000 8013.905469 89.520419
6.516000 8040.494014 89.668802
6.520000 8004.792445 89.469506
6.524000 8066.199286 89.812022
6.528000 8075.101724 89.861570
6.532000 7986.339286 89.366321
6.536000 7947.165912 89.146878
6.540000 8018.980810 89.548762
6.544000 8067.468518 89.819088
6.548000 8294.139126 91.072164
6.552000 7983.371567 89.349715
6.556000 7960.507439 89.221676
6.560000 8051.102278 89.727935
6.564000 8199.287917 90.549919
6.568000 8140.077199 90.222376
6.572000 8252.499298 90.843268
6.576000 8210.743582 90.613153
6.580000 8231.741615 90.728946
6.584000 8189.367143 90.495122
6.588000 8175.312832 90.417437
6.592000 8188.485147 90.490249
6.596000 8109.094522 90.050511
6.600000 8115.338660 90.085174
6.604000 8277.227877 90.979272
6.608000 8346.609228 91.359779
6.612000 8451.241471 91.930634
6.616000 8262.032812 90.895725
6.620000 8307.361055 91.144726
6.624000 8509.163292 92.245126
6.628000 8508.915212 92.243781
6.632000 8622.806302 92.859067
6.636000 8871.230488 94.187210
6.640000 9245.781269 96.154986
6.644000 9575.356204 97.853749
6.648000 10044.761632 100.223558
6.652000 10499.958323 102.469304
6.656000 10854.923996 104.186967
6.660000 11147.613770 105.582261
6.664000 11294.817813 106.277080
6.668000 11166.199416 105.670239
6.672000 10515.502090 102.545122
6.676000 10077.567932 100.387090
6.680000 9729.158961 98.636499
6.684000 9419.825168 97.055784
6.688000 9041.993983 95.089400
6.692000 8963.971056 94.678250
6.696000 8675.955579 93.144810
6.700000 8622.094829 92.855236
6.704000 8606.870026 92.773218
6.708000 8533.801120 92.378575
6.712000 8617.341108 92.829635
6.716000 8500.661390 92.199031
6.720000 8565.996854 92.552671
6.724000 8542.454455 92.425399
6.728000 8531.916822 92.368376
6.732000 8665.030803 93.086147
6.736000 8594.290823 92.705398
6.740000 8678.753833 93.159830
6.744000 8701.003509 93.279170
6.748000 8621.400853 92.851499
6.752000 8679.505134 93.163862
6.756000 8587.836770 92.670582
6.760000 8766.565422 93.629939
6.764000 8743.207351 93.505119
6.768000 8749.213990 93.537233
6.772000 8835.183368 93.995656
6.776000 8803.125601 93.824973
6.780000 8590.194881 92.683304
6.784000 8648.478341 92.997195
6.788000 9030.143412 95.027067
6.792000 8818.998190 93.909521
6.796000 8922.962195 94.461432
6.800000 8906.359591 94.373511
6.804000 8947.026293 94.588722
6.808000 8806.740442 93.844235
6.812000 8926.709009 94.481263
6.816000 8952.655837 94.618475
6.820000 9021.071356 94.979321
6.824000 8910.142668 94.393552
6.828000 8965.852633 94.688186
6.832000 8921.749661 94.455014
6.836000 9025.272730 95.001435
6.840000 9056.761550 95.167019
6.844000 8982.193405 94.774434
6.848000 8980.126242 94.763528
6.852000 8937.014049 94.535782
6.856000 8931.538628 94.506818
6.860000 9063.405460 95.201919
6.864000 9025.198035 95.001042
6.868000 8990.918686 94.820455
6.872000 9075.091169 95.263273
6.876000 9225.332367 96.048594
6.880000 9212.996840 95.984357
6.884000 9248.879324 96.171094
6.888000 9290.547587 96.387487
6.892000 9153.231672 95.672523
6.896000 9276.462810 96.314396
6.900000 9230.709677 96.076582
6.904000 9103.547854 95.412514
6.908000 9166.585977 95.742289
6.912000 9344.086377 96.664815
6.916000 9275.078646 96.307210
6.920000 9330.458667 96.594299
6.924000 9389.673154 96.900326
6.928000 9096.616369 95.376183
6.932000 9241.723274 96.133882
6.936000 9390.464000 96.904407
6.940000 9512.510797 97.532101
6.944000 9319.786667 96.539042
6.948000 9557.051453 97.760173
6.952000 9256.535324 96.210890
6.956000 9356.403200 96.728503
6.960000 9506.797121 97.502806
6.964000 9498.472941 97.460109
6.968000 9356.281600 96.727874
6.972000 9371.849640 96.808314
6.976000 9468.677333 97.307129
6.980000 9526.963476 97.606165
6.984000 9560.230400 97.776431
6.988000 9484.956545 97.390742
6.992000 9415.723733 97.034652
6.996000 9130.723733 95.554821
7.000000 9383.639563 96.869188
7.004000 9390.559318 96.904898
7.008000 9447.408000 97.197778
7.012000 9462.720000 97.276513
7.016000 9317.844841 96.528984
7.020000 9539.840000 97.672105
7.024000 9439.744000 97.158345
7.028000 9638.442667 98.175571
7.032000 9699.108504 98.484052
7.036000 9467.377600 97.300450
7.040000 9535.120000 97.647939
7.044000 9594.107733 97.949516
7.048000 9707.667200 98.527495
7.052000 9590.928000 97.933283
7.056000 9811.541989 99.053228
7.060000 9601.901867 97.989295
7.064000 9498.654933 97.461043
7.068000 9841.644800 99.205064
7.072000 9519.298133 97.566891
7.076000 9706.997333 98.524095
7.080000 9716.710400 98.573376
7.084000 9773.834667 98.862706
7.088000 9752.091733 98.752680
7.092000 9627.077067 98.117669
7.096000 9627.252459 98.118563
7.100000 9669.856511 98.335429
7.104000 9618.684800 98.074894
7.108000 9621.288533 98.088167
7.112000 9854.369703 99.269178
7.116000 9819.416533 99.092969
7.120000 9609.414761 98.027622
7.124000 9878.742912 99.391865
7.128000 10001.729549 100.008647
7.132000 9667.729903 98.324615
7.136000 9633.875200 98.152306
7.140000 9814.829112 99.069819
7.144000 9891.024000 99.453627
7.148000 9821.971741 99.105861
7.152000 9872.327467 99.359587
7.156000 10000.856838 100.004284
7.160000 10003.827779 100.019137
7.164000 9725.595733 98.618435
7.168000 9811.542522 99.053231
7.172000 9811.708878 99.054070
7.176000 9960.869102 99.804154
7.180000 9725.696000 98.618943
7.184000 10096.889363 100.483279
7.188000 9848.300720 99.238605
7.192000 10114.918400 100.572951
7.196000 9665.823514 98.314920
7.200000 9784.346574 98.915856
7.204000 9862.111437 99.308164
7.208000 10037.990403 100.189772
7.212000 9817.570248 99.083653
7.216000 9879.205545 99.394193
7.220000 10021.268995 100.106288
7.224000 9977.143695 99.885653
7.228000 9970.276193 99.851270
7.232000 9850.620634 99.250293
7.236000 9914.202613 99.570089
7.240000 10235.183684 101.169085
7.244000 10021.671021 100.108296
7.248000 9820.429752 99.098081
7.252000 10228.966676 101.138354
7.256000 10215.972281 101.074093
7.260000 10040.523061 100.202410
7.264000 9959.714743 99.798370
7.268000 10023.723274 100.118546
7.272000 9974.291122 99.871373
7.276000 10012.149254 100.060728
7.280000 9909.462543 99.546283
7.284000 9881.784591 99.407166
7.288000 9891.132196 99.454171
7.292000 10160.745401 100.800523
7.296000 10112.394561 100.560403
7.300000 9980.825160 99.904080
7.304000 9930.470682 99.651747
7.308000 10049.254066 100.245968
7.312000 10328.006398 101.626800
7.316000 10229.606077 101.141515
7.320000 10297.679019 101.477480
7.324000 10154.359275 100.768841
7.328000 10053.645428 100.267868
7.332000 10240.660448 101.196148
7.336000 10226.603039 101.126668
7.340000 9949.898044 99.749176
7.344000 9904.887460 99.523301
7.348000 10095.510928 100.476420
7.352000 10125.930673 100.627683
7.356000 10021.413335 100.107009
7.360000 10221.437483 101.101125
7.364000 10183.292444 100.912301
7.368000 10079.709170 100.397755
7.372000 10102.748667 100.512430
7.376000 10101.057853 100.504019
7.380000 9996.465623 99.982327
7.384000 10108.350767 100.540294
7.388000 10286.506185 101.422415
7.392000 10221.485350 101.101362
7.396000 10203.060214 101.010199
7.400000 10175.596238 100.874160
7.404000 10158.354304 100.788662
7.408000 10103.844421 100.517881
7.412000 10161.378624 100.803664
7.416000 10092.517462 100.461522
7.420000 10124.305949 100.619610
7.424000 10157.112377 100.782500
7.428000 10005.327835 100.026636
7.432000 10080.208347 100.400241
7.436000 10081.719427 100.407766
7.440000 10103.697781 100.517152
7.444000 9893.024153 99.463683
7.448000 9955.511128 99.777308
7.452000 10060.449792 100.301794
7.456000 10076.606587 100.382302
7.460000 9974.819951 99.874020
7.464000 10122.721678 100.611737
7.468000 10122.760537 100.611930
7.472000 10192.944157 100.960112
7.476000 10149.301677 100.743743
7.480000 10098.542950 100.491507
7.484000 10137.130879 100.683320
7.488000 10069.702351 100.347907
7.492000 10332.896411 101.650855
7.496000 10124.422052 100.620187
7.500000 10163.316620 100.813276
7.504000 10294.065553 101.459675
7.508000 10361.985703 101.793839
7.512000 10237.697228 101.181506
7.516000 10209.551186 101.042324
7.520000 10386.612173 101.914730
7.524000 10480.948028 102.376501
7.528000 10522.550758 102.579485
7.532000 10704.902663 103.464500
7.536000 10645.699128 103.177997
7.540000 10646.516791 103.181960
7.544000 10711.521635 103.496481
7.548000 10721.537464 103.544857
7.552000 10717.530148 103.525505
7.556000 10763.171663 103.745707
7.560000 10502.906326 102.483688
7.564000 10616.295705 103.035410
7.568000 10530.166360 102.616599
7.572000 10448.549553 102.218147
7.576000 10382.179904 101.892983
7.580000 10265.488691 101.318748
7.584000 10164.400258 100.818650
7.588000 10120.508971 100.600740
7.592000 10017.486816 100.087396
7.596000 10115.530005 100.575991
7.600000 9915.920612 99.578716
7.604000 10075.728929 100.377930
7.608000 10102.120288 100.509304
7.612000 9935.359892 99.676275
7.616000 9998.499343 99.992496
7.620000 9968.737198 99.843564
7.624000 9811.545589 99.053246
7.628000 9988.174881 99.940857
7.632000 9956.128446 99.780401
7.636000 9849.412078 99.244204
7.640000 9731.241738 98.647056
7.644000 9652.930292 98.249327
7.648000 9900.698456 99.502254
7.652000 9846.781354 99.230950
7.656000 9673.354912 98.353215
7.660000 9836.393733 99.178595
7.664000 9954.420744 99.771843
7.668000 9613.260363 98.047235
7.672000 9696.415630 98.470379
7.676000 9682.117263 98.397750
7.680000 9786.301724 98.925738
7.684000 9744.623916 98.714862
7.688000 9773.042035 98.858697
7.692000 9707.188193 98.525064
7.696000 9670.269364 98.337528
7.700000 9608.581140 98.023370
7.704000 9579.300761 97.873902
7.708000 9661.028899 98.290533
7.712000 9606.250561 98.011482
7.716000 9684.634017 98.410538
7.720000 9748.767653 98.735848
7.724000 9629.041030 98.127677
7.728000 9552.078076 97.734733
7.732000 9702.422661 98.500876
7.736000 9694.640214 98.461364
7.740000 9654.708804 98.258378
7.744000 9759.433056 98.789843
7.748000 9746.079627 98.722235
7.752000 9899.660805 99.497039
7.756000 10039.804750 100.198826
7.760000 10166.889211 100.830993
7.764000 10436.383051 102.158617
7.768000 10682.693046 103.357114
7.772000 10932.137838 104.556864
7.776000 11319.216893 106.391808
7.780000 11311.301754 106.354604
7.784000 11415.219291 106.842030
7.788000 11266.986125 106.146060
7.792000 10935.042508 104.570754
7.796000 10682.428876 103.355836
7.800000 10530.784972 102.619613
7.804000 10283.540668 101.407794
7.808000 10022.329337 100.111584
7.812000 9947.056947 99.734933
7.816000 9833.179394 99.162389
7.820000 9612.329869 98.042490
7.824000 9774.399965 98.865565
7.828000 9613.925824 98.050629
7.832000 9604.868771 98.004432
7.836000 9613.754797 98.049757
7.840000 9674.855094 98.360841
7.844000 9611.840138 98.039993
7.848000 9551.202770 97.730255
7.852000 9597.428302 97.966465
7.856000 9613.610791 98.049022
7.860000 9691.734119 98.446605
7.864000 9637.074283 98.168601
7.868000 9714.919436 98.564291
7.872000 9724.755662 98.614176
7.876000 9711.546661 98.547180
7.880000 9666.235448 98.317015
7.884000 9691.461777 98.445222
7.888000 9593.648339 97.947171
7.892000 9668.224359 98.327129
7.896000 9507.357985 97.505682
7.900000 9474.400395 97.336532
7.904000 9683.314310 98.403833
7.908000 9720.344651 98.591808
7.912000 9543.788343 97.692315
7.916000 9636.590934 98.166139
7.920000 9670.701560 98.339725
7.924000 9638.849227 98.177641
7.928000 9824.950604 99.120889
7.932000 9758.359760 98.784411
7.936000 9847.951810 99.236847
7.940000 9721.979211 98.600097
7.944000 9635.263092 98.159376
7.948000 9697.270112 98.474718
7.952000 9816.540438 99.078456
7.956000 9821.772918 99.104858
7.960000 9619.863993 98.080905
7.964000 9709.433549 98.536458
7.968000 9669.485726 98.333543
7.972000 9736.549814 98.673957
7.976000 9768.158975 98.833997
7.980000 9864.060479 99.317977
7.984000 9784.214108 98.915186
7.988000 9753.262387 98.758607
7.992000 9687.968819 98.427480
7.996000 9736.289649 98.672639
8.000000 9739.659297 98.689712
8.004000 9810.493828 99.047937
8.008000 9876.337472 99.379764
8.012000 9818.081247 99.086231
8.016000 9815.351976 99.072458
8.020000 9861.755432 99.306372
8.024000 9762.489486 98.805311
8.028000 9738.130666 98.681967
8.032000 9824.725626 99.119754
8.036000 9815.920085 99.075325
8.040000 9842.334791 99.208542
8.044000 9814.254129 99.066917
8.048000 9850.045681 99.247396
8.052000 9862.080448 99.308008
8.056000 10059.774475 100.298427
8.060000 9920.922926 99.603830
8.064000 10022.242601 100.111151
8.068000 10058.841944 100.293778
8.072000 10027.417421 100.136993
8.076000 9950.920488 99.754301
8.080000 10131.333887 100.654527
8.084000 10132.533956 100.660489
8.088000 10004.120825 100.020602
8.092000 10019.175546 100.095832
8.096000 10380.245678 101.883491
8.100000 10390.959630 101.936057
8.104000 10729.085356 103.581298
8.108000 11196.868940 105.815259
8.112000 12073.581139 109.879849
8.116000 13562.997931 116.460285
8.120000 16142.273005 127.052245
8.124000 19716.808471 140.416553
8.128000 24819.486147 157.542014
8.132000 31581.886150 177.712932
8.136000 39408.615443 198.516033
8.140000 46429.343101 215.474692
8.144000 51034.127760 225.907343
8.148000 51191.325286 226.255001
8.152000 48581.071772 220.411143
8.156000 42808.757092 206.902772
8.160000 36562.924880 191.214343
8.164000 30067.651072 173.400263
8.168000 24513.173992 156.566836
8.172000 20224.850367 142.214100
8.176000 16781.512649 129.543478
8.180000 14320.190780 119.667000
8.184000 12728.496845 112.820640
8.188000 11688.378865 108.112806
8.192000 11184.210386 105.755427
8.196000 10686.452584 103.375300
8.200000 10389.078523 101.926829
8.204000 10357.764287 101.773102
8.208000 10134.986764 100.672671
8.212000 10208.374367 101.036500
8.216000 10233.495872 101.160743
8.220000 10181.246950 100.902165
8.224000 9893.244521 99.464790
8.228000 9964.861170 99.824151
8.232000 10085.138748 100.424792
8.236000 10224.967263 101.118580
8.240000 10049.035040 100.244875
8.244000 10152.664447 100.760431
8.248000 10036.291804 100.181295
8.252000 10020.478828 100.102342
8.256000 10078.956613 100.394007
8.260000 9984.115344 99.920545
8.264000 9958.975766 99.794668
8.268000 10034.398967 100.171847
8.272000 10066.284180 100.330874
8.276000 10161.784820 100.805679
8.280000 10024.853345 100.124190
8.284000 10068.705726 100.342941
8.288000 10040.837183 100.203978
8.292000 9806.752597 99.029049
8.296000 9988.279940 99.941383
8.300000 10165.319041 100.823207
8.304000 9863.860160 99.316968
8.308000 9942.136566 99.710263
8.312000 9982.204534 99.910983
8.316000 9985.528061 99.927614
8.320000 9915.343009 99.575815
8.324000 10015.423717 100.077089
8.328000 10103.059332 100.513976
8.332000 10050.079361 100.250084
8.336000 10024.835663 100.124101
8.340000 10137.356858 100.684442
8.344000 10140.895174 100.702012
8.348000 10125.622969 100.626154
8.352000 10070.082823 100.349802
8.356000 10196.347680 100.976966
8.360000 10094.980497 100.473780
8.364000 10310.769095 101.541957
8.368000 10218.167806 101.084953
8.372000 10243.522900 101.210290
8.376000 10354.217577 101.755676
8.380000 10154.807919 100.771067
8.384000 10347.048534 101.720443
8.388000 10472.791478 102.336658
8.392000 10568.108253 102.801305
8.396000 10582.974700 102.873586
8.400000 10790.962746 103.879559
8.404000 10778.990413 103.821917
8.408000 11021.377906 104.982751
8.412000 11030.139547 105.024471
8.416000 11003.301818 104.896624
8.420000 10984.777896 104.808291
8.424000 10991.542746 104.840559
8.428000 10837.665513 104.104109
8.432000 10781.001613 103.831602
8.436000 10778.934322 103.821647
8.440000 10782.486066 103.838750
8.444000 10655.228556 103.224167
8.448000 10485.255736 102.397538
8.452000 10453.851664 102.244079
8.456000 10405.932256 102.009471
8.460000 10542.373901 102.676063
8.464000 10272.845536 101.355047
8.468000 10305.868176 101.517822
8.472000 10237.596534 101.181009
8.476000 10161.360022 100.803571
8.480000 10240.069755 101.193230
8.484000 10214.902264 101.068800
8.488000 10175.984171 100.876083
8.492000 10268.455908 101.333390
8.496000 10205.096887 101.020280
8.500000 10368.572570 101.826188
8.504000 10306.418974 101.520535
8.508000 10599.371348 102.953248
8.512000 10786.233227 103.856792
8.516000 11238.203995 106.010396
8.520000 11820.887967 108.723907
8.524000 12742.945135 112.884654
8.528000 13885.794142 117.838000
8.532000 14832.698269 121.789566
8.536000 16189.154952 127.236610
8.540000 17698.964394 133.037455
8.544000 19252.881852 138.754754
8.548000 20960.776558 144.778370
8.552000 22726.867616 150.754329
8.556000 24391.334344 156.177253
8.560000 26002.949667 161.254301
8.564000 26987.168530 164.277718
8.568000 27228.527063 165.010688
8.572000 26617.794066 163.149606
8.576000 25454.207934 159.543749
8.580000 23733.889704 154.058073
8.584000 21326.733796 146.036755
8.588000 18856.559638 137.319189
8.592000 16698.543828 129.222846
8.596000 15066.935570 122.747446
8.600000 13390.726594 115.718307
8.604000 12119.553838 110.088845
8.608000 11565.560170 107.543294
8.612000 10727.464705 103.573475
8.616000 10531.478716 102.622993
8.620000 10358.471616 101.776577
8.624000 10181.478701 100.903314
8.628000 9972.017968 99.859992
8.632000 10040.179180 100.200695
8.636000 9905.524986 99.526504
8.640000 9761.226038 98.798917
8.644000 9889.345524 99.445189
8.648000 9753.995208 98.762317
8.652000 9754.841638 98.766602
8.656000 9787.466720 98.931626
8.660000 9823.520474 99.113675
8.664000 9675.303514 98.363121
8.668000 9670.177475 98.337061
8.672000 9780.036119 98.894065
8.676000 9737.887084 98.680733
8.680000 9745.343450 98.718506
8.684000 9816.997195 99.080761
8.688000 9795.516507 98.972302
8.692000 9760.388179 98.794677
8.696000 9537.660711 97.660948
8.700000 9619.333067 98.078199
8.704000 9797.254526 98.981082
8.708000 9792.932899 98.959249
8.712000 9659.779553 98.284178
8.716000 9822.913793 99.110614
8.720000 9688.304511 98.429185
8.724000 9964.597444 99.822830
8.728000 10008.031150 100.040148
8.732000 9998.088925 99.990444
8.736000 9760.634621 98.795924
8.740000 9810.339191 99.047156
8.744000 9825.524491 99.123784
8.748000 9683.848243 98.406546
8.752000 9845.379996 99.223888
8.756000 9929.118743 99.644963
8.760000 9944.019868 99.719707
8.764000 9859.732694 99.296187
8.768000 9933.001668 99.664445
8.772000 9836.864217 99.180967
8.776000 9831.672989 99.154793
8.780000 9939.460363 99.696842
8.784000 9983.693291 99.918433
8.788000 9979.892597 99.899412
8.792000 10039.248403 100.196050
8.796000 9956.492013 99.782223
8.800000 10153.378783 100.763976
8.804000 10179.767764 100.894835
8.808000 10137.638978 100.685843
8.812000 10174.562466 100.869036
8.816000 10166.518104 100.829153
8.820000 10146.503195 100.729853
8.824000 10135.867904 100.677048
8.828000 10283.796592 101.409056
8.832000 10369.655032 101.831503
8.836000 10556.525825 102.744955
8.840000 10577.682989 102.847863
8.844000 10611.523962 103.012252
8.848000 10487.271565 102.407380
8.852000 10557.292379 102.748686
8.856000 10687.741480 103.381534
8.860000 10757.378115 103.717781
8.864000 10651.362087 103.205436
8.868000 10528.938335 102.610615
8.872000 10546.373003 102.695535
8.876000 10539.836794 102.663707
8.880000 10539.677090 102.662929
8.884000 10340.389244 101.687704
8.888000 10247.143449 101.228175
8.892000 10474.759318 102.346272
8.896000 10373.741214 101.851565
8.900000 10273.996828 101.360726
8.904000 10271.901757 101.350391
8.908000 10045.486586 100.227175
8.912000 10194.161342 100.966140
8.916000 10002.626901 100.013134
8.920000 10163.158147 100.812490
8.924000 9910.425339 99.551119
8.928000 10075.863152 100.378599
8.932000 10062.731431 100.313167
8.936000 10065.398030 100.326457
8.940000 9976.827546 99.884071
8.944000 9975.492812 99.877389
8.948000 10051.952123 100.259424
8.952000 10197.537264 100.982856
8.956000 10076.792684 100.383229
8.960000 10039.284079 100.196228
8.964000 10017.045569 100.085192
8.968000 9867.937167 99.337491
8.972000 9925.086239 99.624727
8.976000 10002.828009 100.014139
8.980000 9949.660501 99.747985
8.984000 10084.353244 100.420881
8.988000 9811.750813 99.054282
8.992000 9948.984423 99.744596
8.996000 9916.686901 99.582563
9.000000 10043.508355 100.217306
9.004000 10092.581315 100.461840
9.008000 9938.177316 99.690407
9.012000 9824.785129 99.120054
9.016000 10042.848283 100.214012
9.020000 10046.207879 100.230773
9.024000 10030.804579 100.153904
9.028000 9984.949520 99.924719
9.032000 10138.662497 100.690926
9.036000 10167.878328 100.835898
9.040000 10354.130051 101.755246
9.044000 10265.942414 101.320987
9.048000 10466.698083 102.306882
9.052000 10599.179931 102.952319
9.056000 10936.280435 104.576673
9.060000 11296.788339 106.286351
9.064000 11478.092893 107.135862
9.068000 11917.101692 109.165478
9.072000 12484.972843 111.736175
9.076000 12608.542188 112.287765
9.080000 12306.435570 110.934375
9.084000 12284.875433 110.837157
9.088000 11839.385449 108.808940
9.092000 11529.609957 107.376021
9.096000 11385.323929 106.702033
9.100000 11314.868438 106.371370
9.104000 11388.879057 106.718691
9.108000 11678.381645 108.066561
9.112000 12085.634283 109.934682
9.116000 12842.921018 113.326612
9.120000 14510.545103 120.459724
9.124000 17577.850643 132.581487
9.128000 22328.116050 149.425955
9.132000 29998.725360 173.201401
9.136000 40872.464486 202.169396
9.140000 55420.291530 235.415147
9.144000 73666.925206 271.416516
9.148000 92531.656816 304.190166
9.152000 109158.170241 330.390935
9.156000 115572.061219 339.958911
9.160000 112135.021445 334.865677
9.164000 99485.442713 315.413130
9.168000 82891.931861 287.909590
9.172000 65923.996871 256.756688
9.176000 51477.637477 226.886838
9.180000 39389.006525 198.466638
9.184000 29698.470301 172.332441
9.188000 22452.845622 149.842736
9.192000 17890.513657 133.755425
9.196000 14972.794169 122.363369
9.200000 13053.936684 114.253826
9.204000 12262.170881 110.734687
9.208000 11331.366226 106.448890
9.212000 10995.828604 104.860997
9.216000 10723.271508 103.553230
9.220000 10691.419217 103.399319
9.224000 10424.594623 102.100904
9.228000 10361.975421 101.793789
9.232000 10318.722311 101.581112
9.236000 10393.637477 101.949191
9.240000 10242.227309 101.203890
9.244000 10259.482846 101.289105
9.248000 10242.691509 101.206183
9.252000 10149.322151 100.743844
9.256000 10130.606335 100.650913
9.260000 10100.057227 100.499041
9.264000 10189.858053 100.944827
9.268000 10171.987756 100.856273
9.272000 10138.328541 100.689267
9.276000 10077.977642 100.389131
9.280000 9993.644131 99.968216
9.284000 10066.413226 100.331517
9.288000 10200.505989 100.997554
9.292000 9990.918879 99.954584
9.296000 10060.679550 100.302939
9.300000 10130.153580 100.648664
9.304000 10068.107390 100.339959
9.308000 10014.806495 100.074005
9.312000 10029.010381 100.144947
9.316000 10037.299277 100.186323
9.320000 10019.168485 100.095797
9.324000 9972.264923 99.861228
9.328000 10084.177372 100.420005
9.332000 10113.509449 100.565946
9.336000 10128.248869 100.639201
9.340000 9924.766246 99.623121
9.344000 10120.773489 100.602055
9.348000 10126.795087 100.631978
9.352000 10068.715731 100.342990
9.356000 9960.144264 99.800522
9.360000 9992.338036 99.961683
9.364000 10028.717517 100.143485
9.368000 10099.587703 100.496705
9.372000 10272.493479 101.353310
9.376000 10123.774588 100.616970
9.380000 10016.201721 100.080976
9.384000 10002.222784 100.011113
9.388000 10005.955816 100.029775
9.392000 9972.500665 99.862409
9.396000 9886.957484 99.433181
9.400000 9993.025818 99.965123
9.404000 10044.584415 100.222674
9.408000 9829.382220 99.143241
9.412000 10048.714942 100.243279
9.416000 10191.834176 100.954614
9.420000 10126.950492 100.632751
9.424000 10005.676543 100.028379
9.428000 9970.663561 99.853210
9.432000 10064.919084 100.324070
9.436000 10117.554435 100.586055
9.440000 10160.936972 100.801473
9.444000 10135.400852 100.674728
9.448000 10149.500665 100.744730
9.452000 10184.892467 100.920228
9.456000 10218.810487 101.088132
9.460000 10107.487499 100.536001
9.464000 10143.525461 100.715071
9.468000 10200.856002 100.999287
9.472000 10172.380090 100.858218
9.476000 10254.854942 101.266258
9.480000 10151.574394 100.755022
9.484000 10312.023157 101.548132
9.488000 10396.869044 101.965038
9.492000 10363.942241 101.803449
9.496000 10669.087095 103.291273
9.500000 10965.876178 104.718080
9.504000 11428.292521 106.903192
9.508000 12219.452755 110.541634
9.512000 13090.929465 114.415600
9.516000 14283.062550 119.511767
9.520000 15366.941465 123.963468
9.524000 16381.380090 127.989766
9.528000 16769.759116 129.498105
9.532000 16819.719624 129.690862
9.536000 16268.040458 127.546229
9.540000 15115.210205 122.943931
9.544000 13977.969390 118.228463
9.548000 13018.202555 114.097338
9.552000 12454.963269 111.601807
9.556000 11881.930796 109.004270
9.560000 11212.177535 105.887570
9.564000 10935.540202 104.573133
9.568000 11077.333245 105.248911
9.572000 11197.235028 105.816988
9.576000 11215.122704 105.901476
9.580000 11504.652648 107.259744
9.584000 11974.554166 109.428306
9.588000 12581.247272 112.166159
9.592000 13622.522897 116.715564
9.596000 14878.097418 121.975807
9.600000 16645.494277 129.017419
9.604000 19197.697099 138.555754
9.608000 22203.120841 149.007117
9.612000 26326.715731 162.255095
9.616000 30969.295153 175.980951
9.620000 36212.443705 190.295674
9.624000 41889.316758 204.668798
9.628000 46763.752462 216.249283
9.632000 50955.001065 225.732145
9.636000 53790.042055 231.926803
9.640000 55410.345488 235.394022
9.644000 55126.267767 234.789837
9.648000 53176.995208 230.601377
9.652000 49664.537397 222.855418
9.656000 44174.561352 210.177452
9.660000 38180.755656 195.398965
9.664000 32249.543253 179.581578
9.668000 26452.062550 162.640901
9.672000 22146.049241 148.815487
9.676000 18987.165602 137.793924
9.680000 16212.183657 127.327074
9.684000 14197.386212 119.152785
9.688000 12921.447964 113.672547
9.692000 12165.762577 110.298516
9.696000 11438.955453 106.953053
9.700000 11241.657706 106.026684
9.704000 10882.035933 104.316997
9.708000 10729.750333 103.584508
9.712000 10734.731722 103.608550
9.716000 10508.801171 102.512444
9.720000 10616.087631 103.034400
9.724000 10519.416023 102.564204
9.728000 10281.394197 101.397210
9.732000 10361.189779 101.789930
9.736000 10331.050306 101.641774
9.740000 10335.914271 101.665699
9.744000 10316.679265 101.571055
9.748000 10221.093426 101.099423
9.752000 10250.073729 101.242648
9.756000 10276.081714 101.371010
9.760000 10302.656840 101.502004
9.764000 10112.398989 100.560425
9.768000 10218.614320 101.087162
9.772000 10155.067341 100.772354
9.776000 10334.924137 101.660829
9.780000 10279.537579 101.388054
9.784000 10224.954219 101.118516
9.788000 10271.165824 101.346760
9.792000 10425.453820 102.105112
9.796000 10341.807738 101.694679
9.800000 10291.430929 101.446690
9.804000 10382.311391 101.893628
9.808000 10333.072931 101.651724
9.812000 10238.836572 101.187136
9.816000 10270.053085 101.341270
9.820000 10190.960075 100.950285
9.824000 10234.323130 101.164831
9.828000 10242.503507 101.205254
9.832000 10199.035933 100.990276
9.836000 10179.304960 100.892542
9.840000 10363.848283 101.802988
9.844000 10363.742271 101.802467
9.848000 10325.402449 101.613987
9.852000 10395.147192 101.956595
9.856000 10338.799308 101.679886
9.860000 10262.292710 101.302975
9.864000 10291.038608 101.444756
9.868000 10227.032207 101.128790
9.872000 10409.220787 102.025589
9.876000 10292.910301 101.453981
9.880000 10374.943572 101.857467
9.884000 10266.507671 101.323776
9.888000 10321.103008 101.592830
9.892000 10325.422411 101.614086
9.896000 10269.769702 101.339872
9.900000 10295.640937 101.467438
9.904000 10341.977908 101.695516
9.908000 10389.535889 101.929073
9.912000 10288.564014 101.432559
9.916000 10312.802223 101.551968
9.920000 10254.788927 101.265932
9.924000 10307.637785 101.526537
9.928000 10437.799574 102.165550
9.932000 10430.899920 102.131777
9.936000 10295.313805 101.465826
9.940000 10249.941709 101.241996
9.944000 10315.633754 101.565908
9.948000 10320.746074 101.591073
9.952000 10423.274639 102.094440
9.956000 10431.826723 102.136314
9.960000 10213.004791 101.059412
9.964000 10190.395097 100.947487
9.968000 10335.439740 101.663365
9.972000 10389.012510 101.926505
9.976000 10269.097019 101.336553
9.980000 10277.693106 101.378958
9.984000 10304.243610 101.509820
9.988000 10275.498270 101.368132
9.992000 10317.463402 101.574915
9.996000 10380.642303 101.885437
10.000000 10325.350013 101.613729
10.004000 10351.341742 101.741544
10.008000 10312.062929 101.548328
10.012000 10344.377494 101.707313
10.016000 10454.385148 102.246688
10.020000 10466.470960 102.305772
10.024000 10548.025552 102.703581
10.028000 10482.542332 102.384288
10.032000 10530.557626 102.618505
10.036000 10522.482255 102.579151
10.040000 10549.812999 102.712283
10.044000 10331.733830 101.645137
10.048000 10375.484133 101.860120
10.052000 10284.347085 101.411770
10.056000 10216.999143 101.079173
10.060000 10472.684360 102.336134
10.064000 10543.530173 102.681693
10.068000 10664.450935 103.268828
10.072000 10569.749800 102.809288
10.076000 10644.973376 103.174480
10.080000 10613.083577 103.019821
10.084000 10381.413614 101.889222
10.088000 10485.073197 102.396646
10.092000 10337.474441 101.673371
10.096000 10648.375299 103.190965
10.100000 10640.392142 103.152276
10.104000 10587.412141 102.895151
10.108000 10701.710673 103.449073
10.112000 10916.870764 104.483830
10.116000 11004.150652 104.900670
10.120000 11217.639510 105.913359
10.124000 11750.012510 108.397475
10.128000 12395.655576 111.335779
10.132000 13205.528222 114.915309
10.136000 14631.966778 120.962667
10.140000 16152.575193 127.092782
10.144000 17746.680777 133.216669
10.148000 19269.516369 138.814684
10.152000 20785.654440 144.172308
10.156000 21097.668264 145.250364
10.160000 20959.578919 144.774234
10.164000 20307.292198 142.503657
10.168000 18924.500000 137.566348
10.172000 17440.208677 132.061382
10.176000 16030.796954 126.612784
10.180000 14470.099837 120.291728
10.184000 13126.841968 114.572431
10.188000 12430.783301 111.493423
10.192000 11851.488019 108.864540
10.196000 11556.212382 107.499825
10.200000 11291.057659 106.259389
10.204000 11045.093741 105.095641
10.208000 10907.517781 104.439063
10.212000 10810.655485 103.974302
10.216000 10736.770295 103.618388
10.220000 10519.707934 102.565627
10.224000 10579.238148 102.855424
10.228000 10737.492958 103.621875
10.232000 10776.561185 103.810217
10.236000 10764.760733 103.753365
10.240000 10884.010650 104.326462
10.244000 11200.296397 105.831453
10.248000 11277.082513 106.193609
10.252000 11470.641640 107.101081
10.256000 11838.446831 108.804627
10.260000 12026.893411 109.667194
10.264000 12067.079954 109.850262
10.268000 11800.683464 108.630951
10.272000 11564.061768 107.536328
10.276000 11298.792264 106.295777
10.280000 11138.113122 105.537259
10.284000 10986.924388 104.818531
10.288000 11016.924139 104.961536
10.292000 10839.169329 104.111331
10.296000 10715.710357 103.516715
10.300000 10687.325612 103.379522
10.304000 10753.022673 103.696782
10.308000 10710.199688 103.490095
10.312000 10853.611213 104.180666
10.316000 10941.777955 104.602954
10.320000 10879.647770 104.305550
10.324000 11026.850373 105.008811
10.328000 11104.042313 105.375720
10.332000 11215.088924 105.901317
10.336000 11224.941871 105.947826
10.340000 11498.900958 107.232929
10.344000 11421.606763 106.871918
10.348000 11782.624173 108.547797
10.352000 12172.985779 110.331255
10.356000 12803.903141 113.154333
10.360000 13649.632854 116.831643
10.364000 15233.214099 123.422908
10.368000 17083.722843 130.704716
10.372000 19943.220715 141.220468
10.376000 23921.468051 154.665665
10.380000 29261.092386 171.058740
10.384000 36270.185689 190.447330
10.388000 44139.777689 210.094687
10.392000 52902.587317 230.005625
10.396000 62175.217252 249.349588
10.400000 69980.948349 264.539124
10.404000 75095.830671 274.036185
10.408000 77316.638861 278.058697
10.412000 74677.680511 273.272173
10.416000 68144.538072 261.045088
10.420000 58827.473734 242.543756
10.424000 49362.027689 222.175669
10.428000 40632.347178 201.574669
10.432000 33326.928908 182.556646
10.436000 26821.207135 163.771814
10.440000 22109.419329 148.692365
10.444000 18835.168274 137.241278
10.448000 16486.622737 128.400244
10.452000 14694.421193 121.220548
10.456000 13701.482603 117.053332
10.460000 12910.446700 113.624147
10.464000 12268.790735 110.764573
10.468000 12059.678952 109.816570
10.472000 11587.911608 107.647163
10.476000 11484.822151 107.167262
10.480000 11546.326109 107.453832
10.484000 11338.107827 106.480551
10.488000 11049.908413 105.118545
10.492000 10954.477636 104.663640
10.496000 10881.889425 104.316295
10.500000 11013.510776 104.945275
10.504000 11046.391496 105.101815
10.508000 10906.714856 104.435218
10.512000 10995.932907 104.861494
10.516000 10855.430130 104.189395
10.520000 10881.913039 104.316408
10.524000 10839.753994 104.114139
10.528000 10724.707934 103.560166
10.532000 10992.486625 104.845060
10.536000 10988.486989 104.825984
10.540000 11012.058241 104.938354
10.544000 10937.933440 104.584576
10.548000 10860.816294 104.215240
10.552000 10821.196822 104.024982
10.556000 10764.460863 103.751920
10.560000 10942.938924 104.608503
10.564000 10920.435379 104.500887
10.568000 10968.651975 104.731332
10.572000 11213.894569 105.895678
10.576000 11478.910564 107.139678
10.580000 12044.962460 109.749544
10.584000 12534.463946 111.957420
10.588000 13314.757987 115.389592
10.592000 13917.036473 117.970490
10.596000 14155.780351 118.978067
10.600000 13756.880553 117.289729
10.604000 13198.607827 114.885194
10.608000 12755.951071 112.942247
10.612000 12255.577210 110.704911
10.616000 11779.486202 108.533341
10.620000 11401.297125 106.776857
10.624000 11317.528899 106.383875
10.628000 11061.730298 105.174761
10.632000 11234.692697 105.993833
10.636000 10946.675985 104.626364
10.640000 10877.286598 104.294231
10.644000 11094.652933 105.331158
10.648000 11070.173056 105.214890
10.652000 11189.087766 105.778484
10.656000 11095.942310 105.337279
10.660000 11128.182907 105.490203
10.664000 11364.643822 106.605083
10.668000 11559.573514 107.515457
10.672000 11589.210596 107.653196
10.676000 11661.288629 107.987447
10.680000 11958.135020 109.353258
10.684000 12113.075891 110.059420
10.688000 12115.926505 110.072369
10.692000 12178.952668 110.358292
10.696000 12106.098023 110.027715
10.700000 12080.601704 109.911791
10.704000 11823.487925 108.735863
10.708000 11603.498535 107.719536
10.712000 11470.903421 107.102304
10.716000 11432.943737 106.924944
10.720000 11340.044995 106.489647
10.724000 10942.224234 104.605087
10.728000 11003.136320 104.895836
10.732000 10867.692640 104.248226
10.736000 10699.896238 103.440303
10.740000 10824.400533 104.040379
10.744000 10838.854916 104.109821
10.748000 10951.194356 104.647954
10.752000 10759.679726 103.728876
10.756000 10737.520639 103.622008
10.760000 10742.176984 103.644474
10.764000 10758.882406 103.725033
10.768000 10824.660719 104.041630
10.772000 10816.168840 104.000812
10.776000 10820.430626 104.021299
10.780000 10848.345379 104.155391
10.784000 10839.366050 104.112276
10.788000 10916.954727 104.484232
10.792000 10795.715364 103.902432
10.796000 10843.153513 104.130464
10.800000 10772.666312 103.791456
10.804000 10837.870375 104.105093
10.808000 10729.017310 103.580970
10.812000 11008.580673 104.921784
10.816000 10856.845273 104.196186
10.820000 10824.380517 104.040283
10.824000 10786.743990 103.859251
10.828000 10799.819441 103.922180
10.832000 10942.617197 104.606965
10.836000 10918.537705 104.491807
10.840000 10803.652730 103.940621
10.844000 10981.490062 104.792605
10.848000 10804.487883 103.944639
10.852000 11040.798254 105.075203
10.856000 11068.725433 105.208010
10.860000 11023.112787 104.991013
10.864000 11091.723569 105.317252
10.868000 10984.446072 104.806708
10.872000 11162.494449 105.652707
10.876000 11207.748868 105.866656
10.880000 11137.834208 105.535938
10.884000 11027.973901 105.014160
10.888000 11078.393076 105.253946
10.892000 11103.566573 105.373462
10.896000 11110.201227 105.404939
10.900000 11242.872754 106.032414
10.904000 11287.999467 106.244997
10.908000 11354.902329 106.559384
10.912000 11419.256652 106.860922
10.916000 11524.095073 107.350338
10.920000 11443.560108 106.974577
10.924000 11671.303875 108.033809
10.928000 11905.124101 109.110605
10.932000 11935.010821 109.247475
10.936000 11924.346688 109.198657
10.940000 12283.006846 110.828728
10.944000 12334.379494 111.060252
10.948000 12538.678897 111.976243
10.952000 12638.501425 112.421090
10.956000 13042.479335 114.203675
10.960000 12896.854328 113.564318
10.964000 13112.271718 114.508828
10.968000 13346.433023 115.526763
10.972000 13280.186499 115.239692
10.976000 13172.057581 114.769585
10.980000 13130.108123 114.586684
10.984000 13219.414518 114.975713
10.988000 12911.014647 113.626646
10.992000 12812.078582 113.190453
10.996000 12630.866697 112.387129
11.000000 12353.775766 111.147541
11.004000 12172.669949 110.329823
11.008000 12010.679882 109.593247
11.012000 11933.004583 109.238293
11.016000 12043.712383 109.743849
11.020000 11733.634509 108.321902
11.024000 11376.320883 106.659837
11.028000 11350.535435 106.538892
11.032000 11295.192232 106.278842
11.036000 11297.729523 106.290778
11.040000 11353.148085 106.551152
11.044000 11200.674858 105.833241
11.048000 11117.780020 105.440884
11.052000 10997.836010 104.870568
11.056000 10950.584508 104.645041
11.060000 10869.234591 104.255621
11.064000 10944.257564 104.614806
11.068000 10911.145182 104.456427
11.072000 10958.476262 104.682741
11.076000 10997.998795 104.871344
11.080000 10746.241676 103.664081
11.084000 10808.943766 103.966070
11.088000 10678.901742 103.338772
11.092000 10608.915898 102.999592
11.096000 10617.329515 103.040427
11.100000 10684.391356 103.365330
11.104000 10557.921059 102.751745
11.108000 10464.544114 102.296354
11.112000 10774.715493 103.801327
11.116000 10506.481353 102.501129
11.120000 10634.428428 103.123365
11.124000 10571.673854 102.818645
11.128000 10391.269313 101.937576
11.132000 10596.483954 102.939225
11.136000 10713.563925 103.506347
11.140000 10657.397975 103.234674
11.144000 10585.725723 102.886956
11.148000 10579.126798 102.854882
11.152000 10724.316362 103.558275
11.156000 10607.325253 102.991870
11.160000 10625.881021 103.081914
11.164000 10682.519657 103.356275
11.168000 10512.328183 102.529645
11.172000 10649.578586 103.196795
11.176000 10720.087107 103.537853
11.180000 10713.227650 103.504723
11.184000 10749.084710 103.677793
11.188000 10800.057267 103.923324
11.192000 10893.049547 104.369773
11.196000 11088.664711 105.302729
11.200000 11226.285539 105.954167
11.204000 11670.901971 108.031949
11.208000 12167.595532 110.306825
11.212000 13050.083378 114.236962
11.216000 14436.107260 120.150353
11.220000 16100.315923 126.887020
11.224000 18507.214298 136.041223
11.228000 21548.503996 146.794087
11.232000 24915.863550 157.847596
11.236000 28455.938199 168.688880
11.240000 32201.933524 179.448972
11.244000 34574.045863 185.940974
11.248000 35009.901419 187.109330
11.252000 34078.802752 184.604449
11.256000 31608.685370 177.788316
11.260000 28480.531309 168.761759
11.264000 25461.239105 159.565783
11.268000 22141.563565 148.800415
11.272000 19382.401438 139.220693
11.276000 17005.927087 130.406775
11.280000 15106.411061 122.908141
11.284000 13634.082737 116.765075
11.288000 12769.043953 113.000194
11.292000 11957.083501 109.348450
11.296000 11388.160575 106.715325
11.300000 11164.924624 105.664207
11.304000 10762.375525 103.741870
11.308000 10686.033831 103.373274
11.312000 10471.612894 102.330899
11.316000 10457.758455 102.263182
11.320000 10391.293429 101.937694
11.324000 10399.048777 101.975726
11.328000 10219.603725 101.092056
11.332000 10345.445063 101.712561
11.336000 10374.144911 101.853546
11.340000 10090.078750 100.449384
11.344000 10252.831202 101.256265
11.348000 10152.341566 100.758829
11.352000 10126.192790 100.628986
11.356000 10122.550100 100.610885
11.360000 10156.560967 100.779765
11.364000 10132.967256 100.662641
11.368000 10177.822808 100.885196
11.372000 10155.244094 100.773231
11.376000 10166.110224 100.827130
11.380000 10036.896824 100.184314
11.384000 10026.170496 100.130767
11.388000 10160.621636 100.799909
11.392000 10110.800396 100.552476
11.396000 10033.216659 100.165946
11.400000 10134.820448 100.671845
11.404000 10127.679441 100.636372
11.408000 10139.000748 100.692605
11.412000 10163.476155 100.814067
11.416000 10139.070877 100.692953
11.420000 10064.791520 100.323435
11.424000 10139.921802 100.697179
11.428000 9914.244071 99.570297
11.432000 10060.316395 100.301129
11.436000 10009.382940 100.046904
11.440000 9914.515951 99.571662
11.444000 9899.951313 99.498499
11.448000 9917.822754 99.588266
11.452000 10077.363443 100.386072
11.456000 10046.660581 100.233031
11.460000 10002.131628 100.010658
11.464000 10032.097280 100.160358
11.468000 9975.635492 99.878103
11.472000 9985.789145 99.928920
11.476000 10076.917516 100.383851
11.480000 9951.243351 99.755919
11.484000 9887.466827 99.435742
11.488000 9959.605002 99.797821
11.492000 10032.657930 100.163157
11.496000 9952.075939 99.760092
11.500000 10007.133831 100.035663
11.504000 10169.484853 100.843864
11.508000 9951.147123 99.755437
11.512000 9837.623235 99.184793
11.516000 9894.328371 99.470239
11.520000 9982.596085 99.912943
11.524000 10090.918139 100.453562
11.528000 9936.825606 99.683628
11.532000 9973.502859 99.867426
11.536000 9985.912427 99.929537
11.540000 10031.134377 100.155551
11.544000 10079.518210 100.396804
11.548000 10180.490229 100.898415
11.552000 10178.117799 100.886658
11.556000 9894.370709 99.470451
11.560000 9780.360245 98.895704
11.564000 10040.480211 100.202197
11.568000 10013.013532 100.065047
11.572000 9953.164619 99.765548
11.576000 10012.628611 100.063123
11.580000 9948.440053 99.741867
11.584000 9949.277376 99.746064
11.588000 9874.874084 99.372401
11.592000 9909.729723 99.547625
11.596000 9949.736212 99.748364
11.600000 9893.645320 99.466805
11.604000 9900.966739 99.503602
11.608000 9814.378717 99.067546
11.612000 9812.526013 99.058195
11.616000 9938.735929 99.693209
11.620000 9897.060793 99.483973
11.624000 9868.138859 99.338506
11.628000 9854.972285 99.272213
11.632000 9909.927368 99.548618
11.636000 9918.948644 99.593919
11.640000 10022.690414 100.113388
11.644000 9885.269468 99.424692
11.648000 9932.459222 99.661724
11.652000 10075.718836 100.377880
11.656000 9900.540428 99.501459
11.660000 10065.934701 100.329132
11.664000 10088.113097 100.439599
11.668000 10121.177512 100.604063
11.672000 10052.782107 100.263563
11.676000 10206.640189 101.027918
11.680000 10472.037817 102.332975
11.684000 10942.894723 104.608292
11.688000 11177.733413 105.724800
11.692000 11520.899799 107.335455
11.696000 12005.633529 109.570222
11.700000 12652.230148 112.482133
11.704000 13122.545937 114.553681
11.708000 13720.885458 117.136183
11.712000 14467.376357 120.280407
11.716000 15193.467870 123.261786
11.720000 15923.554104 126.188566
11.724000 16252.423191 127.484992
11.728000 16202.437223 127.288795
11.732000 15963.162844 126.345411
11.736000 15375.825941 123.999298
11.740000 14755.657970 121.472869
11.744000 13931.979916 118.033808
11.748000 13175.596479 114.785001
11.752000 12508.255345 111.840312
11.756000 11888.996567 109.036675
11.760000 11330.356453 106.444147
11.764000 11207.214036 105.864130
11.768000 10978.186653 104.776842
11.772000 10739.023232 103.629259
11.776000 10511.787808 102.527010
11.780000 10455.565596 102.252460
11.784000 10248.500843 101.234880
11.788000 10328.224349 101.627872
11.792000 10143.488932 100.714889
11.796000 10109.902387 100.548010
11.800000 9995.566917 99.977832
11.804000 10070.002320 100.349401
11.808000 9994.386040 99.971926
11.812000 9873.249239 99.364225
11.816000 9813.689616 99.064068
11.820000 9791.554344 98.952283
11.824000 9893.452958 99.465838
11.828000 9719.377336 98.586902
11.832000 9725.386229 98.617373
11.836000 9553.587249 97.742454
11.840000 9669.515492 98.333695
11.844000 9730.120819 98.641375
11.848000 9796.219779 98.975855
11.852000 9756.142413 98.773187
11.856000 9901.981072 99.508698
11.860000 9650.033493 98.234584
11.864000 9857.204269 99.283454
11.868000 9773.646894 98.861756
11.872000 9910.185564 99.549915
11.876000 9689.069063 98.433069
11.880000 9772.525975 98.856087
11.884000 9818.247822 99.087072
11.888000 9778.789900 98.887764
11.892000 9929.502050 99.646887
11.896000 9781.667377 98.902312
11.900000 9684.782191 98.411291
11.904000 9833.502132 99.164016
11.908000 9576.001066 97.857044
11.912000 9687.015991 98.422640
11.916000 9721.913623 98.599765
11.920000 9577.675906 97.865601
11.924000 9916.092242 99.579577
11.928000 9750.176972 98.742984
11.932000 9691.530792 98.445573
11.936000 9867.993603 99.337775
11.940000 9917.416156 99.586225
11.944000 9711.080245 98.544813
11.948000 9666.571429 98.318724
11.952000 9679.554252 98.384726
11.956000 9681.568115 98.394960
11.960000 9831.980810 99.156345
11.964000 9896.600906 99.481661
11.968000 9828.890962 99.140763
11.972000 9794.657958 98.967964
11.976000 9918.451493 99.591423
11.980000 9815.479072 99.073100
11.984000 9796.118902 98.975345
11.988000 9619.623034 98.079677
11.992000 9741.306852 98.698059
11.996000 9823.226340 99.112191
12.000000 9806.204212 99.026280
12.004000 9862.278859 99.309007
12.008000 9682.659557 98.400506
12.012000 9510.512397 97.521856
12.016000 9760.914956 98.797343
12.020000 9936.334844 99.681166
12.024000 9981.973340 99.909826
12.028000 9959.725407 99.798424
12.032000 9870.987470 99.352843
12.036000 9960.392962 99.801768
12.040000 9766.700613 98.826619
12.044000 9726.294322 98.621977
12.048000 9729.889600 98.640203
12.052000 9859.574513 99.295390
12.056000 9822.930952 99.110700
12.060000 9770.640000 98.846548
12.064000 9500.990136 97.473023
12.068000 9841.615569 99.204917
12.072000 9749.945600 98.741813
12.076000 9846.478272 99.229422
12.080000 9691.568115 98.445762
12.084000 9802.006334 99.005082
12.088000 9789.202539 98.940399
12.092000 9628.211815 98.123452
12.096000 9741.454400 98.698806
12.100000 9695.066074 98.463527
12.104000 9649.052712 98.229592
12.108000 9791.365172 98.951327
12.112000 9739.601491 98.689419
12.116000 9598.182564 97.970315
12.120000 9705.031200 98.514117
12.124000 9633.821776 98.152034
12.128000 9716.516485 98.572392
12.132000 9559.634268 97.773382
12.136000 9543.690133 97.691812
12.140000 9509.581154 97.517081
12.144000 9409.124800 97.000643
12.148000 9603.826713 97.999116
12.152000 9515.148800 97.545624
12.156000 9498.533724 97.460421
12.160000 9506.730667 97.502465
12.164000 9348.689949 96.688624
12.168000 9605.516800 98.007738
12.172000 9614.573714 98.053933
12.176000 9446.448000 97.192839
12.180000 9727.888030 98.630056
12.184000 9320.647827 96.543502
12.188000 9458.053333 97.252524
12.192000 9494.785391 97.441189
12.196000 9459.855505 97.261789
12.200000 9711.141333 98.545123
12.204000 9623.917355 98.101567
12.208000 9477.849640 97.354248
12.212000 9484.902693 97.390465
12.216000 9638.064516 98.173645
12.220000 9339.436800 96.640762
12.224000 9467.876300 97.303013
12.228000 9473.266862 97.330709
12.232000 9248.842975 96.170905
12.236000 9325.355905 96.567882
12.240000 9503.756332 97.487211
12.244000 9517.829379 97.559363
12.248000 9536.466009 97.654831
12.252000 9508.612103 97.512113
12.256000 9290.662223 96.388081
12.260000 9381.572381 96.858517
12.264000 9632.105572 98.143291
12.268000 9488.898960 97.410980
12.272000 9469.870968 97.313262
12.276000 9607.983471 98.020322
12.280000 9547.916822 97.713442
12.284000 9613.385928 98.047876
12.288000 9311.144228 96.494270
12.292000 9487.818715 97.405435
12.296000 9479.920555 97.364884
12.300000 9614.089552 98.051464
12.304000 9549.901893 97.723599
12.308000 9583.840576 97.897092
12.312000 9595.362473 97.955921
12.316000 9669.601173 98.334130
12.320000 9657.591042 98.273043
12.324000 9544.183369 97.694336
12.328000 9524.080512 97.591396
12.332000 9576.308294 97.858614
12.336000 9609.173606 98.026392
12.340000 9662.767871 98.299379
12.344000 9870.085146 99.348302
12.348000 9938.444498 99.691747
12.352000 10069.694586 100.347868
12.356000 9872.124973 99.358568
12.360000 10196.247398 100.976470
12.364000 10484.643353 102.394547
12.368000 11010.478882 104.930829
12.372000 11705.215409 108.190644
12.376000 12438.911273 111.529867
12.380000 13480.159794 116.104090
12.384000 14957.939064 122.302654
12.388000 16205.528491 127.300937
12.392000 18087.036893 134.488055
12.396000 19687.921389 140.313654
12.400000 20707.624112 143.901439
12.404000 21532.579360 146.739836
12.408000 21756.302414 147.500178
12.412000 21196.331528 145.589600
12.416000 20154.375873 141.966108
12.420000 18388.104877 135.602747
12.424000 16720.717286 129.308613
12.428000 15054.332711 122.696099
12.432000 13753.153902 117.273842
12.436000 12911.718362 113.629742
12.440000 12342.075522 111.094894
12.444000 12180.825144 110.366776
12.448000 12506.463572 111.832301
12.452000 12770.340564 113.005932
12.456000 13672.868637 116.931042
12.460000 14700.954758 121.247494
12.464000 15834.004758 125.833242
12.468000 16915.248700 130.058636
12.472000 17899.224433 133.787983
12.476000 18636.815283 136.516722
12.480000 19102.145928 138.210513
12.484000 18826.043504 137.208030
12.488000 18179.162795 134.830126
12.492000 16927.942073 130.107425
12.496000 15535.818732 124.642764
12.500000 14542.796087 120.593516
12.504000 13430.964314 115.892037
12.508000 12674.218356 112.579831
12.512000 11772.385563 108.500625
12.516000 11368.665469 106.623944
12.520000 10732.305145 103.596839
12.524000 10405.868250 102.009158
12.528000 10104.036610 100.518837
12.532000 9920.762523 99.603025
12.536000 9943.030117 99.714744
12.540000 9733.634759 98.659185
12.544000 9732.449714 98.653179
12.548000 9644.534494 98.206591
12.552000 9647.140068 98.219856
12.556000 9812.987554 99.060525
12.560000 9628.535322 98.125100
12.564000 9603.422677 97.997054
12.568000 9557.151303 97.760684
12.572000 9564.027059 97.795844
12.576000 9664.414179 98.307752
12.580000 9683.933277 98.406978
12.584000 9617.093550 98.066781
12.588000 9469.079921 97.309198
12.592000 9562.266525 97.786842
12.596000 9699.859232 98.487863
12.600000 9585.574360 97.905947
12.604000 9534.136334 97.642902
12.608000 9486.408493 97.398196
12.612000 9362.514328 96.760086
12.616000 9369.347452 96.795390
12.620000 9511.364971 97.526227
12.624000 9533.327683 97.638761
12.628000 9595.978365 97.959065
12.632000 9370.773864 96.802758
12.636000 9493.828687 97.436280
12.640000 9605.549481 98.007905
12.644000 9542.330458 97.684853
12.648000 9545.210288 97.699592
12.652000 9540.901070 97.677536
12.656000 9512.932125 97.534261
12.660000 9596.978681 97.964170
12.664000 9560.785550 97.779270
12.668000 9579.947520 97.877206
12.672000 9570.926012 97.831110
12.676000 9439.605463 97.157632
12.680000 9643.768018 98.202688
12.684000 9696.745846 98.472056
12.688000 9507.866298 97.508288
12.692000 9469.166443 97.309642
12.696000 9670.646313 98.339444
12.700000 9732.117350 98.651494
12.704000 9629.321521 98.129106
12.708000 9764.316731 98.814557
12.712000 9847.967086 99.236924
12.716000 9899.373035 99.495593
12.720000 9931.861968 99.658728
12.724000 9846.488857 99.229476
12.728000 9835.694670 99.175071
12.732000 9765.479404 98.820440
12.736000 9788.005936 98.934352
12.740000 9625.207476 98.108142
12.744000 9663.878909 98.305030
12.748000 9590.953866 97.933415
12.752000 9628.175700 98.123268
12.756000 9545.445249 97.700795
12.760000 9619.252411 98.077788
12.764000 9737.190461 98.677203
12.768000 9629.043730 98.127691
12.772000 9722.897948 98.604756
12.776000 9636.918270 98.167807
12.780000 9827.216979 99.132321
12.784000 9611.216873 98.036814
12.788000 9635.956650 98.162909
12.792000 9646.008793 98.214097
12.796000 9635.559523 98.160886
12.800000 9671.107956 98.341792
12.804000 9575.444201 97.854199
12.808000 9707.108447 98.524659
12.812000 9776.577440 98.876577
12.816000 9870.006128 99.347904
12.820000 9792.243900 98.955767
12.824000 9902.612577 99.511872
12.828000 9780.241482 98.895103
12.832000 9808.789399 99.039333
12.836000 9681.568345 98.394961
12.840000 9731.574064 98.648741
12.844000 9812.633121 99.058736
12.848000 10028.362862 100.141714
12.852000 10265.197442 101.317311
12.856000 10110.537344 100.551168
12.860000 10377.560001 101.870310
12.864000 10515.785771 102.546505
12.868000 10779.073368 103.822316
12.872000 11087.985020 105.299502
12.876000 11522.191879 107.341473
12.880000 11999.200639 109.540863
12.884000 12680.569255 112.608034
12.888000 13410.164874 115.802266
12.892000 14049.925450 118.532381
12.896000 14755.890245 121.473825
12.900000 15959.136269 126.329475
12.904000 16400.023250 128.062576
12.908000 17058.130525 130.606778
12.912000 17452.061946 132.106252
12.916000 17563.711535 132.528154
12.920000 17662.148490 132.899016
12.924000 17673.699898 132.942468
12.928000 17281.873089 131.460538
12.932000 16699.549168 129.226736
12.936000 15961.242739 126.337812
12.940000 15350.006684 123.895144
12.944000 14249.943960 119.373129
12.948000 13432.310990 115.897847
12.952000 12607.309619 112.282277
12.956000 11886.869087 109.026919
12.960000 11302.902882 106.315111
12.964000 10906.747845 104.435376
12.968000 10433.526519 102.144635
12.972000 10239.112951 101.188502
12.976000 10100.327118 100.500384
12.980000 9961.192071 99.805772
12.984000 9883.817757 99.417392
12.988000 9868.949852 99.342588
12.992000 9579.681367 97.875847
12.996000 9590.720620 97.932225
13.000000 9568.271938 97.817544
13.004000 9546.551402 97.706455
13.008000 9424.482419 97.079773
13.012000 9539.830309 97.672055
13.016000 9336.284243 96.624450
13.020000 9473.004795 97.329362
13.024000 9606.913653 98.014864
13.028000 9514.197656 97.540749
13.032000 9392.563521 96.915239
13.036000 9553.037386 97.739641
13.040000 9554.164092 97.745404
13.044000 9357.546176 96.734411
13.048000 9526.570426 97.604152
13.052000 9539.372136 97.669709
13.056000 9307.966259 96.477802
13.060000 9406.295084 96.986056
13.064000 9571.400152 97.833533
13.068000 9596.091103 97.959640
13.072000 9554.670839 97.747997
13.076000 9486.306074 97.397670
13.080000 9498.758797 97.461576
13.084000 9394.205305 96.923709
13.088000 9462.100693 97.273330
13.092000 9431.690286 97.116890
13.096000 9515.079915 97.545271
13.100000 9369.946200 96.798482
13.104000 9389.120375 96.897474
13.108000 9363.856959 96.767024
13.112000 9473.491617 97.331863
13.116000 9270.582344 96.283863
13.120000 9335.322589 96.619473
13.124000 9403.541471 96.971859
13.128000 9308.672647 96.481463
13.132000 9454.673948 97.235148
13.136000 9542.182573 97.684096
13.140000 9386.021640 96.881482
13.144000 9356.056439 96.726710
13.148000 9413.127762 97.021275
13.152000 9400.158498 96.954415
13.156000 9541.746948 97.681866
13.160000 9396.831011 96.937253
13.164000 9448.146510 97.201577
13.168000 9319.319900 96.536625
13.172000 9417.892102 97.045825
13.176000 9491.429502 97.423968
13.180000 9507.524241 97.506534
13.184000 9566.554843 97.808767
13.188000 9555.279954 97.751112
13.192000 9403.637835 96.972356
13.196000 9394.277094 96.924079
13.200000 9573.935535 97.846490
13.204000 9513.410199 97.536712
13.208000 9498.608236 97.460804
13.212000 9572.271731 97.837987
13.216000 9419.442610 97.053813
13.220000 9394.758125 96.926560
13.224000 9459.843737 97.261728
13.228000 9488.929912 97.411139
13.232000 9557.438725 97.762154
13.236000 9504.292606 97.489962
13.240000 9393.604860 96.920611
13.244000 9354.861518 96.720533
13.248000 9364.204879 96.768822
13.252000 9438.732813 97.153141
13.256000 9489.063450 97.411824
13.260000 9532.602047 97.635045
13.264000 9577.009055 97.862194
13.268000 9471.839610 97.323376
13.272000 9506.809288 97.502868
13.276000 9609.848817 98.029836
13.280000 9538.752330 97.666536
13.284000 9683.233515 98.403422
13.288000 9695.829381 98.467403
13.292000 9709.836218 98.538501
13.296000 9795.183529 98.970620
13.300000 9738.533955 98.684011
13.304000 9822.644075 99.109253
13.308000 9829.096638 99.141801
13.312000 9946.229294 99.730784
13.316000 10185.759828 100.924525
13.320000 10223.440479 101.111030
13.324000 10327.853720 101.626048
13.328000 10466.021305 102.303574
13.332000 10507.455627 102.505881
13.336000 10784.004261 103.846060
13.340000 11124.165049 105.471157
13.344000 11374.864792 106.653011
13.348000 11388.894274 106.718763
13.352000 11613.031957 107.763779
13.356000 11744.998935 108.374346
13.360000 11778.959119 108.530913
13.364000 11910.259387 109.134135
13.368000 11794.823233 108.603974
13.372000 11714.499334 108.233541
13.376000 11620.947839 107.800500
13.380000 11428.537683 106.904339
13.384000 11100.687350 105.359799
13.388000 11015.173221 104.953195
13.392000 10839.998136 104.115312
13.396000 10490.871460 102.424955
13.400000 10389.169969 101.927278
13.404000 10230.047936 101.143699
13.408000 10255.581538 101.269845
13.412000 9932.115583 99.660000
13.416000 9883.953091 99.418072
13.420000 9951.347537 99.756441
13.424000 9738.894950 98.685840
13.428000 9512.544725 97.532275
13.432000 9577.585353 97.865139
13.436000 9452.894479 97.225997
13.440000 9407.368536 96.991590
13.444000 9302.532942 96.449639
13.448000 9519.774967 97.569334
13.452000 9349.986684 96.695329
13.456000 9191.739061 95.873558
13.460000 9439.890280 97.159098
13.464000 9282.228206 96.344321
13.468000 9236.684676 96.107672
13.472000 9090.960806 95.346530
13.476000 9223.464447 96.038869
13.480000 9100.452590 95.396292
13.484000 9068.863648 95.230581
13.488000 9263.578409 96.247485
13.492000 9081.820386 95.298585
13.496000 9140.065513 95.603690
13.500000 9078.591803 95.281645
13.504000 9056.826365 95.167360
13.508000 9191.669248 95.873194
13.512000 9100.208256 95.395012
13.516000 8992.310691 94.827795
13.520000 9002.021780 94.878985
13.524000 8901.318775 94.346801
13.528000 8900.913727 94.344654
13.532000 9055.481303 95.160293
13.536000 8891.191478 94.293115
13.540000 8899.353456 94.336385
13.544000 9083.799962 95.308971
13.548000 9092.546471 95.354845
13.552000 9047.415548 95.117903
13.556000 8926.158679 94.478350
13.560000 8906.893837 94.376342
13.564000 8900.765646 94.343869
13.568000 8841.169366 94.027493
13.572000 8957.948659 94.646440
13.576000 8979.181092 94.758541
13.580000 9169.776624 95.758951
13.584000 8947.920135 94.593447
13.588000 8933.488886 94.517135
13.592000 9024.003462 94.994755
13.596000 8901.498749 94.347754
13.600000 8983.758253 94.782690
13.604000 8908.657257 94.385684
13.608000 8924.623439 94.470225
13.612000 8808.029286 93.851102
13.616000 8833.144607 93.984811
13.620000 8887.174614 94.271812
13.624000 8843.429180 94.039509
13.628000 8954.559069 94.628532
13.632000 9050.443126 95.133817
13.636000 9039.566062 95.076633
13.640000 9156.648562 95.690379
13.644000 8916.890103 94.429286
13.648000 8970.214463 94.711216
13.652000 9076.083703 95.268482
13.656000 9292.590766 96.398085
13.660000 9217.231629 96.006415
13.664000 9422.081775 97.067408
13.668000 9619.459531 98.078843
13.672000 10008.189669 100.040940
13.676000 10292.732961 101.453107
13.680000 10877.067571 104.293181
13.684000 11696.368743 108.149751
13.688000 12807.083157 113.168384
13.692000 14203.682109 119.179202
13.696000 16629.364956 128.954895
13.700000 20391.000532 142.797061
13.704000 25094.695639 158.413054
13.708000 32035.654153 178.985067
13.712000 40748.587216 201.862793
13.716000 51960.830937 227.949185
13.720000 64338.577547 253.650503
13.724000 77228.516575 277.900192
13.728000 89470.143504 299.115602
13.732000 97732.175455 312.621457
13.736000 101055.700213 317.892592
13.740000 99708.681705 315.766815
13.744000 93901.842652 306.434076
13.748000 84143.088830 290.074282
13.752000 73229.125173 270.608805
13.756000 62540.632055 250.081251
13.760000 52007.366272 228.051236
13.764000 42157.100106 205.321943
13.768000 34239.733227 185.039815
13.772000 27982.945686 167.281038
13.776000 22699.425525 150.663285
13.780000 18751.249734 136.935203
13.784000 16132.101871 127.012212
13.788000 14084.578009 118.678465
13.792000 12608.667813 112.288324
13.796000 11482.312034 107.155551
13.800000 10985.099574 104.809826
13.804000 10555.192937 102.738469
13.808000 10145.524491 100.724994
13.812000 10059.770501 100.298407
13.816000 10141.035144 100.702707
13.820000 10241.547889 101.200533
13.824000 10608.127377 102.995764
13.828000 11223.759318 105.942245
13.832000 11879.230032 108.991881
13.836000 12832.944972 113.282589
13.840000 13791.891572 117.438884
13.844000 14631.804047 120.961994
13.848000 15028.404686 122.590394
13.852000 15024.405907 122.574083
13.856000 14810.228435 121.697282
13.860000 14355.963436 119.816374
13.864000 13338.285410 115.491495
13.868000 12399.277955 111.352045
13.872000 11644.574015 107.910027
13.876000 10960.096379 104.690479
13.880000 10483.407881 102.388514
13.884000 9841.312300 99.203389
13.888000 9788.617678 98.937443
13.892000 9845.387170 99.223924
13.896000 9876.729499 99.381736
13.900000 10100.103301 100.499270
13.904000 10509.545911 102.516076
13.908000 11148.576677 105.586821
13.912000 12352.092652 111.139969
13.916000 13811.687157 117.523135
13.920000 15942.812034 126.264849
13.924000 18518.258786 136.081809
13.928000 21204.234814 145.616739
13.932000 24968.871406 158.015415
13.936000 28953.481097 170.157225
13.940000 32358.573872 179.884891
13.944000 34491.677051 185.719350
13.948000 35357.511448 188.035931
13.952000 35162.258520 187.516022
13.956000 33228.310519 182.286342
13.960000 30620.263578 174.986467
13.964000 27599.890821 166.132149
13.968000 24624.178914 156.920932
13.972000 21746.175985 147.465847
13.976000 19367.304295 139.166463
13.980000 17721.645367 133.122670
13.984000 16419.455299 128.138422
13.988000 15758.861821 125.534305
13.992000 15495.403621 124.480535
13.996000 16044.695824 126.667659
14.000000 17113.701278 130.819346
14.004000 18195.950299 134.892366
14.008000 19660.355004 140.215388
14.012000 21342.390575 146.090351
14.016000 22584.929469 150.282832
14.020000 24038.605431 155.043882
14.024000 25326.531102 159.143115
14.028000 25678.151757 160.244038
14.032000 25243.377484 158.881646
14.036000 24375.256769 156.125772
14.040000 23031.161874 151.760212
14.044000 21474.424257 146.541544
14.048000 19892.501597 141.040780
14.052000 18798.458361 137.107470
14.056000 17552.779022 132.486901
14.060000 16135.628881 127.026095
14.064000 15103.847710 122.897712
14.068000 14128.002929 118.861276
14.072000 12856.499336 113.386504
14.076000 11881.159968 109.000734
14.080000 11113.531683 105.420736
14.084000 10348.646598 101.728298
14.088000 9789.764643 98.943240
14.092000 9612.843492 98.045109
14.096000 9106.939031 95.430284
14.100000 8814.128961 93.883593
14.104000 8521.889841 92.314083
14.108000 8445.339829 91.898530
14.112000 8427.188765 91.799721
14.116000 8336.997350 91.307159
14.120000 8309.165084 91.154622
14.124000 8232.927763 90.735482
14.128000 8231.080671 90.725303
14.132000 8120.600213 90.114373
14.136000 8061.245208 89.784437
14.140000 8112.671938 90.070372
14.144000 7975.512247 89.305723
14.148000 8078.589832 89.880976
14.152000 8050.907992 89.726852
14.156000 7818.221253 88.420706
14.160000 7999.322073 89.438929
14.164000 7957.419595 89.204370
14.168000 8048.742614 89.714785
14.172000 8185.656995 90.474621
14.176000 8155.373269 90.307105
14.180000 8043.272026 89.684291
14.184000 8021.325346 89.561852
14.188000 7860.352941 88.658632
14.192000 8034.395367 89.634789
14.196000 7860.265727 88.658140
14.200000 8008.916689 89.492551
14.204000 8041.365282 89.673660
14.208000 8055.922278 89.754790
14.212000 7886.346645 88.805105
14.216000 8000.357489 89.444718
14.220000 7980.698012 89.334753
14.224000 8134.184511 90.189714
14.228000 8104.297981 90.023875
14.232000 8073.312027 89.851611
14.236000 8040.753701 89.670250
14.240000 8092.210366 89.956714
14.244000 8027.390426 89.595705
14.248000 8106.119975 90.033993
14.252000 8065.124432 89.806038
14.256000 8113.857088 90.076951
14.260000 8182.406508 90.456655
14.264000 8339.966454 91.323417
14.268000 8328.871026 91.262649
14.272000 8280.284536 90.996069
14.276000 8387.873269 91.585333
14.280000 8548.375711 92.457426
14.284000 8497.362257 92.181138
14.288000 8705.540469 93.303486
14.292000 8857.695768 94.115332
14.296000 9004.532260 94.892214
14.300000 9476.522111 97.347430
14.304000 9805.825356 99.024367
14.308000 10446.666755 102.208937
14.312000 11319.470447 106.393000
14.316000 12389.828587 111.309607
14.320000 13915.794462 117.965226
14.324000 15956.689646 126.319791
14.328000 18785.052252 137.058572
14.332000 22277.879425 149.257762
14.336000 26930.863685 164.106257
14.340000 33193.098871 182.189733
14.344000 40236.810221 200.591152
14.348000 48588.777585 220.428622
14.352000 57813.604263 240.444597
14.356000 68347.151983 261.432882
14.360000 78098.366613 279.460850
14.364000 86918.938515 294.820180
14.368000 94028.406437 306.640517
14.372000 98120.744252 313.242309
14.376000 99370.461871 315.230807
14.380000 96972.261911 311.403696
14.384000 91449.364287 302.405959
14.388000 81937.278748 286.246884
14.392000 71004.686718 266.467046
14.396000 58749.461928 242.382883
14.400000 47695.070003 218.392010
14.404000 37925.943838 194.745844
14.408000 30381.356139 174.302485
14.412000 24067.000600 155.135427
14.416000 19596.034602 139.985837
14.420000 16246.607023 127.462179
14.424000 13924.171951 118.000729
14.428000 12297.579718 110.894453
14.432000 11124.661812 105.473512
14.436000 10486.690711 102.404544
14.440000 9812.860485 99.059883
14.444000 9368.242481 96.789682
14.448000 9204.011117 95.937538
14.452000 8906.812639 94.375911
14.456000 8804.936652 93.834624
14.460000 8493.561560 92.160521
14.464000 8439.590897 91.867246
14.468000 8442.277062 91.881865
14.472000 8201.865584 90.564152
14.476000 8335.121486 91.296887
14.480000 8238.778145 90.767715
14.484000 8100.178068 90.000989
14.488000 8181.755174 90.453055
14.492000 8316.531180 91.195017
14.496000 8236.830716 90.756987
14.500000 8185.889380 90.475905
14.504000 8028.662854 89.602806
14.508000 8027.863455 89.598345
14.512000 7969.341277 89.271167
14.516000 7928.563778 89.042483
14.520000 7816.893532 88.413198
14.524000 7797.097418 88.301175
14.528000 7876.259525 88.748293
14.532000 7979.104072 89.325831
14.536000 7810.184937 88.375251
14.540000 7739.169714 87.972551
14.544000 7763.380623 88.110048
14.548000 7977.472334 89.316697
14.552000 8083.283236 89.907081
14.556000 7946.747671 89.144532
14.560000 8068.130411 89.822772
14.564000 8049.192047 89.717290
14.568000 8014.826723 89.525565
14.572000 8011.829987 89.508826
14.576000 7969.827573 89.273891
14.580000 7968.435454 89.266094
14.584000 7771.750486 88.157532
14.588000 7647.409635 87.449469
14.592000 7504.527157 86.628674
14.596000 7763.484695 88.110639
14.600000 7622.668086 87.307892
14.604000 7561.378860 86.956189
14.608000 7440.254725 86.256911
14.612000 7469.418419 86.425797
14.616000 7535.414797 86.806767
14.620000 7415.632381 86.114066
14.624000 7434.096527 86.221207
14.628000 7458.163162 86.360657
14.632000 7454.561901 86.339805
14.636000 7519.411499 86.714540
14.640000 7438.287949 86.245510
14.644000 7449.606163 86.311101
14.648000 7463.184190 86.389723
14.652000 7563.958489 86.971021
14.656000 7505.474320 86.634141
14.660000 7639.933191 87.406711
14.664000 7683.032882 87.652911
14.668000 7603.607278 87.198666
14.672000 7664.940378 87.549645
14.676000 7767.936026 88.135895
14.680000 7645.548310 87.438826
14.684000 7702.697551 87.765013
14.688000 7655.478041 87.495589
14.692000 7503.034070 86.620056
14.696000 7736.018637 87.954640
14.700000 7466.746340 86.410337
14.704000 7513.705616 86.681634
14.708000 7412.740149 86.097271
14.712000 7363.792121 85.812541
14.716000 7359.153580 85.785509
14.720000 7473.251331 86.447969
14.724000 7540.521427 86.836176
14.728000 7630.527815 87.352892
14.732000 7593.051118 87.138115
14.736000 7658.952089 87.515439
14.740000 7827.559843 88.473498
14.744000 7838.224913 88.533750
14.748000 8003.485623 89.462202
14.752000 8107.651850 90.042500
14.756000 8285.224913 91.023211
14.760000 8440.836528 91.874025
14.764000 8747.586904 93.528535
14.768000 9124.826026 95.523955
14.772000 9201.824860 95.926143
14.776000 9161.617780 95.716340
14.780000 9211.042157 95.974174
14.784000 9175.811847 95.790458
14.788000 8997.311419 94.854159
14.792000 8906.310236 94.373250
14.796000 8962.245409 94.669137
14.800000 8943.241747 94.568714
14.804000 9005.943838 94.899651
14.808000 9092.620729 95.355234
14.812000 9381.899594 96.860206
14.816000 9803.426310 99.012253
14.820000 10038.418153 100.191907
14.824000 10293.008185 101.454464
14.828000 10736.408792 103.616643
14.832000 11016.740218 104.960660
14.836000 11406.111821 106.799400
14.840000 11681.160234 108.079416
14.844000 11792.755355 108.594454
14.848000 12094.357008 109.974347
14.852000 12602.572455 112.261180
14.856000 13253.691509 115.124678
14.860000 14287.429263 119.530035
14.864000 15510.447482 124.540947
14.868000 17691.417713 133.009089
14.872000 20617.078520 143.586484
14.876000 24355.633387 156.062915
14.880000 28752.399521 169.565325
14.884000 33214.546760 182.248585
14.888000 37495.757808 193.638214
14.892000 41140.988875 202.832416
14.896000 44307.292267 210.492974
14.900000 46014.512269 214.509935
14.904000 46841.421613 216.428791
14.908000 46407.945421 215.425034
14.912000 44694.547777 211.410851
14.916000 42632.185537 206.475629
14.920000 39308.558022 198.263860
14.924000 35548.872304 188.544086
14.928000 31829.808890 178.409105
14.932000 28197.476989 167.921044
14.936000 24773.629864 157.396410
14.940000 21853.293319 147.828594
14.944000 19034.548456 137.965751
14.948000 16559.501730 128.683728
14.952000 14903.747601 122.080906
14.956000 13212.884897 114.947314
14.960000 12229.209034 110.585754
14.964000 11237.779760 106.008395
14.968000 10786.482437 103.857992
14.972000 10340.748085 101.689469
14.976000 9855.857266 99.276670
14.980000 9818.011585 99.085880
14.984000 9703.217727 98.504912
14.988000 9579.517572 97.875010
14.992000 9584.566914 97.900801
14.996000 9652.316560 98.246204
15.000000 9836.498270 99.179122
15.004000 9886.502967 99.430895
15.008000 9992.451278 99.962249
15.012000 9890.288437 99.449929
15.016000 9651.503679 98.242067
15.020000 9432.289593 97.119975
15.024000 9320.741214 96.543986
15.028000 9031.240351 95.032838
15.032000 9010.140876 94.921762
15.036000 8863.635783 94.146884
15.040000 8647.703487 92.993029
15.044000 8632.005158 92.908585
15.048000 8406.568690 91.687342
15.052000 8137.562417 90.208439
15.056000 8229.581203 90.717039
15.060000 8189.417354 90.495400
15.064000 8012.604100 89.513150
15.068000 7779.910894 88.203803
15.072000 7665.227043 87.551282
15.076000 7708.374867 87.797351
15.080000 7573.172019 87.023974
15.084000 7389.682459 85.963262
15.088000 7660.849995 87.526282
15.092000 7549.067359 86.885369
15.096000 7400.257164 86.024747
15.100000 7423.885120 86.161970
15.104000 7474.425780 86.454761
15.108000 7480.854899 86.491935
15.112000 7454.126431 86.337283
15.116000 7541.547391 86.842083
15.120000 7529.374605 86.771969
15.124000 7498.923077 86.596323
15.128000 7593.541001 87.140926
15.132000 7526.955137 86.758026
15.136000 7584.346645 87.088154
15.140000 7752.014730 88.045526
15.144000 7839.509981 88.541007
15.148000 8162.675186 90.347525
15.152000 8278.814812 90.987993
15.156000 8456.146432 91.957308
15.160000 8749.870908 93.540745
15.164000 9018.451810 94.965530
15.168000 9481.419897 97.372583
15.172000 10048.816826 100.243787
15.176000 10537.643595 102.653025
15.180000 10906.629181 104.434808
15.184000 11638.544031 107.882084
15.188000 11907.457401 109.121297
15.192000 12483.181857 111.728161
15.196000 12833.374334 113.284484
15.200000 13288.431169 115.275458
15.204000 13410.559105 115.803968
15.208000 13539.642761 116.359971
15.212000 13533.280446 116.332628
15.216000 13215.693434 114.959530
15.220000 12989.687433 113.972310
15.224000 12401.186716 111.360616
15.228000 11719.127796 108.254920
15.232000 11065.841521 105.194304
15.236000 10538.816294 102.658737
15.240000 9631.793930 98.141703
15.244000 9210.213639 95.969858
15.248000 8856.385783 94.108373
15.252000 8376.879199 91.525293
15.256000 8018.436635 89.545724
15.260000 7814.947817 88.402194
15.264000 7603.681579 87.199092
15.268000 7461.106253 86.377695
15.272000 7276.934505 85.304950
15.276000 7089.749201 84.200648
15.280000 7041.452447 83.913363
15.284000 6980.187167 83.547514
15.288000 6876.327742 82.923626
15.292000 6952.488039 83.381581
15.296000 6874.892971 82.914974
15.300000 6871.380947 82.893793
15.304000 6824.787274 82.612271
15.308000 6854.439297 82.791541
15.312000 7024.117341 83.810007
15.316000 7011.460064 83.734462
15.320000 6975.790202 83.521196
15.324000 6892.629925 83.021864
15.328000 6871.821619 82.896451
15.332000 6762.381523 82.233701
15.336000 6725.593562 82.009716
15.340000 6756.051118 82.195201
15.344000 6816.996805 82.565106
15.348000 6854.347742 82.790988
15.352000 6816.624068 82.562849
15.356000 6677.414271 81.715447
15.360000 6751.580937 82.168004
15.364000 6815.708991 82.557307
15.368000 6700.726305 81.857964
15.372000 6751.101171 82.165085
15.376000 6701.630458 81.863487
15.380000 6563.289730 81.014133
15.384000 6692.315495 81.806574
15.388000 6728.465655 82.027225
15.392000 6612.028212 81.314379
15.396000 6632.981363 81.443117
15.400000 6544.196212 80.896206
15.404000 6540.658147 80.874336
15.408000 6634.069755 81.449799
15.412000 6517.841321 80.733149
15.416000 6497.321315 80.605963
15.420000 6598.769968 81.232813
15.424000 6686.964786 81.773864
15.428000 6493.030618 80.579344
15.432000 6583.716187 81.140102
15.436000 6610.431408 81.304560
15.440000 6572.715919 81.072288
15.444000 6521.111022 80.753396
15.448000 6576.317346 81.094496
15.452000 6539.898829 80.869641
15.456000 6459.293397 80.369729
15.460000 6585.211631 81.149317
15.464000 6560.522364 80.997052
15.468000 6493.971146 80.585179
15.472000 6626.932800 81.405975
15.476000 6612.521033 81.317409
15.480000 6576.610676 81.096305
15.484000 6759.609685 82.216846
15.488000 6688.612620 81.783939
15.492000 6812.139776 82.535688
15.496000 6982.421470 83.560885
15.500000 7180.445687 84.737511
15.504000 7368.928746 85.842465
15.508000 7681.306709 87.643064
15.512000 7928.006818 89.039355
15.516000 8414.712993 91.731745
15.520000 8612.537475 92.803758
15.524000 9194.284345 95.886831
15.528000 9556.289614 97.756277
15.532000 10008.520501 100.042593
15.536000 10098.658100 100.492080
15.540000 10364.550692 101.806437
15.544000 10452.673855 102.238319
15.548000 10139.135783 100.693276
15.552000 9778.480888 98.886202
15.556000 9535.229766 97.648501
15.560000 9015.728453 94.951190
15.564000 8495.121748 92.168985
15.568000 8177.274228 90.428282
15.572000 7937.481046 89.092542
15.576000 7563.415979 86.967902
15.580000 7291.550586 85.390577
15.584000 7196.396831 84.831579
15.588000 7292.912165 85.398549
15.592000 7197.600905 84.838676
15.596000 7153.422852 84.577910
15.600000 7063.322506 84.043575
15.604000 6955.141374 83.397490
15.608000 6983.172037 83.565376
15.612000 7018.856685 83.778617
15.616000 7222.902822 84.987663
15.620000 7202.492473 84.867500
15.624000 7124.411494 84.406229
15.628000 7240.890812 85.093424
15.632000 7449.406942 86.309947
15.636000 7448.844515 86.306689
15.640000 7368.396167 85.839363
15.644000 7488.236218 86.534596
15.648000 7310.472969 85.501304
15.652000 7302.617172 85.455352
15.656000 7197.672625 84.839098
15.660000 7085.652694 84.176319
15.664000 7166.716678 84.656463
15.668000 7080.051165 84.143040
15.672000 6987.660453 83.592227
15.676000 6771.356830 82.288255
15.680000 6785.800902 82.375973
15.684000 6726.138977 82.013042
15.688000 6842.997603 82.722413
15.692000 6798.560493 82.453384
15.696000 6889.378061 83.002277
15.700000 6746.966916 82.139923
15.704000 6811.310519 82.530664
15.708000 6894.297208 83.031905
15.712000 6878.172447 82.934748
15.716000 6850.721172 82.769083
15.720000 6876.936008 82.927294
15.724000 6917.275873 83.170162
15.728000 6826.433023 82.622231
15.732000 6811.993935 82.534804
15.736000 6846.864714 82.745784
15.740000 6821.756548 82.593926
15.744000 6824.059654 82.607867
15.748000 6729.517411 82.033636
15.752000 6780.084154 82.341266
15.756000 6822.238811 82.596845
15.760000 6804.597365 82.489983
15.764000 6915.651664 83.160397
15.768000 6888.056899 82.994318
15.772000 6896.563249 83.045549
15.776000 6858.407952 82.815506
15.780000 7021.836617 83.796400
15.784000 7014.480420 83.752495
15.788000 7041.577364 83.914107
15.792000 7044.227859 83.929898
15.796000 7085.998730 84.178374
15.800000 7039.143780 83.899605
15.804000 7005.236218 83.697289
15.808000 7027.868509 83.832383
15.812000 6920.227358 83.187904
15.816000 6692.371505 81.806916
15.820000 6714.220057 81.940345
15.824000 6704.153928 81.878898
15.828000 6512.948602 80.702841
15.832000 6500.540214 80.625928
15.836000 6405.923835 80.037015
15.840000 6243.078029 79.013151
15.844000 6322.287588 79.512814
15.848000 6177.037816 78.594133
15.852000 6105.751798 78.139310
15.856000 6096.264629 78.078580
15.860000 6187.312038 78.659469
15.864000 6172.406924 78.564667
15.868000 5932.579014 77.023237
15.872000 5921.407848 76.950685
15.876000 6137.344174 78.341204
15.880000 6050.276964 77.783526
15.884000 6022.020146 77.601676
15.888000 6039.173131 77.712117
15.892000 6011.338870 77.532824
15.896000 5928.135693 76.994387
15.900000 5951.994141 77.149168
15.904000 6037.533404 77.701566
15.908000 5917.360320 76.924381
15.912000 5935.343093 77.041178
15.916000 5850.557390 76.488936
15.920000 5838.704081 76.411413
15.924000 5932.212517 77.020858
15.928000 6050.315450 77.783774
15.932000 5925.060311 76.974413
15.936000 6015.860888 77.561981
15.940000 5954.810652 77.167420
15.944000 5985.074679 77.363264
15.948000 5794.941769 76.124515
15.952000 6027.076698 77.634250
15.956000 5986.898876 77.375053
15.960000 5983.263648 77.351559
15.964000 5943.114058 77.091595
15.968000 5837.791046 76.405439
15.972000 5896.557390 76.789045
15.976000 5898.735081 76.803223
15.980000 5874.430403 76.644833
15.984000 5847.564756 76.469371
15.988000 5822.161772 76.303091
15.992000 5853.636514 76.509062
15.996000 5878.558988 76.671761
16.000000 5857.145845 76.531992
16.004000 5905.206713 76.845343
16.008000 5809.256296 76.218477
16.012000 5878.608163 76.672082
16.016000 5926.318677 76.982587
16.020000 5921.828772 76.953419
16.024000 5746.028503 75.802563
16.028000 5762.736215 75.912688
16.032000 5867.756354 76.601282
16.036000 5824.953143 76.321381
16.040000 5819.953500 76.288620
16.044000 5749.169419 75.823278
16.048000 5856.435714 76.527353
16.052000 5798.071117 76.145066
16.056000 5887.826381 76.732173
16.060000 5837.129462 76.401109
16.064000 5684.102787 75.392989
16.068000 5848.175546 76.473365
16.072000 5826.883967 76.334029
16.076000 5777.249357 76.008219
16.080000 5845.753672 76.457529
16.084000 5779.352714 76.022054
16.088000 5796.304209 76.133463
16.092000 5740.186603 75.764019
16.096000 5716.150838 75.605230
16.100000 5752.531966 75.845448
16.104000 5755.746893 75.866639
16.108000 5837.122570 76.401064
16.112000 5822.111426 76.302762
16.116000 5768.258391 75.949051
16.120000 5665.922065 75.272319
16.124000 5633.186201 75.054555
16.128000 5682.020778 75.379180
16.132000 5703.514662 75.521617
16.136000 5668.876931 75.291945
16.140000 5772.751815 75.978627
16.144000 5722.302611 75.645903
16.148000 5726.518520 75.673764
16.152000 5765.374001 75.930060
16.156000 5687.345350 75.414490
16.160000 5850.277304 76.487105
16.164000 5786.335651 76.067967
16.168000 5806.201765 76.198437
16.172000 5927.172083 76.988129
16.176000 5755.838488 75.867243
16.180000 5782.540785 76.043019
16.184000 5728.136154 75.684451
16.188000 5671.034125 75.306269
16.192000 5679.839191 75.364708
16.196000 5731.641790 75.707607
16.200000 5820.170751 76.290044
16.204000 5655.836234 75.205294
16.208000 5580.947436 74.705739
16.212000 5645.714438 75.137969
16.216000 5678.607159 75.356534
16.220000 5730.076444 75.697268
16.224000 5782.143345 76.040406
16.228000 5657.841477 75.218625
16.232000 5692.015029 75.445444
16.236000 5726.300679 75.672324
16.240000 5625.469366 75.003129
16.244000 5809.578503 76.220591
16.248000 5700.951623 75.504646
16.252000 5732.307771 75.712005
16.256000 5665.150786 75.267196
16.260000 5692.859908 75.451043
16.264000 5647.900045 75.152512
16.268000 5793.295991 76.113704
16.272000 5700.911827 75.504383
16.276000 5760.687592 75.899194
16.280000 5830.273837 76.356230
16.284000 5822.660290 76.306358
16.288000 5875.656096 76.652828
16.292000 5830.708446 76.359076
16.296000 5976.189182 77.305816
16.300000 5983.938323 77.355920
16.304000 6107.903595 78.153078
16.308000 6287.326143 79.292661
16.312000 6523.077577 80.765572
16.316000 6822.427477 82.597987
16.320000 7190.267115 84.795443
16.324000 7705.709299 87.782170
16.328000 8080.364090 89.890845
16.332000 8557.671908 92.507686
16.336000 8649.988010 93.005312
16.340000 8883.792166 94.253871
16.344000 8957.677172 94.645006
16.348000 8831.505277 93.976089
16.352000 8631.057102 92.903483
16.356000 8339.444178 91.320557
16.360000 8268.336051 90.930391
16.364000 8013.118525 89.516024
16.368000 7564.417000 86.973657
16.372000 7152.553242 84.572769
16.376000 7045.335731 83.936498
16.380000 6806.066133 82.498886
16.384000 6662.168152 81.622106
16.388000 6407.909406 80.049419
16.392000 6296.210386 79.348663
16.396000 6164.973355 78.517344
16.400000 6127.598517 78.278979
16.404000 6107.002914 78.147315
16.408000 6028.424693 77.642931
16.412000 6144.298097 78.385573
16.416000 6118.944982 78.223686
16.420000 6247.830337 79.043218
16.424000 6400.936791 80.005855
16.428000 6604.250733 81.266541
16.432000 6841.975427 82.716234
16.436000 7114.492140 84.347449
16.440000 7491.358416 86.552634
16.444000 7775.652448 88.179660
16.448000 8081.905143 89.899417
16.452000 8488.828007 92.134836
16.456000 8806.133340 93.841000
16.460000 8966.376166 94.690951
16.464000 9041.326364 95.085889
16.468000 9257.819774 96.217565
16.472000 9297.959293 96.425926
16.476000 9316.537926 96.522215
16.480000 9031.189401 95.032570
16.484000 8646.811937 92.988235
16.488000 8369.255785 91.483637
16.492000 7900.416596 88.884288
16.496000 7603.623430 87.198758
16.500000 7261.723814 85.215749
16.504000 6891.293314 83.013814
16.508000 6492.423995 80.575579
16.512000 6294.419732 79.337379
16.516000 6100.254386 78.104125
16.520000 6062.151093 77.859817
16.524000 5924.027574 76.967705
16.528000 5864.747158 76.581637
16.532000 5728.575809 75.687356
16.536000 5652.649407 75.184103
16.540000 5680.552027 75.369437
16.544000 5787.203054 76.073669
16.548000 5693.933542 75.458158
16.552000 5646.786708 75.145104
16.556000 5627.201016 75.014672
16.560000 5550.159953 74.499396
16.564000 5821.670790 76.299874
16.568000 5713.641240 75.588632
16.572000 5683.059566 75.386070
16.576000 5692.010661 75.445415
16.580000 5626.539548 75.010263
16.584000 5574.991674 74.665867
16.588000 5659.602208 75.230328
16.592000 5528.320727 74.352678
16.596000 5479.110341 74.021013
16.600000 5641.802413 75.111933
16.604000 5682.485917 75.382265
16.608000 5624.952825 74.999686
16.612000 5562.032743 74.579037
16.616000 5611.760128 74.911682
16.620000 5533.586737 74.388082
16.624000 5547.179543 74.479390
16.628000 5703.037423 75.518458
16.632000 5585.143431 74.733817
16.636000 5639.779643 75.098466
16.640000 5567.450906 74.615353
16.644000 5626.091228 75.007275
16.648000 5627.144541 75.014296
16.652000 5585.038909 74.733118
16.656000 5550.961594 74.504776
16.660000 5594.270417 74.794856
16.664000 5490.923774 74.100768
16.668000 5589.099126 74.760278
16.672000 5502.160373 74.176549
16.676000 5521.210800 74.304850
16.680000 5508.740139 74.220887
16.684000 5607.701974 74.884591
16.688000 5560.634165 74.569660
16.692000 5430.609867 73.692672
16.696000 5643.333547 75.122124
16.700000 5487.153783 74.075325
16.704000 5585.274329 74.734693
16.708000 5600.364606 74.835584
16.712000 5661.730030 75.244468
16.716000 5546.776665 74.476685
16.720000 5525.642493 74.334665
16.724000 5663.222153 75.254383
16.728000 5676.932536 75.345421
16.732000 5661.903672 75.245622
16.736000 5723.230742 75.652037
16.740000 5900.695366 76.815984
16.744000 5852.175869 76.499515
16.748000 5975.823172 77.303449
16.752000 6101.893931 78.114620
16.756000 6255.445463 79.091374
16.760000 6450.773343 80.316706
16.764000 6715.671517 81.949201
16.768000 7169.476528 84.672761
16.772000 7477.447936 86.472238
16.776000 7865.374482 88.686947
16.780000 8426.293799 91.794846
16.784000 9092.066345 95.352327
16.788000 9824.808459 99.120172
16.792000 10754.743621 103.705080
16.796000 11596.324052 107.686230
16.800000 12114.862959 110.067538
16.804000 12813.921351 113.198593
16.808000 13391.360107 115.721044
16.812000 13575.056519 116.512045
16.816000 13718.162578 117.124560
16.820000 13437.547349 115.920435
16.824000 13073.069488 114.337524
16.828000 12339.547587 111.083516
16.832000 11405.907560 106.798444
16.836000 10548.666980 102.706704
16.840000 9719.515455 98.587603
16.844000 9204.920015 95.942274
16.848000 8515.650461 92.280282
16.852000 8174.002945 90.410193
16.856000 7672.648097 87.593653
16.860000 7493.830027 86.566911
16.864000 7395.714220 85.998338
16.868000 7064.110647 84.048264
16.872000 7089.027054 84.196360
16.876000 7141.575075 84.507840
16.880000 7073.153026 84.102039
16.884000 7107.679104 84.307053
16.888000 7319.193815 85.552287
16.892000 7344.216418 85.698404
16.896000 7598.245801 87.167917
16.900000 7755.099973 88.063045
16.904000 8049.746802 89.720381
16.908000 8022.924553 89.570780
16.912000 7710.654759 87.810334
16.916000 7689.957345 87.692402
16.920000 7727.601173 87.906775
16.924000 7287.876833 85.369063
16.928000 7046.618502 83.944139
16.932000 6721.892857 81.987151
16.936000 6571.327113 81.063723
16.940000 6416.000000 80.099938
16.944000 6242.048520 79.006636
16.948000 6179.105305 78.607285
16.952000 6132.683551 78.311452
16.956000 5921.727539 76.952762
16.960000 5797.107438 76.138738
16.964000 5765.433751 75.930453
16.968000 5581.424154 74.708930
16.972000 5533.473207 74.387319
16.976000 5342.968808 73.095614
16.980000 5688.288456 75.420743
16.984000 5461.788856 73.903916
16.988000 5402.938950 73.504687
16.992000 5474.515596 73.989970
16.996000 5637.342042 75.082235
17.000000 5565.591576 74.602893
17.004000 5511.074667 74.236613
17.008000 5518.587577 74.287197
17.012000 5381.399627 73.358024
17.016000 5267.352173 72.576526
17.020000 5336.941082 73.054371
17.024000 5374.689600 73.312275
17.028000 5391.264729 73.425232
17.032000 5375.711544 73.319244
17.036000 5287.666133 72.716340
17.040000 5421.539323 73.631103
17.044000 5339.059733 73.068870
17.048000 5421.794721 73.632837
17.052000 5574.668800 74.663705
17.056000 5544.388163 74.460648
17.060000 5320.520000 72.941895
17.064000 5413.837377 73.578783
17.068000 5389.491200 73.413154
17.072000 5323.819781 72.964510
17.076000 5385.352533 73.384961
17.080000 5396.806075 73.462957
17.084000 5429.756000 73.686878
17.088000 5375.530373 73.318009
17.092000 5396.168800 73.458620
17.096000 5505.112533 74.196446
17.100000 5504.134133 74.189852
17.104000 5574.787467 74.664499
17.108000 5511.332267 74.238348
17.112000 5385.091618 73.383183
17.116000 5355.168800 73.179019
17.120000 5545.171200 74.465906
17.124000 5479.968000 74.026806
17.128000 5510.261600 74.231136
17.132000 5582.046728 74.713096
17.136000 5680.195733 75.367073
17.140000 5564.579733 74.596111
17.144000 5473.894961 73.985775
17.148000 5608.704000 74.891281
17.152000 5683.319467 75.387794
17.156000 5565.884800 74.604858
17.160000 5725.217275 75.665166
17.164000 5767.972800 75.947171
17.168000 6019.758933 77.587105
17.172000 5989.011200 77.388702
17.176000 5899.433218 76.807768
17.180000 5948.512397 77.126600
17.184000 6157.656000 78.470733
17.188000 6244.130667 79.019812
17.192000 6331.612903 79.571433
17.196000 6248.204800 79.045587
17.200000 6459.450280 80.370705
17.204000 6595.547200 81.212974
17.208000 6633.506798 81.446343
17.212000 6650.316800 81.549475
17.216000 6661.144228 81.615833
17.220000 6585.882133 81.153448
17.224000 6629.329779 81.420696
17.228000 6544.093842 80.895574
17.232000 6321.003200 79.504737
17.236000 6270.614236 79.187210
17.240000 6142.961600 78.377048
17.244000 6106.062917 78.141301
17.248000 5982.000000 77.343390
17.252000 5933.160000 77.027008
17.256000 5713.832045 75.589894
17.260000 5554.685151 74.529760
17.264000 5635.202879 75.067988
17.268000 5629.173554 75.027819
17.272000 5511.052800 74.236465
17.276000 5586.033058 74.739769
17.280000 5500.450547 74.165022
17.284000 5405.977606 73.525353
17.288000 5378.797654 73.340287
17.292000 5330.452146 73.009946
17.296000 5605.519062 74.870014
17.300000 5377.190616 73.329330
17.304000 5270.458544 72.597924
17.308000 5266.471341 72.570458
17.312000 5308.914423 72.862298
17.316000 5303.155958 72.822771
17.320000 5263.238603 72.548181
17.324000 5315.650227 72.908506
17.328000 5438.705412 73.747579
17.332000 5331.123779 73.014545
17.336000 5354.490388 73.174383
17.340000 5335.854244 73.046932
17.344000 5143.540657 71.718482
17.348000 5251.833044 72.469532
17.352000 5276.461552 72.639256
17.356000 5348.693362 73.134762
17.360000 5273.092271 72.616061
17.364000 5341.803045 73.087639
17.368000 5327.916000 72.992575
17.372000 5252.011953 72.470766
17.376000 5329.799033 73.005473
17.380000 5342.657864 73.093487
17.384000 5225.678647 72.288856
17.388000 5375.019036 73.314521
17.392000 5341.115076 73.082933
17.396000 5383.621207 73.373164
17.400000 5343.987470 73.102582
17.404000 5322.009571 72.952105
17.408000 5271.234191 72.603266
17.412000 5320.745020 72.943437
17.416000 5406.986009 73.532211
17.420000 5338.849333 73.067430
17.424000 5267.446446 72.577176
17.428000 5328.647625 72.997586
17.432000 5274.278689 72.624229
17.436000 5286.263822 72.706697
17.440000 5233.684187 72.344206
17.444000 5287.834747 72.717500
17.448000 5369.897785 73.279586
17.452000 5423.533094 73.644641
17.456000 5314.796854 72.902653
17.460000 5345.577093 73.113454
17.464000 5237.909099 72.373400
17.468000 5357.152303 73.192570
17.472000 5406.665956 73.530034
17.476000 5348.195050 73.131355
17.480000 5313.532132 72.893979
17.484000 5287.275971 72.713657
17.488000 5309.560455 72.866731
17.492000 5260.149425 72.526888
17.496000 5368.635297 73.270972
17.500000 5298.490552 72.790731
17.504000 5368.585974 73.270635
17.508000 5343.595489 73.099901
17.512000 5376.168778 73.322362
17.516000 5267.039971 72.574375
17.520000 5370.658959 73.284780
17.524000 5374.358226 73.310015
17.528000 5464.756936 73.923994
17.532000 5323.807261 72.964425
17.536000 5386.513325 73.392870
17.540000 5572.395116 74.648477
17.544000 5463.509138 73.915554
17.548000 5619.390821 74.962596
17.552000 5533.609607 74.388236
17.556000 5691.564184 75.442456
17.560000 5746.615240 75.806433
17.564000 5707.176678 75.545858
17.568000 5658.353995 75.222031
17.572000 5828.239427 76.342907
17.576000 5752.305244 75.843953
17.580000 5725.791685 75.668961
17.584000 5675.903171 75.338590
17.588000 5650.287212 75.168392
17.592000 5672.179790 75.313875
17.596000 5532.648468 74.381775
17.600000 5611.474874 74.909778
17.604000 5665.202026 75.267536
17.608000 5650.877001 75.172315
17.612000 5552.458924 74.514824
17.616000 5647.062969 75.146943
17.620000 5559.916578 74.564848
17.624000 5437.031540 73.736229
17.628000 5550.787016 74.503604
17.632000 5604.145451 74.860841
17.636000 5610.921109 74.906082
17.640000 5651.232105 75.174677
17.644000 5531.756740 74.375781
17.648000 5590.069876 74.766770
17.652000 5597.399676 74.815772
17.656000 5638.601546 75.090622
17.660000 5500.435992 74.164924
17.664000 5618.612386 74.957404
17.668000 5745.987344 75.802291
17.672000 5706.842989 75.543650
17.676000 5784.332711 76.054801
17.680000 5812.059269 76.236863
17.684000 5830.558895 76.358096
17.688000 5899.295309 76.806870
17.692000 6002.843583 77.478020
17.696000 6213.332506 78.824695
17.700000 6498.064319 80.610572
17.704000 6697.490405 81.838196
17.708000 6850.410773 82.767208
17.712000 6994.533780 83.633329
17.716000 7145.976182 84.533876
17.720000 7167.916566 84.663549
17.724000 7199.826217 84.851790
17.728000 7263.440084 85.225818
17.732000 7365.217217 85.820844
17.736000 7385.934649 85.941461
17.740000 7360.334256 85.792390
17.744000 7400.165645 86.024215
17.748000 7586.390315 87.099887
17.752000 7587.500403 87.106259
17.756000 7922.248508 89.007014
17.760000 8567.153379 92.558918
17.764000 8916.357109 94.426464
17.768000 9578.450302 97.869558
17.772000 10384.913637 101.906396
17.776000 11059.648368 105.164863
17.780000 11464.621482 107.072973
17.784000 11768.759554 108.483914
17.788000 11650.601918 107.937954
17.792000 11269.968587 106.160108
17.796000 10778.735817 103.820691
17.800000 10134.797522 100.671731
17.804000 9427.943242 97.097596
17.808000 8757.718486 93.582683
17.812000 7969.084732 89.269730
17.816000 7502.075406 86.614522
17.820000 7027.098684 83.827792
17.824000 6743.879563 82.121127
17.828000 6315.627435 79.470922
17.832000 6091.691020 78.049286
17.836000 5863.604317 76.574175
17.840000 5820.012523 76.289007
17.844000 5740.828236 75.768253
17.848000 5536.075557 74.404809
17.852000 5597.609912 74.817177
17.856000 5520.462803 74.299817
17.860000 5517.567107 74.280328
17.864000 5322.075476 72.952556
17.868000 5254.959514 72.491100
17.872000 5322.909866 72.958275
17.876000 5312.778633 72.888810
17.880000 5404.123901 73.512747
17.884000 5279.081865 72.657291
17.888000 5295.876632 72.772774
17.892000 5250.774020 72.462225
17.896000 5315.019451 72.904180
17.900000 5346.001418 73.116355
17.904000 5316.959391 72.917483
17.908000 5219.302382 72.244739
17.912000 5354.446067 73.174081
17.916000 5409.590028 73.549915
17.920000 5381.167866 73.356444
17.924000 5416.164177 73.594593
17.928000 5276.567843 72.639988
17.932000 5291.684519 72.743966
17.936000 5341.109914 73.082898
17.940000 5433.221101 73.710387
17.944000 5423.204522 73.642410
17.948000 5419.297981 73.615881
17.952000 5505.990028 74.202359
17.956000 5520.226160 74.298224
17.960000 5590.403499 74.769001
17.964000 5800.606715 76.161714
17.968000 5899.102379 76.805614
17.972000 6129.426061 78.290651
17.976000 6267.565083 79.167955
17.980000 6341.011990 79.630471
17.984000 6425.337166 80.158201
17.988000 6417.164053 80.107204
17.992000 6403.685993 80.023034
17.996000 6281.988114 79.258994
18.000000 6208.684667 78.795207
18.004000 6258.314553 79.109510
18.008000 6105.578409 78.138201
18.012000 5933.886556 77.031724
18.016000 5843.721269 76.444236
18.020000 5732.132192 75.710846
18.024000 5635.193518 75.067926
18.028000 5748.090570 75.816163
18.032000 5566.324304 74.607803
18.036000 5507.563954 74.212964
18.040000 5495.096144 74.128916
18.044000 5524.361555 74.326049
18.048000 5394.225035 73.445388
18.052000 5528.563133 74.354308
18.056000 5477.496039 74.010108
18.060000 5384.822657 73.381351
18.064000 5373.160582 73.301846
18.068000 5462.804982 73.910791
18.072000 5509.076416 74.223153
18.076000 5568.413128 74.621801
18.080000 5478.332445 74.015758
18.084000 5468.052556 73.946282
18.088000 5481.198758 74.035118
18.092000 5602.835908 74.852094
18.096000 5548.319171 74.487040
18.100000 5590.237329 74.767890
18.104000 5588.904826 74.758978
18.108000 5558.544755 74.555649
18.112000 5626.883058 75.012553
18.116000 5617.470103 74.949784
18.120000 5419.720596 73.618752
18.124000 5495.548963 74.131970
18.128000 5640.273841 75.101757
18.132000 5707.682564 75.549206
18.136000 5619.913958 74.966085
18.140000 5684.720400 75.397085
18.144000 5682.444152 75.381988
18.148000 5594.697887 74.797713
18.152000 5685.873981 75.404734
18.156000 5616.757858 74.945032
18.160000 5762.431131 75.910679
18.164000 5781.275972 76.034702
18.168000 5921.231658 76.949540
18.172000 6072.221228 77.924458
18.176000 5932.198273 77.020765
18.180000 6128.095731 78.282155
18.184000 6308.199183 79.424173
18.188000 6611.316462 81.310002
18.192000 6923.331831 83.206561
18.196000 7086.948855 84.184018
18.200000 7520.728910 86.722136
18.204000 7729.233617 87.916060
18.208000 7722.216138 87.876141
18.212000 7889.083887 88.820515
18.216000 7933.324935 89.069214
18.220000 7766.058604 88.125244
18.224000 7641.555919 87.415993
18.228000 7517.961158 86.706177
18.232000 7348.670485 85.724387
18.236000 7190.468652 84.796631
18.240000 6940.147576 83.307548
18.244000 6672.832823 81.687409
18.248000 6580.185625 81.118343
18.252000 6395.862292 79.974135
18.256000 6227.716036 78.915879
18.260000 5981.395413 77.339482
18.264000 5986.697233 77.373750
18.268000 5902.616331 76.828486
18.272000 5806.423451 76.199891
18.276000 5834.716892 76.385319
18.280000 5776.149658 76.000985
18.284000 5787.754056 76.077290
18.288000 5778.516373 76.016553
18.292000 5772.947945 75.979918
18.296000 5705.678935 75.535945
18.300000 5905.163024 76.845059
18.304000 6033.028503 77.672572
18.308000 6088.651693 78.029813
18.312000 6234.078473 78.956181
18.316000 6200.023205 78.740226
18.320000 6248.462920 79.047220
18.324000 6376.582690 79.853508
18.328000 6559.534760 80.990955
18.332000 6563.170751 81.013399
18.336000 6522.838527 80.764092
18.340000 6631.667185 81.435049
18.344000 6910.548069 83.129706
18.348000 6907.426292 83.110928
18.352000 7139.888466 84.497861
18.356000 7410.642894 86.085091
18.360000 7611.120639 87.241737
18.364000 8049.135756 89.716976
18.368000 8555.734754 92.497215
18.372000 9033.154376 95.042908
18.376000 9514.739274 97.543525
18.380000 10037.835952 100.189001
18.384000 10485.824306 102.400314
18.388000 11321.289940 106.401550
18.392000 11647.088682 107.921678
18.396000 12296.809999 110.890982
18.400000 12821.364999 113.231466
18.404000 13103.418375 114.470164
18.408000 13206.217817 114.918309
18.412000 13458.615979 116.011275
18.416000 13347.816652 115.532751
18.420000 13236.405859 115.049580
18.424000 12798.590870 113.130857
18.428000 12390.778213 111.313873
18.432000 11666.148305 108.009945
18.436000 11115.034088 105.427862
18.440000 10285.267909 101.416310
18.444000 9734.584910 98.664000
18.448000 9300.184554 96.437464
18.452000 8819.424613 93.911792
18.456000 8503.801332 92.216058
18.460000 8212.283857 90.621652
18.464000 8135.299591 90.195896
18.468000 7808.949491 88.368261
18.472000 7576.944874 87.045648
18.476000 7551.017577 86.896591
18.480000 7424.849910 86.167569
18.484000 7236.855925 85.069712
18.488000 7035.492918 83.877845
18.492000 6656.669966 81.588418
18.496000 6549.787217 80.930756
18.500000 6299.978206 79.372402
18.504000 6121.367729 78.239170
18.508000 5861.458589 76.560163
18.512000 5804.967193 76.190335
18.516000 5629.657523 75.031044
18.520000 5733.108921 75.717296
18.524000 5638.371920 75.089093
18.528000 5553.264714 74.520230
18.532000 5540.506368 74.434578
18.536000 5321.847565 72.950994
18.540000 5336.773635 73.053225
18.544000 5420.652106 73.625078
18.548000 5283.108502 72.684995
18.552000 5267.183438 72.575364
18.556000 5287.600266 72.715887
18.560000 5251.310519 72.465927
18.564000 5224.400596 72.280015
18.568000 5271.205060 72.603065
18.572000 5208.423849 72.169411
18.576000 5258.576597 72.516044
18.580000 5253.763782 72.482852
18.584000 5127.378487 71.605715
18.588000 5251.165912 72.464929
18.592000 5209.220731 72.174931
18.596000 5308.108389 72.856766
18.600000 5302.539352 72.818537
18.604000 5315.686965 72.908758
18.608000 5380.116378 73.349277
18.612000 5443.331998 73.778940
18.616000 5456.908921 73.870894
18.620000 5422.785822 73.639567
18.624000 5485.895606 74.066832
18.628000 5572.942663 74.652144
18.632000 5529.199681 74.358588
18.636000 5580.859121 74.705148
18.640000 5585.507324 74.736252
18.644000 5682.129030 75.379898
18.648000 5724.962112 75.663479
18.652000 5737.794407 75.748230
18.656000 5763.146965 75.915393
18.660000 5778.093620 76.013773
18.664000 5764.984554 75.927495
18.668000 5831.601011 76.364920
18.672000 5665.725379 75.271013
18.676000 5667.480426 75.282670
18.680000 5537.591587 74.414996
18.684000 5513.107248 74.250301
18.688000 5465.220240 73.927128
18.692000 5325.056380 72.972984
18.696000 5270.096185 72.595428
18.700000 5306.096937 72.842961
18.704000 5274.009851 72.622378
18.708000 5343.247862 73.097523
18.712000 5207.048735 72.159883
18.716000 5251.429690 72.466749
18.720000 5334.042332 73.034528
18.724000 5283.236238 72.685874
18.728000 5099.907939 71.413640
18.732000 5184.645513 72.004483
18.736000 5183.659730 71.997637
18.740000 5210.736303 72.185430
18.744000 5332.738552 73.025602
18.748000 5261.471752 72.536003
18.752000 5239.893475 72.387108
18.756000 5161.150958 71.841151
18.760000 5260.257013 72.527629
18.764000 5290.193924 72.733719
18.768000 5301.534611 72.811638
18.772000 5255.295606 72.493418
18.776000 5194.676066 72.074101
18.780000 5171.331736 71.911972
18.784000 5143.195857 71.716078
18.788000 5111.173056 71.492469
18.792000 5083.351171 71.297624
18.796000 5053.670215 71.089171
18.800000 5150.394407 71.766248
18.804000 5210.166933 72.181486
18.808000 5195.782449 72.081776
18.812000 5126.280351 71.598047
18.816000 5308.275132 72.857911
18.820000 5153.781416 71.789842
18.824000 5216.462361 72.225081
18.828000 5179.192226 71.966605
18.832000 5127.094912 71.603735
18.836000 5185.890575 72.013128
18.840000 5173.893000 71.929778
18.844000 5137.868477 71.678926
18.848000 5225.020195 72.284301
18.852000 5218.921366 72.242102
18.856000 5292.479233 72.749428
18.860000 5103.230855 71.436901
18.864000 5204.049787 72.139100
18.868000 5234.723908 72.351392
18.872000 5245.221524 72.423902
18.876000 5157.150958 71.813306
18.880000 5224.598687 72.281385
18.884000 5109.580671 71.481331
18.888000 5207.424654 72.162488
18.892000 5145.574815 71.732662
18.896000 5129.416400 71.619944
18.900000 5157.082556 71.812830
18.904000 5116.981363 71.533079
18.908000 5048.034079 71.049518
18.912000 5146.698783 71.740496
18.916000 5206.829872 72.158367
18.920000 5199.700648 72.108950
18.924000 5095.000266 71.379271
18.928000 5147.766507 71.747937
18.932000 5207.885932 72.165684
18.936000 5192.748403 72.060727
18.940000 5159.969915 71.832931
18.944000 5248.789741 72.448532
18.948000 5169.304871 71.897878
18.952000 5100.604899 71.418519
18.956000 5198.128062 72.098045
18.960000 5224.895367 72.283438
18.964000 5165.054595 71.868314
18.968000 5218.900426 72.241958
18.972000 5148.575612 71.753576
18.976000 5093.017391 71.365379
18.980000 5121.811502 71.566832
18.984000 5318.111821 72.925385
18.988000 5293.804047 72.758532
18.992000 5299.584931 72.798248
18.996000 5372.276530 73.295815
19.000000 5310.299255 72.871800
19.004000 5237.394107 72.369843
19.008000 5250.216720 72.458379
19.012000 5443.248669 73.778375
19.016000 5387.312815 73.398316
19.020000 5303.665069 72.826266
19.024000 5242.508940 72.405172
19.028000 5291.607827 72.743438
19.032000 5232.000799 72.332571
19.036000 5215.093184 72.215602
19.040000 5271.238285 72.603294
19.044000 5217.405024 72.231607
19.048000 5142.175186 71.708962
19.052000 5255.707135 72.496256
19.056000 5220.621938 72.253871
19.060000 5197.820713 72.095913
19.064000 5260.571353 72.529796
19.068000 5254.635783 72.488867
19.072000 5144.699148 71.726558
19.076000 5128.521194 71.613694
19.080000 5098.803514 71.405907
19.084000 5176.947284 71.951006
19.088000 5111.979233 71.498107
19.092000 5166.786958 71.880366
19.096000 5195.956454 72.082983
19.100000 5206.931310 72.159069
19.104000 5088.775293 71.335652
19.108000 5134.571955 71.655928
19.112000 5120.662939 71.558808
19.116000 5130.669595 71.628693
19.120000 5020.047197 70.852291
19.124000 5061.272897 71.142624
19.128000 5219.115016 72.243443
19.132000 5277.743772 72.648082
19.136000 5089.850373 71.343187
19.140000 5131.548456 71.634827
19.144000 5062.069279 71.148220
19.148000 5181.208349 71.980611
19.152000 5162.870873 71.853120
19.156000 5129.903088 71.623342
19.160000 5276.503735 72.639547
19.164000 5178.615016 71.962595
19.168000 5077.496273 71.256552
19.172000 5114.425592 71.515212
19.176000 5093.007188 71.365308
19.180000 5064.862886 71.167850
19.184000 5105.086597 71.449889
19.188000 5060.780618 71.139164
19.192000 5242.053248 72.402025
19.196000 5129.697551 71.621907
19.200000 5173.715034 71.928541
19.204000 5080.922891 71.280593
19.208000 5115.691693 71.524064
19.212000 5235.518637 72.356884
19.216000 5199.619630 72.108388
19.220000 5186.545793 72.017677
19.224000 5108.309105 71.472436
19.228000 5208.371033 72.169045
19.232000 5176.266968 71.946278
19.236000 5235.457934 72.356464
19.240000 5232.588800 72.336635
19.244000 5279.355964 72.659177
19.248000 5256.896985 72.504462
19.252000 5256.532481 72.501948
19.256000 5352.878627 73.163369
19.260000 5394.503195 73.447282
19.264000 5340.671991 73.079901
19.268000 5335.831574 73.046777
19.272000 5249.485091 72.453330
19.276000 5265.669697 72.564934
19.280000 5285.941522 72.704481
19.284000 5400.912407 73.490900
19.288000 5298.666315 72.791939
19.292000 5422.143237 73.635204
19.296000 5336.271579 73.049788
19.300000 5339.992051 73.075249
19.304000 5309.054047 72.863256
19.308000 5312.609458 72.887650
19.312000 5447.771682 73.809022
19.316000 5519.767813 74.295140
19.320000 5509.235623 74.224225
19.324000 5641.150897 75.107595
19.328000 5739.633653 75.760370
19.332000 5689.951593 75.431768
19.336000 5828.575349 76.345107
19.340000 5843.385783 76.442042
19.344000 5935.692840 77.043448
19.348000 5957.428647 77.184381
19.352000 5980.608626 77.334395
19.356000 5949.454884 77.132710
19.360000 6016.244143 77.564452
19.364000 6061.787872 77.857484
19.368000 5948.965655 77.129538
19.372000 5939.307263 77.066901
19.376000 5968.152458 77.253818
19.380000 5918.102948 76.929207
19.384000 5944.739617 77.102138
19.388000 5895.177003 76.780056
19.392000 5724.187700 75.658362
19.396000 5667.234558 75.281037
19.400000 5606.059356 74.873623
19.404000 5556.779553 74.543810
19.408000 5387.266436 73.398000
19.412000 5425.308573 73.656694
19.416000 5416.803781 73.598939
19.420000 5337.918552 73.061060
19.424000 5404.738019 73.516923
19.428000 5286.715146 72.709801
19.432000 5229.533014 72.315510
19.436000 5295.735693 72.771806
19.440000 5249.679712 72.454674
19.444000 5156.869443 71.811346
19.448000 5273.097169 72.616094
19.452000 5150.766460 71.768840
19.456000 5278.026092 72.650025
19.460000 5241.643066 72.399192
19.464000 5199.079606 72.104643
19.468000 5262.953408 72.546216
19.472000 5127.671978 71.607765
19.476000 5158.781275 71.824656
19.480000 5135.142814 71.659911
19.484000 5180.426518 71.975180
19.488000 5158.992281 71.826125
19.492000 5147.891374 71.748807
19.496000 5317.262513 72.919562
19.500000 5104.949960 71.448933
19.504000 5147.222530 71.744146
19.508000 5099.312833 71.409473
19.512000 5033.908970 70.950046
19.516000 5121.919329 71.567586
19.520000 5138.618666 71.684159
19.524000 5148.819665 71.755276
19.528000 5109.646432 71.481791
19.532000 5200.908741 72.117326
19.536000 5216.585463 72.225933
19.540000 5219.483279 72.245991
19.544000 5213.211764 72.202574
19.548000 5155.711804 71.803285
19.552000 5147.866375 71.748633
19.556000 5051.491214 71.073843
19.560000 5000.282406 70.712675
19.564000 5140.781416 71.699243
19.568000 5087.074794 71.323732
19.572000 5178.311235 71.960484
19.576000 5074.400490 71.234826
19.580000 5121.780219 71.566614
19.584000 5103.542599 71.439083
19.588000 5178.095821 71.958987
19.592000 5095.364217 71.381820
19.596000 5090.085441 71.344835
19.600000 5191.896166 72.054814
19.604000 5142.372105 71.710335
19.608000 5081.371938 71.283742
19.612000 5145.363951 71.731192
19.616000 5115.227575 71.520819
19.620000 5259.797923 72.524464
19.624000 5188.450359 72.030899
19.628000 5147.854633 71.748551
19.632000 5168.249830 71.890541
19.636000 5126.807333 71.601727
19.640000 5162.673254 71.851745
19.644000 5093.987737 71.372178
19.648000 5217.979499 72.235583
19.652000 5258.747139 72.517220
19.656000 5275.876464 72.635229
19.660000 5273.920149 72.621761
19.664000 5224.904153 72.283498
19.668000 5265.840813 72.566113
19.672000 5095.585620 71.383371
19.676000 5233.962385 72.346129
19.680000 5084.357295 71.304679
19.684000 5221.829132 72.262225
19.688000 5275.121373 72.630031
19.692000 5341.773962 73.087441
19.696000 5291.476462 72.742535
19.700000 5326.873860 72.985436
19.704000 5321.099840 72.945869
19.708000 5459.055120 73.885419
19.712000 5527.747897 74.348826
19.716000 5567.008520 74.612389
19.720000 5744.141869 75.790117
19.724000 5882.809372 76.699474
19.728000 5835.933440 76.393281
19.732000 6021.753527 77.599958
19.736000 6182.121406 78.626468
19.740000 6503.435411 80.643880
19.744000 6826.017035 82.619713
19.748000 7006.526512 83.704997
19.752000 7356.598690 85.770617
19.756000 7592.980831 87.137712
19.760000 7920.003617 88.994402
19.764000 8210.759640 90.613242
19.768000 8432.157532 91.826780
19.772000 8496.610756 92.177062
19.776000 8632.891592 92.913355
19.780000 8749.002929 93.536105
19.784000 8692.504468 93.233602
19.788000 8417.841851 91.748798
19.792000 8327.256019 91.253800
19.796000 8112.397764 90.068850
19.800000 7884.951291 88.797248
19.804000 7545.778488 86.866441
19.808000 7050.946752 83.969916
19.812000 6804.524355 82.489541
19.816000 6505.897764 80.659146
19.820000 6320.504382 79.501600
19.824000 6118.490209 78.220779
19.828000 6076.403088 77.951287
19.832000 5891.632203 76.756968
19.836000 5803.763449 76.182435
19.840000 5802.070554 76.171324
19.844000 5929.680284 77.004417
19.848000 5818.759585 76.280794
19.852000 5880.596916 76.685050
19.856000 5892.615160 76.763371
19.860000 6062.674121 77.863176
19.864000 6111.490537 78.176023
19.868000 6223.577150 78.889652
19.872000 6258.385517 79.109958
19.876000 6533.698355 80.831296
19.880000 6765.857314 82.254832
19.884000 6813.389944 82.543261
19.888000 6714.796592 81.943862
19.892000 6941.162673 83.313640
19.896000 7077.863987 84.130042
19.900000 7289.977053 85.381362
19.904000 7080.340522 84.144759
19.908000 7216.234824 84.948424
19.912000 7288.198342 85.370946
19.916000 7157.110756 84.599709
19.920000 7029.055911 83.839465
19.924000 7068.456896 84.074115
19.928000 6892.373003 83.020317
19.932000 6784.692130 82.369243
19.936000 6790.921725 82.407049
19.940000 6613.371406 81.322638
19.944000 6594.591137 81.207088
19.948000 6325.923056 79.535672
19.952000 6172.979239 78.568309
19.956000 6185.626198 78.648752
19.960000 6136.840256 78.337987
19.964000 5909.916667 76.875982
19.968000 5679.724707 75.363948
19.972000 5619.785982 74.965232
19.976000 5592.460413 74.782755
19.980000 5462.802183 73.910772
19.984000 5429.330669 73.683992
19.988000 5541.003727 74.437919
19.992000 5491.342652 74.103594
19.996000 5437.912125 73.742200
20.000000 5527.280351 74.345681
20.004000 5491.031781 74.101496
20.008000 5494.198590 74.122861
20.012000 5590.606763 74.770360
20.016000 5601.559105 74.843564
20.020000 5761.761361 75.906267
20.024000 5770.126731 75.961350
20.028000 6080.169999 77.975445
20.032000 6119.630724 78.228069
20.036000 6331.621406 79.571486
20.040000 6690.691529 81.796647
20.044000 7041.818956 83.915547
20.048000 7328.405751 85.606108
20.052000 7848.653713 88.592628
20.056000 8235.751597 90.751042
20.060000 8621.824015 92.853778
20.064000 8821.635503 93.923562
20.068000 9104.342652 95.416679
20.072000 9124.764643 95.523634
20.076000 9126.339191 95.531875
20.080000 9072.284665 95.248542
20.084000 8974.385783 94.733235
20.088000 8749.363228 93.538031
20.092000 8695.716454 93.250825
20.096000 8377.226837 91.527192
20.100000 8168.175985 90.377962
20.104000 7978.299647 89.321328
20.108000 7754.385517 88.058989
20.112000 7622.250532 87.305501
20.116000 7228.473110 85.020428
20.120000 7016.791135 83.766289
20.124000 6793.468317 82.422499
20.128000 6644.351432 81.512891
20.132000 6386.744409 79.917110
20.136000 6107.185019 78.148481
20.140000 6058.425186 77.835886
20.144000 5888.219382 76.734734
20.148000 5759.460341 75.891108
20.152000 5673.672524 75.323785
20.156000 5461.143237 73.899548
20.160000 5462.402556 73.908068
20.164000 5344.550586 73.106433
20.168000 5307.028175 72.849353
20.172000 5311.005591 72.876646
20.176000 5183.954714 71.999686
20.180000 5209.843717 72.179247
20.184000 5330.006656 73.006895
20.188000 5299.744586 72.799345
20.192000 5199.763312 72.109384
20.196000 5280.045527 72.663922
20.200000 5219.199636 72.244028
20.204000 5251.097444 72.464456
20.208000 5195.985623 72.083185
20.212000 5219.653621 72.247170
20.216000 5213.262780 72.202928
20.220000 5181.008983 71.979226
20.224000 5195.287806 72.078345
20.228000 5137.309105 71.675024
20.232000 5200.827848 72.116765
20.236000 5296.200745 72.775001
20.240000 5345.348166 73.111888
20.244000 5318.697551 72.929401
20.248000 5402.787540 73.503657
20.252000 5398.031715 73.471299
20.256000 5505.662141 74.200149
20.260000 5601.219915 74.841298
20.264000 5724.605875 75.661125
20.268000 5871.169019 76.623554
20.272000 5910.103301 76.877196
20.276000 6041.324281 77.725956
20.280000 6094.832659 78.069409
20.284000 6356.956337 79.730523
20.288000 6462.556443 80.390027
20.292000 6722.484847 81.990761
20.296000 6886.239617 82.983370
20.300000 6970.794728 83.491285
20.304000 7132.212993 84.452430
20.308000 7357.089191 85.773476
20.312000 7171.793718 84.686444
20.316000 6809.882322 82.522011
20.320000 6824.416375 82.610026
20.324000 6741.355261 82.105757
20.328000 6521.223642 80.754094
20.332000 6389.930349 79.937040
20.336000 6160.258786 78.487316
20.340000 6023.551651 77.611543
20.344000 5835.224390 76.388640
20.348000 5803.421725 76.180192
20.352000 5833.305498 76.376079
20.356000 5587.923855 74.752417
20.360000 5485.588113 74.064756
20.364000 5366.750999 73.258112
20.368000 5428.697817 73.679697
20.372000 5365.963862 73.252740
20.376000 5445.020234 73.790380
20.380000 5384.755218 73.380891
20.384000 5348.421193 73.132901
20.388000 5325.577294 72.976553
20.392000 5252.602503 72.474840
20.396000 5324.430869 72.968698
20.400000 5457.609425 73.875635
20.404000 5393.576408 73.440972
20.408000 5358.158946 73.199446
20.412000 5287.418078 72.714635
20.416000 5332.558873 73.024372
20.420000 5313.410502 72.893144
20.424000 5360.070079 73.212499
20.428000 5326.035758 72.979694
20.432000 5170.009318 71.902777
20.436000 5196.374517 72.085883
20.440000 5208.660998 72.171054
20.444000 5303.805351 72.827229
20.448000 5019.991137 70.851896
20.452000 5156.488965 71.808697
20.456000 5150.095580 71.764166
20.460000 5282.552748 72.681172
20.464000 5229.308655 72.313959
20.468000 5355.826145 73.183510
20.472000 5122.231284 71.569765
20.476000 5215.879614 72.221047
20.480000 5354.974707 73.177693
20.484000 5397.475100 73.467511
20.488000 5527.871989 74.349660
20.492000 5484.620873 74.058226
20.496000 5549.642054 74.495920
20.500000 5787.887617 76.078168
20.504000 5913.625174 76.900099
20.508000 6027.992279 77.640146
20.512000 6335.823993 79.597889
20.516000 6686.239186 81.769427
20.520000 7089.814147 84.201034
20.524000 7364.690013 85.817772
20.528000 7792.548456 88.275413
20.532000 8180.473750 90.445971
20.536000 8655.263052 93.033666
20.540000 8902.335020 94.352186
20.544000 9087.744385 95.329662
20.548000 9200.389309 95.918660
20.552000 8939.895477 94.551020
20.556000 8830.483533 93.970653
20.560000 8726.337352 93.414867
20.564000 8393.539281 91.616261
20.568000 8119.988418 90.110978
20.572000 7910.983222 88.943708
20.576000 7785.217905 88.233882
20.580000 7209.133955 84.906619
20.584000 6876.323923 82.923603
20.588000 6701.066045 81.860039
20.592000 6615.448955 81.335410
20.596000 6478.390829 80.488452
20.600000 6266.798136 79.163111
20.604000 6135.820486 78.331478
20.608000 6183.164847 78.633103
20.612000 6130.391708 78.296818
20.616000 5960.250067 77.202656
20.620000 5830.783073 76.359564
20.624000 5793.050599 76.112092
20.628000 5670.417184 75.302173
20.632000 5523.451931 74.319930
20.636000 5519.591503 74.293953
20.640000 5442.763508 73.775087
20.644000 5355.914466 73.184113
20.648000 5374.928223 73.313902
20.652000 5296.840746 72.779398
20.656000 5224.996052 72.284134
20.660000 5170.110253 71.903479
20.664000 5307.030360 72.849368
20.668000 5315.798899 72.909525
20.672000 5324.839148 72.971495
20.676000 5269.439634 72.590906
20.680000 5160.805859 71.838749
20.684000 5203.203184 72.133232
20.688000 5117.051460 71.533569
20.692000 5289.700932 72.730330
20.696000 5249.806628 72.455549
20.700000 5119.688876 71.552001
20.704000 5078.881299 71.266270
20.708000 5136.886551 71.672077
20.712000 5116.782655 71.531690
20.716000 5103.360763 71.437810
20.720000 5062.974168 71.154579
20.724000 5092.086551 71.358858
20.728000 5092.825076 71.364032
20.732000 5107.859198 71.469288
20.736000 5053.399467 71.087267
20.740000 5137.490280 71.676288
20.744000 5064.411622 71.164680
20.748000 5124.507590 71.585666
20.752000 5239.440327 72.383978
20.756000 5028.462850 70.911655
20.760000 5105.328895 71.451584
20.764000 5059.514000 71.130261
20.768000 5123.729694 71.580233
20.772000 5145.900043 71.734929
20.776000 5089.312383 71.339417
20.780000 5125.933664 71.595626
20.784000 5086.424501 71.319173
20.788000 5175.391931 71.940197
20.792000 5208.071904 72.166972
20.796000 5193.690794 72.067266
20.800000 5201.817577 72.123627
20.804000 5192.741517 72.060679
20.808000 5295.674057 72.771382
20.812000 5439.151123 73.750601
20.816000 5521.083356 74.303993
20.820000 5555.599987 74.535897
20.824000 5537.930637 74.417274
20.828000 5738.566445 75.753326
20.832000 5873.648503 76.639732
20.836000 6082.042751 77.987453
20.840000 6237.449001 78.977522
20.844000 6401.741528 80.010884
20.848000 6604.197806 81.266216
20.852000 6625.341372 81.396200
20.856000 6881.052756 82.952111
20.860000 6849.940988 82.764370
20.864000 7012.516378 83.740769
20.868000 7070.137247 84.084108
20.872000 7206.133051 84.888945
20.876000 7556.652166 86.929006
20.880000 7849.116110 88.595238
20.884000 8115.377668 90.085391
20.888000 8341.216401 91.330260
20.892000 8814.355659 93.884800
20.896000 9131.503135 95.558899
20.900000 9248.892818 96.171164
20.904000 9378.906624 96.844755
20.908000 9684.027255 98.407455
20.912000 9804.750666 99.018941
20.916000 9799.111052 98.990459
20.920000 9535.317575 97.648951
20.924000 9352.066984 96.706086
20.928000 9190.061206 95.864807
20.932000 8915.422483 94.421515
20.936000 8572.227010 92.586322
20.940000 8447.613620 91.910900
20.944000 8408.471851 91.697720
20.948000 8135.599197 90.197556
20.952000 8195.623081 90.529681
20.956000 8220.950591 90.669458
20.960000 8356.204582 91.412278
20.964000 8370.731424 91.491701
20.968000 8552.899443 92.481887
20.972000 8345.542088 91.353939
20.976000 8294.691952 91.075199
20.980000 8203.107403 90.571008
20.984000 8076.973095 89.871982
20.988000 7682.343265 87.648978
20.992000 7498.149174 86.591854
20.996000 7309.673780 85.496630
21.000000 7203.295014 84.872228
21.004000 6960.371870 83.428843
21.008000 6699.103140 81.848049
21.012000 6398.873401 79.992958
21.016000 6144.605754 78.387536
21.020000 5975.541667 77.301628
21.024000 5887.972707 76.733127
21.028000 5652.154799 75.180814
21.032000 5499.934470 74.161543
21.036000 5512.826966 74.248414
21.040000 5442.179009 73.771126
21.044000 5474.809378 73.991955
21.048000 5253.147043 72.478597
21.052000 5202.439313 72.127937
21.056000 5261.620139 72.537026
21.060000 5146.508953 71.739173
21.064000 5078.859170 71.266115
21.068000 5102.240546 71.429970
21.072000 5163.354043 71.856482
21.076000 5143.702717 71.719612
21.080000 5117.085923 71.533810
21.084000 5009.871604 70.780446
21.088000 5167.234916 71.883482
21.092000 5049.034220 71.056556
21.096000 5007.093412 70.760818
21.100000 5081.101205 71.281843
21.104000 5163.576005 71.858027
21.108000 5058.734683 71.124782
21.112000 5075.729340 71.244153
21.116000 5178.529161 71.961998
21.120000 5179.180199 71.966521
21.124000 5160.138473 71.834104
21.128000 5220.424347 72.252504
21.132000 5172.863672 71.922623
21.136000 5311.595041 72.880690
21.140000 5300.348042 72.803489
21.144000 5224.977624 72.284007
21.148000 5267.006834 72.574147
21.152000 5247.564048 72.440072
21.156000 5373.773255 73.306025
21.160000 5370.063791 73.280719
21.164000 5408.627233 73.543370
21.168000 5456.295811 73.866744
21.172000 5489.915646 74.093965
21.176000 5386.983053 73.396070
21.180000 5333.420352 73.030270
21.184000 5332.065513 73.020994
21.188000 5320.386635 72.940980
21.192000 5419.160748 73.614949
21.196000 5475.311490 73.995348
21.200000 5315.470214 72.907271
21.204000 5325.134971 72.973522
21.208000 5358.192012 73.199672
21.212000 5347.937230 73.129592
21.216000 5383.148382 73.369942
21.220000 5236.662433 72.364787
21.224000 5299.057475 72.794625
21.228000 5432.834072 73.707761
21.232000 5370.219365 73.281781
21.236000 5375.242473 73.316045
21.240000 5405.807655 73.524198
21.244000 5405.544504 73.522408
21.248000 5434.379755 73.718246
21.252000 5590.136424 74.767215
21.256000 5640.904520 75.105955
21.260000 5636.172396 75.074446
21.264000 5804.350902 76.186291
21.268000 5949.355982 77.132068
21.272000 6427.337230 80.170676
21.276000 6653.279685 81.567639
21.280000 6989.074341 83.600684
21.284000 7544.803896 86.860831
21.288000 8081.630230 89.897888
21.292000 8244.647364 90.800041
21.296000 8587.637500 92.669507
21.300000 9108.124963 95.436497
21.304000 9695.091630 98.463656
21.308000 10360.994605 101.788971
21.312000 11338.062689 106.480339
21.316000 12672.160139 112.570690
21.320000 14169.257700 119.034691
21.324000 16252.942340 127.487028
21.328000 18455.011457 135.849223
21.332000 21027.161911 145.007455
21.336000 23867.579270 154.491357
21.340000 26795.071556 163.692002
21.344000 30015.609509 173.250136
21.348000 32534.600383 180.373502
21.352000 34906.665885 186.833257
21.356000 36410.462486 190.815257
21.360000 36791.600150 191.811366
21.364000 35817.629168 189.255460
21.368000 33957.138789 184.274629
21.372000 32111.660006 179.197266
21.376000 29620.169609 172.105112
21.380000 26759.712504 163.583962
21.384000 23938.538236 154.720840
21.388000 21266.599860 145.830723
21.392000 18704.400995 136.764034
21.396000 16566.576923 128.711215
21.400000 14492.978417 120.386787
21.404000 12869.657199 113.444512
21.408000 11430.485719 106.913450
21.412000 10381.852510 101.891376
21.416000 9627.264303 98.118624
21.420000 8739.074341 93.483016
21.424000 8015.854581 89.531305
21.428000 7518.878243 86.711465
21.432000 7295.390936 85.413061
21.436000 7122.101040 84.392541
21.440000 6709.865478 81.913769
21.444000 6580.781112 81.122014
21.448000 6517.488298 80.730962
21.452000 6471.153178 80.443478
21.456000 6480.567235 80.501970
21.460000 6448.915940 80.305143
21.464000 6502.791814 80.639890
21.468000 6455.555355 80.346471
21.472000 6555.644703 80.966936
21.476000 6549.284940 80.927653
21.480000 6465.122530 80.405986
21.484000 6435.952267 80.224387
21.488000 6518.730810 80.738657
21.492000 6420.921889 80.130655
21.496000 6506.436793 80.662487
21.500000 6327.183528 79.543595
21.504000 6293.523753 79.331732
21.508000 6256.885235 79.100476
21.512000 6250.607942 79.060786
21.516000 6296.191879 79.348547
21.520000 6297.371721 79.355981
21.524000 6211.521946 78.813209
21.528000 6244.680171 79.023289
21.532000 6130.524039 78.297663
21.536000 6070.914150 77.916071
21.540000 6088.701226 78.030130
21.544000 6107.938096 78.153299
21.548000 6190.372884 78.678923
21.552000 6152.262433 78.436359
21.556000 6162.261333 78.500072
21.560000 6198.058751 78.727751
21.564000 6334.083647 79.586957
21.568000 6381.130921 79.881981
21.572000 6455.479272 80.345997
21.576000 6451.235631 80.319584
21.580000 6666.131303 81.646380
21.584000 6563.807591 81.017329
21.588000 6616.887656 81.344254
21.592000 6628.716151 81.416928
21.596000 6479.323890 80.494248
21.600000 6379.543897 79.872047
21.604000 6237.787528 78.979665
21.608000 6165.765527 78.522389
21.612000 5989.834587 77.394022
21.616000 5952.859425 77.154776
21.620000 5982.326911 77.345503
21.624000 5794.590647 76.122209
21.628000 5779.456241 76.022735
21.632000 5651.849254 75.178782
21.636000 5780.734264 76.031140
21.640000 5712.384697 75.580320
21.644000 5624.006705 74.993378
21.648000 5690.520087 75.435536
21.652000 5514.416570 74.259118
21.656000 5633.714139 75.058072
21.660000 5711.724058 75.575949
21.664000 5742.634941 75.780175
21.668000 5774.256961 75.988532
21.672000 5635.055838 75.067009
21.676000 5682.956969 75.385390
21.680000 5793.594990 76.115668
21.684000 5709.075972 75.558428
21.688000 5669.114802 75.293524
21.692000 5702.564576 75.515327
21.696000 5549.449364 74.494626
21.700000 5520.338347 74.298979
21.704000 5529.279301 74.359124
21.708000 5530.230375 74.365519
21.712000 5470.925234 73.965703
21.716000 5460.206959 73.893213
21.720000 5527.812655 74.349261
21.724000 5436.306550 73.731313
21.728000 5388.645627 73.407395
21.732000 5561.647616 74.576455
21.736000 5563.581608 74.589420
21.740000 5328.167119 72.994295
21.744000 5500.479872 74.165220
21.748000 5441.318267 73.765292
21.752000 5427.284823 73.670108
21.756000 5505.231525 74.197247
21.760000 5605.659557 74.870953
21.764000 5629.540855 75.030266
21.768000 5562.501423 74.582179
21.772000 5719.031688 75.624280
21.776000 5874.399155 76.644629
21.780000 5923.826493 76.966398
21.784000 5964.184484 77.228133
21.788000 6084.500386 78.003208
21.792000 6324.645609 79.527641
21.796000 6308.996833 79.429194
21.800000 6532.960492 80.826731
21.804000 6688.001506 81.780202
21.808000 6833.302398 82.663791
21.812000 7153.630501 84.579138
21.816000 7563.225958 86.966810
21.820000 7840.124079 88.544475
21.824000 8234.634462 90.744887
21.828000 8503.457415 92.214193
21.832000 8971.768367 94.719419
21.836000 9309.762510 96.487111
21.840000 9787.698214 98.932796
21.844000 9994.175429 99.970873
21.848000 10545.566916 102.691611
21.852000 10684.849911 103.367548
21.856000 11188.391071 105.775191
21.860000 11386.923059 106.709527
21.864000 11492.514902 107.203148
21.868000 11635.386700 107.867450
21.872000 11629.903733 107.842031
21.876000 11801.993135 108.636979
21.880000 11669.260017 108.024349
21.884000 11449.144228 107.000674
21.888000 11148.752866 105.587655
21.892000 10910.105039 104.451448
21.896000 10616.211144 103.035000
21.900000 10289.386297 101.436612
21.904000 10101.062650 100.504043
21.908000 9701.686484 98.497139
21.912000 9533.674220 97.640536
21.916000 9467.159691 97.299330
21.920000 9335.876833 96.622341
21.924000 9165.117569 95.734621
21.928000 8767.211943 93.633391
21.932000 8558.562517 92.512499
21.936000 8523.670488 92.323727
21.940000 8489.671554 92.139414
21.944000 8480.188800 92.087941
21.948000 8277.668888 90.981695
21.952000 8150.175953 90.278325
21.956000 7976.500666 89.311257
21.960000 7638.058667 87.395988
21.964000 7473.612903 86.450060
21.968000 7290.359371 85.383601
21.972000 7260.000000 85.205634
21.976000 6990.476800 83.609071
21.980000 6823.364436 82.603659
21.984000 6696.602667 81.832773
21.988000 6495.442815 80.594310
21.992000 6444.545600 80.277927
21.996000 6304.664889 79.401920
22.000000 6152.186667 78.435876
22.004000 6236.686217 78.972693
22.008000 6002.573333 77.476276
22.012000 5900.943748 76.817601
22.016000 5982.585600 77.347176
22.020000 5922.632898 76.958644
22.024000 5979.101333 77.324649
22.028000 6116.297521 78.206761
22.032000 5823.739733 76.313431
22.036000 6058.985600 77.839486
22.040000 5936.243200 77.047019
22.044000 6031.056533 77.659877
22.048000 5952.397227 77.151780
22.052000 5848.084267 76.472768
22.056000 6086.300800 78.014747
22.060000 6069.829333 77.909109
22.064000 6105.296000 78.136394
22.068000 6076.191416 77.949929
22.072000 6021.126400 77.595917
22.076000 6140.587733 78.361902
22.080000 6158.274704 78.474676
22.084000 6179.245811 78.608179
22.088000 6074.962096 77.942043
22.092000 6162.164303 78.499454
22.096000 6395.023467 79.968891
22.100000 6395.007028 79.968788
22.104000 6457.025660 80.355620
22.108000 6415.190066 80.094882
22.112000 6749.469662 82.155156
22.116000 6936.917055 83.288157
22.120000 7047.498736 83.949382
22.124000 7253.846865 85.169518
22.128000 7259.182823 85.200838
22.132000 7690.496934 87.695478
22.136000 7825.041045 88.459262
22.140000 7908.896828 88.931979
22.144000 8233.229539 90.737145
22.148000 8373.347907 91.505999
22.152000 8372.752866 91.502748
22.156000 8276.942682 90.977704
22.160000 8352.005330 91.389306
22.164000 8230.024527 90.719483
22.168000 8101.014663 90.005637
22.172000 7890.928819 88.830900
22.176000 7675.034115 87.607272
22.180000 7436.013863 86.232325
22.184000 7068.798507 84.076147
22.188000 6843.167155 82.723438
22.192000 6540.296375 80.872099
22.196000 6443.562250 80.271802
22.200000 6491.984004 80.572849
22.204000 6250.449893 79.059787
22.208000 6000.093842 77.460273
22.212000 6069.675373 77.908121
22.216000 5936.338043 77.047635
22.220000 5794.737740 76.123175
22.224000 5837.953092 76.406499
22.228000 5834.263930 76.382354
22.232000 5632.852345 75.052331
22.236000 5754.189283 75.856373
22.240000 5712.220682 75.579234
22.244000 5754.312450 75.857185
22.248000 5722.471215 75.647017
22.252000 5823.152985 76.309586
22.256000 5918.733138 76.933303
22.260000 6177.104478 78.594558
22.264000 6248.633262 79.048297
22.268000 6372.989339 79.831005
22.272000 6544.238806 80.896470
22.276000 6780.408958 82.343239
22.280000 7017.969616 83.773323
22.284000 7140.792111 84.503208
22.288000 7428.363539 86.187955
22.292000 7519.027186 86.712324
22.296000 7486.623134 86.525275
22.300000 7135.026119 84.469084
22.304000 7237.621002 85.074209
22.308000 7199.683902 84.850951
22.312000 6904.245736 83.091791
22.316000 6591.843817 81.190171
22.320000 6524.248934 80.772823
22.324000 6380.152985 79.875860
22.328000 6263.615139 79.143004
22.332000 5980.441248 77.333313
22.336000 5894.343004 76.774625
22.340000 5853.966394 76.511217
22.344000 5765.514513 75.930985
22.348000 5628.833457 75.025552
22.352000 5653.159924 75.187498
22.356000 5540.100080 74.431849
22.360000 5497.815296 74.147254
22.364000 5435.947300 73.728877
22.368000 5505.373438 74.198204
22.372000 5519.165727 74.291088
22.376000 5364.566254 73.243199
22.380000 5305.130934 72.836330
22.384000 5394.476339 73.447099
22.388000 5407.372923 73.534842
22.392000 5436.888670 73.735261
22.396000 5252.166886 72.471835
22.400000 5225.423298 72.287089
22.404000 5362.575785 73.229610
22.408000 5252.052023 72.471043
22.412000 5283.695427 72.689032
22.416000 5177.720361 71.956378
22.420000 5218.142555 72.236712
22.424000 5348.053244 73.130385
22.428000 5307.081399 72.849718
22.432000 5243.897835 72.414763
22.436000 5158.172457 71.820418
22.440000 5161.741833 71.845263
22.444000 5260.809179 72.531436
22.448000 5249.623086 72.454283
22.452000 5338.991028 73.068400
22.456000 5291.513841 72.742792
22.460000 5225.696644 72.288980
22.464000 5321.874447 72.951179
22.468000 5229.504530 72.315313
22.472000 5228.989983 72.311755
22.476000 5352.919690 73.163650
22.480000 5292.372500 72.748694
22.484000 5295.166348 72.767894
22.488000 5277.402519 72.645733
22.492000 5406.357241 73.527935
22.496000 5293.982455 72.759758
22.500000 5349.525669 73.140452
22.504000 5352.684549 73.162043
22.508000 5366.170328 73.254149
22.512000 5381.124761 73.356150
22.516000 5401.509903 73.494965
22.520000 5520.685430 74.301315
22.524000 5551.992718 74.511695
22.528000 5688.346621 75.421128
22.532000 5790.411630 76.094754
22.536000 5937.628797 77.056011
22.540000 5919.081672 76.935568
22.544000 6331.544338 79.571002
22.548000 6418.260224 80.114045
22.552000 6622.898234 81.381191
22.556000 6871.847079 82.896605
22.560000 7429.528995 86.194716
22.564000 7808.970555 88.368380
22.568000 8191.125519 90.504837
22.572000 8729.154612 93.429945
22.576000 9756.898938 98.777016
22.580000 10574.599702 102.832873
22.584000 11549.424267 107.468248
22.588000 12669.329197 112.558115
22.592000 13788.433260 117.424160
22.596000 14953.411138 122.284141
22.600000 16199.777450 127.278346
22.604000 17060.765328 130.616865
22.608000 17676.048247 132.951300
22.612000 18018.957948 134.234712
22.616000 18270.722622 135.169237
22.620000 17941.060601 133.944244
22.624000 17598.612713 132.659763
22.628000 16996.636518 130.371149
22.632000 15969.415355 126.370152
22.636000 15061.389979 122.724855
22.640000 14379.702908 119.915399
22.644000 13506.997037 116.219607
22.648000 12468.882859 111.664152
22.652000 11833.391592 108.781394
22.656000 11264.904606 106.136255
22.660000 10609.053067 103.000258
22.664000 10146.223554 100.728464
22.668000 9964.173115 99.820705
22.672000 9877.662756 99.386431
22.676000 9797.819518 98.983936
22.680000 9694.364508 98.459964
22.684000 9697.267786 98.474706
22.688000 9686.205683 98.418523
22.692000 9439.795952 97.158612
22.696000 9376.850521 96.834139
22.700000 9294.438849 96.407670
22.704000 8870.212454 94.181805
22.708000 8479.112898 92.082099
22.712000 8228.046211 90.708578
22.716000 7879.485108 88.766464
22.720000 7507.507594 86.645875
22.724000 7377.683936 85.893445
22.728000 7072.203587 84.096395
22.732000 6785.669845 82.375177
22.736000 6653.457442 81.568728
22.740000 6561.738768 81.004560
22.744000 6483.465831 80.519972
22.748000 6274.279972 79.210353
22.752000 6214.585509 78.832642
22.756000 6133.090048 78.314048
22.760000 5994.316132 77.422969
22.764000 5946.771372 77.115312
22.768000 6007.340120 77.507033
22.772000 5878.159657 76.669157
22.776000 5843.196299 76.440803
22.780000 5983.478420 77.352947
22.784000 5812.511376 76.239828
22.788000 5779.764784 76.024764
22.792000 5964.760214 77.231860
22.796000 5834.575559 76.384393
22.800000 5847.723150 76.470407
22.804000 5958.732979 77.192830
22.808000 6063.623657 77.869273
22.812000 6091.087998 78.045423
22.816000 6019.219999 77.583632
22.820000 6140.819513 78.363381
22.824000 6134.463448 78.322816
22.828000 6172.811303 78.567241
22.832000 6195.118602 78.709076
22.836000 6252.584114 79.073283
22.840000 6387.241909 79.920222
22.844000 6420.910380 80.130583
22.848000 6402.810136 80.017561
22.852000 6318.729767 79.490438
22.856000 6161.165690 78.493093
22.860000 6085.584758 78.010158
22.864000 5996.441971 77.436697
22.868000 5808.801916 76.215497
22.872000 5805.581575 76.194367
22.876000 5767.865210 75.946463
22.880000 5584.643703 74.730474
22.884000 5630.611322 75.037399
22.888000 5579.480288 74.695919
22.892000 5448.579895 73.814497
22.896000 5410.524148 73.556265
22.900000 5427.091929 73.668799
22.904000 5341.979223 73.088845
22.908000 5264.887587 72.559545
22.912000 5473.198913 73.981071
22.916000 5296.252752 72.775358
22.920000 5297.606223 72.784657
22.924000 5271.309461 72.603784
22.928000 5275.296416 72.631236
22.932000 5418.463772 73.610215
22.936000 5369.489867 73.276803
22.940000 5277.203728 72.644365
22.944000 5352.562863 73.161211
22.948000 5334.463415 73.037411
22.952000 5383.146228 73.369927
22.956000 5366.504773 73.256432
22.960000 5307.557006 72.852982
22.964000 5380.289600 73.350457
22.968000 5306.161064 72.843401
22.972000 5310.523175 72.873337
22.976000 5319.679887 72.936136
22.980000 5298.973400 72.794048
22.984000 5373.042359 73.301039
22.988000 5334.838336 73.039978
22.992000 5393.054026 73.437416
22.996000 5457.659201 73.875972
23.000000 5463.904102 73.918226
23.004000 5544.898716 74.464077
23.008000 5494.570509 74.125370
23.012000 5455.231184 73.859537
23.016000 5667.047138 75.279792
23.020000 5720.049613 75.631010
23.024000 5896.944827 76.791567
23.028000 5979.275130 77.325773
23.032000 6194.836408 78.707283
23.036000 6353.949912 79.711667
23.040000 6780.656699 82.344743
23.044000 7010.798227 83.730510
23.048000 7505.381558 86.633605
23.052000 7997.399201 89.428179
23.056000 8708.430400 93.318971
23.060000 9092.341726 95.353771
23.064000 9802.383431 99.006987
23.068000 10584.260973 102.879838
23.072000 11462.430958 107.062743
23.076000 12400.992905 111.359745
23.080000 13024.658297 114.125625
23.084000 13559.258322 116.444228
23.088000 14352.909636 119.803629
23.092000 15030.118094 122.597382
23.096000 15225.685752 123.392406
23.100000 15654.724116 125.118840
23.104000 15811.464573 125.743646
23.108000 15702.391775 125.309185
23.112000 15163.647156 123.140762
23.116000 14541.706791 120.588999
23.120000 13883.180827 117.826910
23.124000 12903.726713 113.594572
23.128000 12209.899079 110.498412
23.132000 11238.548602 106.012021
23.136000 10336.152555 101.666870
23.140000 9850.960586 99.252005
23.144000 9279.260442 96.328918
23.148000 8901.209936 94.346224
23.152000 8548.749985 92.459450
23.156000 8327.102092 91.252957
23.160000 8394.590679 91.621999
23.164000 8529.856689 92.357223
23.168000 8855.839414 94.105470
23.172000 8884.687982 94.258623
23.176000 9261.932256 96.238933
23.180000 9538.177097 97.663591
23.184000 9850.032496 99.247330
23.188000 9892.764847 99.462379
23.192000 10109.088665 100.543964
23.196000 10023.072170 100.115294
23.200000 9969.433618 99.847051
23.204000 9695.028742 98.463337
23.208000 9356.670076 96.729882
23.212000 8916.971505 94.429717
23.216000 8416.122878 91.739429
23.220000 8023.541071 89.574221
23.224000 7744.757552 88.004304
23.228000 7406.424501 86.060586
23.232000 7163.656057 84.638384
23.236000 6915.060060 83.156840
23.240000 6644.757923 81.515385
23.244000 6601.708333 81.250897
23.248000 6396.759305 79.979743
23.252000 6388.136085 79.925816
23.256000 6359.546651 79.746766
23.260000 6411.548325 80.072145
23.264000 6450.056724 80.312245
23.268000 6682.209134 81.744780
23.272000 6844.039610 82.728711
23.276000 7126.195739 84.416798
23.280000 7684.502513 87.661294
23.284000 8079.047177 89.883520
23.288000 8913.426099 94.410943
23.292000 9817.850352 99.085066
23.296000 10786.405922 103.857623
23.300000 11757.013100 108.429761
23.304000 12901.299719 113.583888
23.308000 14289.170706 119.537319
23.312000 15224.257340 123.386617
23.316000 16434.786336 128.198231
23.320000 16674.448388 129.129580
23.324000 16871.044462 129.888585
23.328000 16767.166588 129.488094
23.332000 16346.994287 127.855365
23.336000 15790.447403 125.660047
23.340000 15128.738106 122.998935
23.344000 14081.957133 118.667422
23.348000 13322.083333 115.421330
23.352000 12182.691317 110.375230
23.356000 11388.467802 106.716764
23.360000 10464.231588 102.294827
23.364000 9788.575612 98.937231
23.368000 9070.206962 95.237634
23.372000 8328.292775 91.259480
23.376000 7862.598775 88.671296
23.380000 7457.691608 86.357927
23.384000 7017.477475 83.770385
23.388000 6727.403621 82.020751
23.392000 6363.720916 79.772933
23.396000 6085.621290 78.010392
23.400000 6032.499201 77.669165
23.404000 5774.785921 75.992012
23.408000 5791.624601 76.102724
23.412000 5693.546874 75.455595
23.416000 5452.288248 73.839612
23.420000 5446.204739 73.798406
23.424000 5448.605301 73.814669
23.428000 5415.975772 73.593313
23.432000 5380.555644 73.352271
23.436000 5482.495347 74.043874
23.440000 5392.783280 73.435572
23.444000 5378.024482 73.335015
23.448000 5339.358892 73.070917
23.452000 5307.521839 72.852741
23.456000 5289.777689 72.730858
23.460000 5402.033256 73.498526
23.464000 5494.074959 74.122027
23.468000 5600.546420 74.836799
23.472000 5680.829073 75.371275
23.476000 5719.085463 75.624635
23.480000 5728.228884 75.685064
23.484000 5709.936102 75.564119
23.488000 5782.331213 76.041641
23.492000 5995.550053 77.430937
23.496000 5946.637825 77.114446
23.500000 5911.254260 76.884682
23.504000 5899.026890 76.805123
23.508000 6028.532093 77.643622
23.512000 6086.371672 78.015202
23.516000 6032.412407 77.668606
23.520000 5902.785374 76.829587
23.524000 5911.097178 76.883660
23.528000 6054.787945 77.812518
23.532000 5951.925453 77.148723
23.536000 5780.276630 76.028131
23.540000 5761.637438 75.905451
23.544000 5634.791267 75.065247
23.548000 5561.376034 74.574634
23.552000 5553.889482 74.524422
23.556000 5436.099574 73.729910
23.560000 5393.815564 73.442600
23.564000 5360.148562 73.213035
23.568000 5390.486488 73.419932
23.572000 5404.333333 73.514171
23.576000 5338.171836 73.062794
23.580000 5258.301486 72.514147
23.584000 5381.697767 73.360056
23.588000 5313.090598 72.890950
23.592000 5343.875666 73.101817
23.596000 5328.526016 72.996753
23.600000 5267.461129 72.577277
23.604000 5402.685282 73.502961
23.608000 5350.276624 73.145585
23.612000 5375.265733 73.316204
23.616000 5479.714058 74.025091
23.620000 5466.891658 73.938432
23.624000 5514.769169 74.261492
23.628000 5561.132021 74.572998
23.632000 5630.696486 75.037967
23.636000 5520.855401 74.302459
23.640000 5685.603032 75.402938
23.644000 5658.502396 75.223018
23.648000 5809.333067 76.218981
23.652000 5705.045889 75.531754
23.656000 5763.478435 75.917577
23.660000 5834.481363 76.383777
23.664000 5906.412843 76.853190
23.668000 5989.129623 77.389467
23.672000 6102.383919 78.117757
23.676000 6394.682718 79.966760
23.680000 6587.543921 81.163686
23.684000 6707.030884 81.896464
23.688000 6978.705605 83.538647
23.692000 7057.093116 84.006506
23.696000 7184.660809 84.762379
23.700000 7379.021027 85.901228
23.704000 7742.372898 87.990755
23.708000 7995.750000 89.418958
23.712000 8429.463827 91.812112
23.716000 8671.226170 93.119419
23.720000 9063.255475 95.201132
23.724000 9673.296167 98.352916
23.728000 10298.311567 101.480597
23.732000 11079.818633 105.260717
23.736000 12094.415046 109.974611
23.740000 13318.927467 115.407658
23.744000 14428.964599 120.120625
23.748000 15597.395538 124.889533
23.752000 16835.402556 129.751310
23.756000 18384.207973 135.588377
23.760000 19257.836572 138.772607
23.764000 20016.619554 141.480103
23.768000 21268.223871 145.836291
23.772000 21375.822731 146.204729
23.776000 21396.447362 146.275245
23.780000 20814.813681 144.273399
23.784000 20365.330332 142.707149
23.788000 19477.603426 139.562185
23.792000 18608.006202 136.411166
23.796000 17275.378940 131.435836
23.800000 16285.665691 127.615304
23.804000 15283.882716 123.628001
23.808000 14291.496939 119.547049
23.812000 13501.451754 116.195748
23.816000 12675.006920 112.583333
23.820000 11993.185955 109.513405
23.824000 11287.782868 106.243978
23.828000 10956.053159 104.671167
23.832000 10655.384439 103.224922
23.836000 10192.084376 100.955854
23.840000 9859.564585 99.295340
23.844000 9651.109662 98.240061
23.848000 9111.121049 95.452192
23.852000 8881.970189 94.244205
23.856000 8824.946211 93.941185
23.860000 8266.529880 90.920459
23.864000 8065.171680 89.806301
23.868000 7816.373969 88.410259
23.872000 7407.814039 86.068659
23.876000 7164.281874 84.642081
23.880000 7090.711810 84.206364
23.884000 6988.984562 83.600147
23.888000 6739.948675 82.097190
23.892000 6531.764972 80.819335
23.896000 6350.262710 79.688536
23.900000 6258.109596 79.108214
23.904000 6073.059622 77.929838
23.908000 5999.485590 77.456346
23.912000 5998.868512 77.452363
23.916000 5964.303167 77.228901
23.920000 5745.848621 75.801376
23.924000 5634.306628 75.062019
23.928000 5624.353714 74.995691
23.932000 5586.583178 74.743449
23.936000 5507.000532 74.209167
23.940000 5487.169699 74.075432
23.944000 5510.043918 74.229670
23.948000 5413.170881 73.574254
23.952000 5563.472741 74.588690
23.956000 5517.594279 74.280511
23.960000 5578.263242 74.687772
23.964000 5481.901251 74.039863
23.968000 5649.864134 75.165578
23.972000 5692.515305 75.448759
23.976000 5510.212404 74.230805
23.980000 5625.055629 75.000371
23.984000 5612.897525 74.919273
23.988000 5634.927868 75.066157
23.992000 5584.409406 74.728906
23.996000 5731.422723 75.706160
24.000000 5715.431195 75.600471
24.004000 5505.226511 74.197214
24.008000 5427.314879 73.670312
24.012000 5403.822731 73.510698
24.016000 5519.598933 74.294003
24.020000 5364.477775 73.242595
24.024000 5288.108065 72.719379
24.028000 5226.526750 72.294721
24.032000 5310.898589 72.875912
24.036000 5299.669151 72.798827
24.040000 5363.671365 73.237090
24.044000 5276.858131 72.641986
24.048000 5238.751397 72.379219
24.052000 5239.478573 72.384243
24.056000 5208.715464 72.171431
24.060000 5077.875433 71.259213
24.064000 5093.923874 71.371730
24.068000 5115.967911 71.525995
24.072000 5168.664360 71.893424
24.076000 5171.693372 71.914487
24.080000 5087.752708 71.328485
24.084000 5070.104072 71.204663
24.088000 5280.273356 72.665489
24.092000 5261.049508 72.533092
24.096000 5232.683116 72.337287
24.100000 5146.033271 71.735858
24.104000 5098.505456 71.403820
24.108000 5207.642268 72.163996
24.112000 5224.199314 72.278623
24.116000 5346.851743 73.122170
24.120000 5395.756721 73.455815
24.124000 5351.526750 73.154130
24.128000 5428.443930 73.677975
24.132000 5397.338568 73.466581
24.136000 5440.101943 73.757047
24.140000 5479.933724 74.026574
24.144000 5476.398456 74.002692
24.148000 5549.483364 74.494855
24.152000 5667.428001 75.282322
24.156000 5790.241933 76.093639
24.160000 5825.564546 76.325386
24.164000 5913.824062 76.901392
24.168000 5985.828293 77.368135
24.172000 6142.390737 78.373406
24.176000 6305.160500 79.405041
24.180000 6385.363588 79.908470
24.184000 6607.102803 81.284087
24.188000 6890.078254 83.006495
24.192000 7123.511845 84.400900
24.196000 7432.583048 86.212430
24.200000 7829.455417 88.484210
24.204000 8100.579692 90.003220
24.208000 8545.574394 92.442276
24.212000 8707.920948 93.316242
24.216000 8962.523151 94.670603
24.220000 9339.771626 96.642494
24.224000 9274.367314 96.303517
24.228000 9584.786425 97.901922
24.232000 9826.023689 99.126302
24.236000 10013.647325 100.068213
24.240000 10068.574128 100.342285
24.244000 10127.639781 100.636175
24.248000 10189.596332 100.943530
24.252000 10256.598827 101.274868
24.256000 10284.300506 101.411540
24.260000 10209.062284 101.039904
24.264000 10258.496989 101.284239
24.268000 10202.849348 101.009155
24.272000 10330.361690 101.638387
24.276000 10081.649765 100.407419
24.280000 9996.950492 99.984751
24.284000 9792.641415 98.957776
24.288000 9919.994144 99.599167
24.292000 9724.924408 98.615031
24.296000 9627.098457 98.117778
24.300000 9200.297046 95.918179
24.304000 9128.896992 95.545261
24.308000 8865.042720 94.154356
24.312000 8623.924940 92.865090
24.316000 8451.021820 91.929439
24.320000 8194.993080 90.526201
24.324000 8053.778281 89.742845
24.328000 7946.391270 89.142533
24.332000 7796.036687 88.295168
24.336000 7489.880106 86.544093
24.340000 7442.070003 86.267433
24.344000 7202.040512 84.864837
24.348000 7123.801171 84.402614
24.352000 6897.989887 83.054138
24.356000 6769.569549 82.277394
24.360000 6621.295715 81.371345
24.364000 6343.377185 79.645321
24.368000 6261.014478 79.126573
24.372000 6109.418685 78.162770
24.376000 6009.051159 77.518070
24.380000 5807.878961 76.209441
24.384000 5685.311419 75.401004
24.388000 5590.308251 74.768364
24.392000 5555.700470 74.536571
24.396000 5433.921210 73.715136
24.400000 5404.438116 73.514884
24.404000 5297.410862 72.783314
24.408000 5343.243713 73.097495
24.412000 5251.953354 72.470362
24.416000 5292.655310 72.750638
24.420000 5260.501320 72.529314
24.424000 5275.051305 72.629548
24.428000 5467.269630 73.940987
24.432000 5462.195809 73.906670
24.436000 5480.947253 74.033420
24.440000 5518.265105 74.285026
24.444000 5691.532333 75.442245
24.448000 5871.413250 76.625148
24.452000 5986.319193 77.371307
24.456000 6124.136279 78.256861
24.460000 6266.025812 79.158233
24.464000 6283.771892 79.270246
24.468000 6692.518233 81.807813
24.472000 6691.755189 81.803149
24.476000 6999.907373 83.665449
24.480000 7082.727515 84.158942
24.484000 7140.071866 84.498946
24.488000 7186.040458 84.770516
24.492000 7285.966472 85.357873
24.496000 7242.126164 85.100683
24.500000 7256.831190 85.187037
24.504000 7318.170371 85.546305
24.508000 7144.167421 84.523177
24.512000 7217.522624 84.956004
24.516000 7054.166844 83.989088
24.520000 7038.379558 83.895051
24.524000 6905.355869 83.098471
24.528000 6924.988026 83.216513
24.532000 6950.080117 83.367141
24.536000 6997.816886 83.652955
24.540000 6948.595416 83.358235
24.544000 6885.631059 82.979703
24.548000 6617.851765 81.350180
24.552000 6764.842427 82.248662
24.556000 6834.282331 82.669718
24.560000 6891.887410 83.017392
24.564000 6904.283737 83.092020
24.568000 6980.568654 83.549797
24.572000 7031.737024 83.855453
24.576000 7056.348416 84.002074
24.580000 7372.601560 85.863855
24.584000 7379.252454 85.902575
24.588000 7543.687948 86.854407
24.592000 7534.042608 86.798863
24.596000 7489.841363 86.543870
24.600000 7430.627891 86.201090
24.604000 7461.308983 86.378869
24.608000 7373.508634 85.869137
24.612000 7332.417620 85.629537
24.616000 7245.841139 85.122507
24.620000 7058.509449 84.014936
24.624000 6977.362492 83.530608
24.628000 6764.956265 82.249354
24.632000 6605.465265 81.274013
24.636000 6437.647951 80.234955
24.640000 6390.495342 79.940574
24.644000 6376.354679 79.852080
24.648000 6303.244164 79.392973
24.652000 6241.479197 79.003033
24.656000 6171.045730 78.556004
24.660000 6036.984296 77.698033
24.664000 5957.961677 77.187834
24.668000 5742.844823 75.781560
24.672000 5817.589832 76.273127
24.676000 5843.919638 76.445534
24.680000 5907.108065 76.857713
24.684000 5734.215625 75.724604
24.688000 5688.068837 75.419287
24.692000 5798.178068 76.145769
24.696000 5674.561440 75.329685
24.700000 5687.532340 75.415730
24.704000 5750.085684 75.829319
24.708000 5686.530210 75.409086
24.712000 5619.383551 74.962548
24.716000 5643.427355 75.122749
24.720000 5501.498270 74.172086
24.724000 5493.694325 74.119460
24.728000 5467.583553 73.943110
24.732000 5434.787850 73.721014
24.736000 5436.330051 73.731473
24.740000 5391.675891 73.428032
24.744000 5356.229172 73.186264
24.748000 5379.810221 73.347190
24.752000 5335.908613 73.047304
24.756000 5292.681750 72.750820
24.760000 5271.043569 72.601953
24.764000 5223.004267 72.270355
24.768000 5170.478041 71.906036
24.772000 5149.267077 71.758394
24.776000 5026.541126 70.898104
24.780000 5085.230619 71.310803
24.784000 5006.856268 70.759143
24.788000 4995.761770 70.680703
24.792000 5093.783560 71.370747
24.796000 5022.572751 70.870112
24.800000 4917.220389 70.122895
24.804000 5022.421757 70.869047
24.808000 4959.021264 70.420319
24.812000 5049.475645 71.059663
24.816000 5060.047698 71.134012
24.820000 4996.399775 70.685216
24.824000 4944.507320 70.317191
24.828000 5070.924428 71.210424
24.832000 5049.346021 71.058750
24.836000 5128.506748 71.613593
24.840000 5044.254192 71.022913
24.844000 5078.505465 71.263634
24.848000 5110.327503 71.486555
24.852000 5152.503061 71.780938
24.856000 5100.193688 71.415640
24.860000 5189.890661 72.040896
24.864000 5159.139158 71.827148
24.868000 5043.717061 71.019132
24.872000 5139.842960 71.692698
24.876000 5116.353321 71.528689
24.880000 5155.720565 71.803346
24.884000 4984.546115 70.601318
24.888000 5039.567474 70.989911
24.892000 5127.087304 71.603682
24.896000 5109.447312 71.480398
24.900000 4990.072931 70.640448
24.904000 5126.498270 71.599569
24.908000 5114.265081 71.514090
24.912000 5186.600213 72.018055
24.916000 5131.684407 71.635776
24.920000 5433.985893 73.715574
24.924000 5474.045681 73.986794
24.928000 5538.038328 74.417997
24.932000 5589.981900 74.766182
24.936000 5672.873869 75.318483
24.940000 5745.697631 75.800380
24.944000 5662.159968 75.247325
24.948000 5771.398676 75.969722
24.952000 5895.998935 76.785408
24.956000 5872.024754 76.629138
24.960000 5808.001597 76.210246
24.964000 5764.879691 75.926805
24.968000 5699.887144 75.497597
24.972000 5794.563488 76.122030
24.976000 5501.108863 74.169460
24.980000 5470.240115 73.961072
24.984000 5520.532606 74.300287
24.988000 5506.466862 74.205572
24.992000 5312.913784 72.889737
24.996000 5281.037796 72.670749
25.000000 5227.287197 72.299981
25.004000 5156.255304 71.807070
25.008000 5009.179398 70.775557
25.012000 5031.541389 70.933359
25.016000 5053.244670 71.086178
25.020000 4950.280809 70.358232
25.024000 4874.900186 69.820485
25.028000 4918.795315 70.134124
25.032000 4995.410603 70.678219
25.036000 4979.975246 70.568940
25.040000 4889.481812 69.924830
25.044000 4936.538728 70.260506
25.048000 4979.178426 70.563294
25.052000 5067.884482 71.189076
25.056000 5065.624395 71.173200
25.060000 5099.486558 71.410689
25.064000 5187.294650 72.022876
25.068000 5209.298405 72.175470
25.072000 5432.587703 73.706090
25.076000 5372.752994 73.299065
25.080000 5526.463402 74.340187
25.084000 5719.061811 75.624479
25.088000 5840.477775 76.423019
25.092000 6086.310354 78.014809
25.096000 6369.177003 79.807124
25.100000 6486.387691 80.538113
25.104000 6707.345488 81.898385
25.108000 6990.844024 83.611267
25.112000 7129.487409 84.436292
25.116000 7381.361991 85.914853
25.120000 7607.642268 87.221799
25.124000 7815.604205 88.405906
25.128000 8156.741815 90.314682
25.132000 8112.580655 90.069865
25.136000 8456.140005 91.957273
25.140000 8502.187384 92.207307
25.144000 8793.400852 93.773135
25.148000 9049.211849 95.127345
25.152000 9362.355337 96.759265
25.156000 9495.860527 97.446706
25.160000 9858.962736 99.292310
25.164000 9628.004525 98.122396
25.168000 9807.370431 99.032169
25.172000 9813.008784 99.060632
25.176000 9551.800373 97.733313
25.180000 9430.338213 97.109928
25.184000 9299.843226 96.435695
25.188000 8956.890870 94.640852
25.192000 8457.578766 91.965095
25.196000 8184.151451 90.466300
25.200000 7774.942735 88.175636
25.204000 7636.992547 87.389888
25.208000 7268.213468 85.253818
25.212000 6995.702954 83.640319
25.216000 6838.200446 82.693412
25.220000 6574.312095 81.082132
25.224000 6442.373170 80.264395
25.228000 6343.498536 79.646083
25.232000 6311.959276 79.447840
25.236000 6383.477224 79.896666
25.240000 6484.095555 80.523882
25.244000 6606.881554 81.282726
25.248000 6831.792084 82.654656
25.252000 7143.883224 84.521496
25.256000 7581.585041 87.072298
25.260000 8128.565184 90.158556
25.264000 8519.741549 92.302446
25.268000 9326.694437 96.574813
25.272000 10018.139343 100.090656
25.276000 10835.871972 104.095494
25.280000 11345.649987 106.515961
25.284000 11962.222895 109.371947
25.288000 12466.186585 111.652078
25.292000 12762.010381 112.969068
25.296000 13092.483513 114.422391
25.300000 13363.661964 115.601306
25.304000 13377.428001 115.660832
25.308000 13437.914964 115.922021
25.312000 13099.912962 114.454851
25.316000 12796.329252 113.120861
25.320000 12347.974714 111.121441
25.324000 11914.166860 109.152036
25.328000 11382.280543 106.687771
25.332000 10876.948220 104.292609
25.336000 10346.725047 101.718853
25.340000 9781.445302 98.901190
25.344000 9219.379139 96.017598
25.348000 8788.566143 93.747353
25.352000 8366.262255 91.467274
25.356000 7928.366516 89.041375
25.360000 7676.475674 87.615499
25.364000 7367.550972 85.834439
25.368000 6965.168855 83.457587
25.372000 6829.663029 82.641775
25.376000 6574.273285 81.081892
25.380000 6654.767659 81.576759
25.384000 6513.530743 80.706448
25.388000 6592.795009 81.196028
25.392000 6434.808358 80.217257
25.396000 6461.342119 80.382474
25.400000 6565.708081 81.029057
25.404000 6581.569870 81.126875
25.408000 6799.765009 82.460688
25.412000 6740.565877 82.100949
25.416000 6852.219304 82.778133
25.420000 6938.575193 83.298110
25.424000 6888.896432 82.999376
25.428000 7046.111666 83.941120
25.432000 7173.856002 84.698619
25.436000 7433.176617 86.215872
25.440000 7429.857565 86.196622
25.444000 7478.160505 86.476358
25.448000 7549.748935 86.889291
25.452000 7631.481501 87.358351
25.456000 7866.680332 88.694308
25.460000 7776.972664 88.187146
25.464000 7570.463934 87.008413
25.468000 7678.965655 87.629708
25.472000 7397.893489 86.011008
25.476000 7266.746453 85.245214
25.480000 6878.151776 82.934624
25.484000 6820.550641 82.586625
25.488000 6616.430601 81.341445
25.492000 6464.419768 80.401615
25.496000 6214.314777 78.830925
25.500000 6122.140321 78.244107
25.504000 5949.423309 77.132505
25.508000 5813.245474 76.244642
25.512000 5620.582113 74.970542
25.516000 5547.653718 74.482573
25.520000 5450.038997 73.824379
25.524000 5339.217252 73.069948
25.528000 5404.050656 73.512248
25.532000 5287.579872 72.715747
25.536000 5204.916955 72.145110
25.540000 5190.903520 72.047925
25.544000 5130.359691 71.626529
25.548000 5085.943867 71.315804
25.552000 5187.991747 72.027715
25.556000 5051.036969 71.070648
25.560000 5178.585109 71.962387
25.564000 5015.146699 70.817700
25.568000 5210.164090 72.181466
25.572000 5237.523692 72.370738
25.576000 5229.556709 72.315674
25.580000 5382.173749 73.363300
25.584000 5416.622471 73.597707
25.588000 5601.580689 74.843708
25.592000 5694.573482 75.462398
25.596000 5826.862087 76.333886
25.600000 5926.474983 76.983602
25.604000 6198.410206 78.729983
25.608000 6523.499734 80.768185
25.612000 6928.148696 83.235501
25.616000 7581.414537 87.071319
25.620000 8139.223336 90.217644
25.624000 8958.636315 94.650073
25.628000 9823.938910 99.115785
25.632000 10957.416667 104.677680
25.636000 12142.016507 110.190819
25.640000 13549.669782 116.403049
25.644000 14859.042599 121.897673
25.648000 16215.605089 127.340508
25.652000 17072.130192 130.660362
25.656000 17796.259318 133.402621
25.660000 18367.142753 135.525432
25.664000 18360.321132 135.500262
25.668000 17919.531150 133.863853
25.672000 17427.870075 132.014659
25.676000 16719.902822 129.305463
25.680000 15931.929857 126.221749
25.684000 14990.239045 122.434632
25.688000 14132.233227 118.879070
25.692000 13010.851777 114.065121
25.696000 11819.410011 108.717110
25.700000 11045.824281 105.099116
25.704000 10269.162671 101.336877
25.708000 9438.129711 97.150037
25.712000 8777.093717 93.686145
25.716000 8225.038138 90.691996
25.720000 7670.929446 87.583842
25.724000 7069.890575 84.082641
25.728000 7011.594160 83.735262
25.732000 6836.167495 82.681119
25.736000 6634.818158 81.454393
25.740000 6450.848444 80.317174
25.744000 6405.036209 80.031470
25.748000 6532.730017 80.825306
25.752000 6347.033930 79.668274
25.756000 6425.822684 80.161229
25.760000 6560.793131 80.998723
25.764000 6591.891588 81.190465
25.768000 6811.099360 82.529385
25.772000 6731.048173 82.042965
25.776000 6883.201012 82.965059
25.780000 6839.590140 82.701815
25.784000 6985.213436 83.577589
25.788000 7088.721778 84.194547
25.792000 7074.049582 84.107369
25.796000 7027.597444 83.830767
25.800000 7098.968379 84.255376
25.804000 7095.552449 84.235102
25.808000 7219.308975 84.966517
25.812000 7340.641108 85.677541
25.816000 7239.346751 85.084351
25.820000 7457.431695 86.356422
25.824000 7485.064696 86.516268
25.828000 7623.610804 87.313291
25.832000 7864.459960 88.681790
25.836000 7920.292599 88.996026
25.840000 8137.777623 90.209632
25.844000 8349.205096 91.373985
25.848000 8446.597710 91.905374
25.852000 8650.129503 93.006072
25.856000 8869.423755 94.177618
25.860000 9041.147082 95.084947
25.864000 9144.155485 95.625078
25.868000 9261.782921 96.238157
25.872000 9520.627449 97.573703
25.876000 9374.226490 96.820589
25.880000 9633.894781 98.152406
25.884000 9713.555240 98.557370
25.888000 9674.409569 98.358576
25.892000 9592.183524 97.939693
25.896000 9488.878236 97.410873
25.900000 9447.944256 97.200536
25.904000 9337.260927 96.629503
25.908000 9155.140346 95.682498
25.912000 9093.224914 95.358402
25.916000 8796.834588 93.791442
25.920000 8572.006074 92.585129
25.924000 8414.937150 91.732967
25.928000 8164.816702 90.359375
25.932000 7947.652871 89.149609
25.936000 7862.761753 88.672215
25.940000 7834.264181 88.511379
25.944000 7491.802436 86.555199
25.948000 7276.018991 85.299584
25.952000 7088.471842 84.193063
25.956000 6965.860186 83.461729
25.960000 6729.524621 82.033680
25.964000 6747.192810 82.141298
25.968000 6443.912384 80.273983
25.972000 6242.419241 79.008982
25.976000 6134.492934 78.323004
25.980000 6017.995301 77.575739
25.984000 5989.839680 77.394055
25.988000 5756.709154 75.872980
25.992000 5667.765856 75.284566
25.996000 5637.739547 75.084882
26.000000 5577.449210 74.682322
26.004000 5615.120639 74.934109
26.008000 5566.479882 74.608846
26.012000 5539.335553 74.426713
26.016000 5590.965689 74.772760
26.020000 5480.891611 74.033044
26.024000 5293.152430 72.754054
26.028000 5119.946015 71.553798
26.032000 5093.380027 71.367920
26.036000 5060.840564 71.139585
26.040000 4998.561385 70.700505
26.044000 4851.221767 69.650713
26.048000 4745.328895 68.886348
26.052000 4879.603196 69.854157
26.056000 4700.073242 68.557080
26.060000 4849.910403 69.641298
26.064000 4693.429755 68.508611
26.068000 4684.607163 68.444190
26.072000 4614.533422 67.930357
26.076000 4651.557063 68.202324
26.080000 4654.004261 68.220263
26.084000 4634.477795 68.076999
26.088000 4624.034887 68.000257
26.092000 4627.009855 68.022128
26.096000 4621.573901 67.982159
26.100000 4553.950294 67.482963
26.104000 4501.827255 67.095658
26.108000 4547.648202 67.436253
26.112000 4590.673490 67.754509
26.116000 4612.187940 67.913091
26.120000 4565.162632 67.565987
26.124000 4529.839741 67.304084
26.128000 4492.320107 67.024772
26.132000 4602.729310 67.843418
26.136000 4508.164796 67.142869
26.140000 4623.887358 67.999172
26.144000 4659.495340 68.260496
26.148000 4610.460700 67.900373
26.152000 4542.772925 67.400096
26.156000 4676.405806 68.384251
26.160000 4667.382690 68.318246
26.164000 4846.270403 69.615159
26.168000 4867.478977 69.767320
26.172000 4872.173655 69.800957
26.176000 4837.273613 69.550511
26.180000 5017.359700 70.833323
26.184000 4970.400877 70.501070
26.188000 5102.478828 71.431637
26.192000 5130.815959 71.629714
26.196000 5125.895862 71.595362
26.200000 5319.903615 72.937669
26.204000 5430.387492 73.691163
26.208000 5461.499537 73.901959
26.212000 5528.760492 74.355635
26.216000 5478.807938 74.018970
26.220000 5643.519359 75.123361
26.224000 5721.742974 75.642204
26.228000 5646.860220 75.145593
26.232000 5747.753558 75.813940
26.236000 5620.549069 74.970321
26.240000 5519.163559 74.291073
26.244000 5539.752377 74.429513
26.248000 5564.084098 74.592789
26.252000 5391.075139 73.423941
26.256000 5345.452537 73.112602
26.260000 5233.503463 72.342957
26.264000 5182.089771 71.986733
26.268000 5046.342112 71.037611
26.272000 4956.743718 70.404146
26.276000 4916.210112 70.115691
26.280000 4882.643580 69.875916
26.284000 4817.609517 69.409002
26.288000 4774.501959 69.097771
26.292000 4701.497070 68.567464
26.296000 4682.243134 68.426918
26.300000 4719.607352 68.699398
26.304000 4730.024811 68.775176
26.308000 4620.596367 67.974969
26.312000 4844.133520 69.599810
26.316000 4631.441936 68.054698
26.320000 4577.374893 67.656300
26.324000 4693.197293 68.506914
26.328000 4700.739726 68.561941
26.332000 4729.301545 68.769917
26.336000 4817.350380 69.407135
26.340000 4765.832445 69.035009
26.344000 4777.631805 69.120415
26.348000 4816.247249 69.399188
26.352000 4810.375381 69.356870
26.356000 4865.798047 69.755273
26.360000 4825.535162 69.466072
26.364000 4861.715407 69.726002
26.368000 4792.464070 69.227625
26.372000 4877.322121 69.837827
26.376000 4834.536851 69.530834
26.380000 4942.536774 70.303178
26.384000 4903.298808 70.023559
26.388000 4939.102119 70.278746
26.392000 4955.587823 70.395936
26.396000 4868.628396 69.775557
26.400000 4955.789826 70.397371
26.404000 4951.357443 70.365883
26.408000 5003.108247 70.732653
26.412000 4921.821546 70.155695
26.416000 4955.279851 70.393749
26.420000 4964.513319 70.459303
26.424000 4936.473466 70.260042
26.428000 4935.969818 70.256457
26.432000 4893.742709 69.955291
26.436000 5029.913912 70.921886
26.440000 5017.305757 70.832943
26.444000 4858.118315 69.700203
26.448000 5047.949364 71.048922
26.452000 5060.011697 71.133759
26.456000 5080.525776 71.277807
26.460000 5046.021584 71.035354
26.464000 5018.572452 70.841883
26.468000 5075.104148 71.239765
26.472000 5097.846123 71.399203
26.476000 5117.229208 71.534811
26.480000 5149.913735 71.762899
26.484000 5283.267058 72.686086
26.488000 5249.180393 72.451228
26.492000 5193.282409 72.064432
26.496000 5301.769321 72.813250
26.500000 5278.509992 72.653355
26.504000 5174.078821 71.931070
26.508000 5232.593063 72.336665
26.512000 5069.350550 71.199372
26.516000 5084.882208 71.308360
26.520000 5201.354173 72.120414
26.524000 5144.535928 71.725420
26.528000 5011.592042 70.792599
26.532000 4983.244027 70.592096
26.536000 4936.198775 70.258087
26.540000 5033.426267 70.946644
26.544000 4964.255823 70.457475
26.548000 5074.055003 71.232401
26.552000 4951.807434 70.369080
26.556000 4984.622977 70.601862
26.560000 5020.909198 70.858374
26.564000 4934.713665 70.247517
26.568000 5029.859165 70.921500
26.572000 5001.933090 70.724346
26.576000 5118.683720 71.544977
26.580000 5242.865997 72.407638
26.584000 5394.886833 73.449893
26.588000 5452.394573 73.840332
26.592000 5814.402560 76.252230
26.596000 5930.681002 77.010915
26.600000 6150.646819 78.426060
26.604000 6530.664146 80.812525
26.608000 6709.313178 81.910397
26.612000 7025.991207 83.821186
26.616000 7611.277352 87.242635
26.620000 8191.246527 90.505506
26.624000 8541.820510 92.421970
26.628000 8955.903588 94.635636
26.632000 9408.959847 96.999793
26.636000 9745.091018 98.717228
26.640000 10192.138822 100.956123
26.644000 10088.210047 100.440082
26.648000 10006.063122 100.030311
26.652000 9994.759224 99.973793
26.656000 9570.990236 97.831438
26.660000 9338.881190 96.637887
26.664000 8901.365566 94.347049
26.668000 8587.990062 92.671409
26.672000 7939.491890 89.103826
26.676000 7580.662561 87.067000
26.680000 7162.081082 84.629079
26.684000 6937.234000 83.290059
26.688000 6469.533009 80.433407
26.692000 6239.019381 78.987463
26.696000 5923.653028 76.965272
26.700000 5854.742115 76.516287
26.704000 5646.247437 75.141516
26.708000 5527.428305 74.346676
26.712000 5454.286549 73.853142
26.716000 5419.098080 73.614524
26.720000 5328.682839 72.997828
26.724000 5276.733963 72.641131
26.728000 5409.585791 73.549886
26.732000 5512.456368 74.245918
26.736000 5429.915512 73.687960
26.740000 5563.767369 74.590665
26.744000 5577.031637 74.679526
26.748000 5698.395925 75.487720
26.752000 5706.015991 75.538176
26.756000 5699.391437 75.494314
26.760000 5731.303556 75.705373
26.764000 5604.636128 74.864118
26.768000 5728.136960 75.684457
26.772000 5733.559984 75.720275
26.776000 5783.009595 76.046102
26.780000 5759.474959 75.891205
26.784000 5678.069118 75.352964
26.788000 5657.105437 75.213732
26.792000 5478.988601 74.020190
26.796000 5483.257466 74.049021
26.800000 5598.935501 74.826035
26.804000 5524.854207 74.329363
26.808000 5447.266135 73.805597
26.812000 5304.711317 72.833449
26.816000 5243.827292 72.414275
26.820000 5157.335359 71.814590
26.824000 5078.154690 71.261172
26.828000 5060.383212 71.136371
26.832000 5052.746567 71.082674
26.836000 5058.049996 71.119969
26.840000 4979.244895 70.563765
26.844000 5076.599080 71.250257
26.848000 4945.576174 70.324791
26.852000 4827.587321 69.480841
26.856000 4870.578369 69.789529
26.860000 4937.542835 70.267651
26.864000 4987.188324 70.620028
26.868000 5017.160198 70.831915
26.872000 5068.750327 71.195157
26.876000 5216.231069 72.223480
26.880000 5309.607877 72.867056
26.884000 5363.607676 73.236655
26.888000 5728.986141 75.690066
26.892000 5883.775053 76.705769
26.896000 6133.991471 78.319803
26.900000 6392.361940 79.952248
26.904000 6569.841684 81.054560
26.908000 6824.905650 82.612987
26.912000 7118.561301 84.371567
26.916000 7438.022388 86.243970
26.920000 7377.948294 85.894984
26.924000 7452.938166 86.330401
26.928000 7445.544776 86.287570
26.932000 7518.254264 86.707867
26.936000 7191.152985 84.800666
26.940000 7267.492935 85.249592
26.944000 7083.827292 84.165476
26.948000 6737.402985 82.081685
26.952000 6415.196162 80.094920
26.956000 6313.425220 79.457065
26.960000 6165.731343 78.522171
26.964000 5934.810768 77.037723
26.968000 5768.190299 75.948603
26.972000 5698.591309 75.489014
26.976000 5512.866738 74.248682
26.980000 5317.141562 72.918733
26.984000 5101.154051 71.422364
26.988000 4994.406716 70.671117
26.992000 5063.796854 71.160360
26.996000 4806.537313 69.329195
27.000000 4978.559701 70.558909
27.004000 4745.331911 68.886370
27.008000 4847.952026 69.627236
27.012000 4680.388696 68.413366
27.016000 4768.517058 69.054450
27.020000 4703.775527 68.584076
27.024000 4648.854705 68.182510
27.028000 4630.501599 68.047789
27.032000 4671.166622 68.345933
27.036000 4638.090642 68.103529
27.040000 4619.683369 67.968253
27.044000 4770.089576 69.065835
27.048000 4754.285790 68.951329
27.052000 4851.257463 69.650969
27.056000 5042.578512 71.011115
27.060000 4857.541456 69.696065
27.064000 4959.912023 70.426643
27.068000 5048.868035 71.055387
27.072000 5119.740368 71.552361
27.076000 5088.797763 71.335810
27.080000 5327.303386 72.988378
27.084000 5446.795788 73.802410
27.088000 5526.741136 74.342055
27.092000 5833.061317 76.374481
27.096000 6095.617169 78.074434
27.100000 6255.052114 79.088887
27.104000 6516.179419 80.722856
27.108000 6779.670754 82.338756
27.112000 7109.658337 84.318790
27.116000 7265.065049 85.235351
27.120000 7504.238701 86.627009
27.124000 7769.137348 88.142710
27.128000 7885.725940 88.801610
27.132000 7793.815565 88.282589
27.136000 8302.222874 91.116535
27.140000 8108.756930 90.048636
27.144000 8021.708878 89.563993
27.148000 7879.940299 88.769028
27.152000 7684.243668 87.659818
27.156000 7404.285714 86.048159
27.160000 7239.948827 85.087889
27.164000 7092.813650 84.218844
27.168000 6733.907249 82.060388
27.172000 6642.492669 81.501489
27.176000 6589.291045 81.174448
27.180000 6383.617271 79.897542
27.184000 6022.207945 77.602886
27.188000 5802.660448 76.175196
27.192000 5690.346482 75.434385
27.196000 5694.221808 75.460068
27.200000 5474.140725 73.987436
27.204000 5176.829424 71.950187
27.208000 5181.402985 71.981963
27.212000 5094.102345 71.372980
27.216000 4797.040789 69.260673
27.220000 4722.987740 68.723997
27.224000 4806.792111 69.331033
27.228000 4670.943497 68.344301
27.232000 4547.264392 67.433407
27.236000 4429.791578 66.556679
27.240000 4469.346482 66.853171
27.244000 4348.134328 65.940385
27.248000 4414.399254 66.440946
27.252000 4382.458422 66.200139
27.256000 4472.711620 66.878334
27.260000 4300.167910 65.575666
27.264000 4214.000000 64.915329
27.268000 4260.527045 65.272713
27.272000 4360.385928 66.033218
27.276000 4259.987207 65.268577
27.280000 4274.899787 65.382718
27.284000 4340.272921 65.880748
27.288000 4248.889955 65.183510
27.292000 4200.065565 64.807913
27.296000 4143.351812 64.368873
27.300000 4206.617271 64.858440
27.304000 4245.552891 65.157907
27.308000 4257.131130 65.246694
27.312000 4250.166311 65.193300
27.316000 4182.143923 64.669498
27.320000 4220.195651 64.963033
27.324000 4271.000421 65.352891
27.328000 4212.445216 64.903353
27.332000 4233.531839 65.065596
27.336000 4223.571429 64.989010
27.340000 4312.664402 65.670879
27.344000 4270.599725 65.349826
27.348000 4190.730872 64.735855
27.352000 4184.024401 64.684035
27.356000 4221.420835 64.972462
27.360000 4316.688988 65.701514
27.364000 4262.975615 65.291467
27.368000 4253.915046 65.222044
27.372000 4213.669118 64.912781
27.376000 4319.423271 65.722319
27.380000 4432.922635 66.580197
27.384000 4401.841232 66.346373
27.388000 4347.408418 65.934880
27.392000 4440.206290 66.634873
27.396000 4445.440714 66.674138
27.400000 4512.808713 67.177442
27.404000 4581.147530 67.684175
27.408000 4651.672331 68.203170
27.412000 4537.344883 67.359817
27.416000 4779.225231 69.131941
27.420000 4758.384065 68.981041
27.424000 4746.034920 68.891472
27.428000 4789.838672 69.208660
27.432000 4817.116993 69.405454
27.436000 5111.130881 71.492174
27.440000 4991.833376 70.652908
27.444000 5121.817713 71.566876
27.448000 5138.453068 71.683004
27.452000 5152.698255 71.782298
27.456000 5108.154598 71.471355
27.460000 5206.156830 72.153703
27.464000 5160.526809 71.836807
27.468000 5283.641098 72.688659
27.472000 5092.788419 71.363775
27.476000 5066.569273 71.179838
27.480000 4982.929011 70.589865
27.484000 4980.754299 70.574459
27.488000 4953.617171 70.381938
27.492000 4828.176382 69.485080
27.496000 4715.686851 68.670859
27.500000 4744.569329 68.880834
27.504000 4647.962654 68.175968
27.508000 4506.828414 67.132916
27.512000 4553.538805 67.479914
27.516000 4533.644234 67.332342
27.520000 4452.696148 66.728526
27.524000 4464.641087 66.817970
27.528000 4332.336289 65.820485
27.532000 4384.623871 66.216492
27.536000 4320.453354 65.730156
27.540000 4319.182254 65.720486
27.544000 4313.989252 65.680966
27.548000 4288.406110 65.485923
27.552000 4238.421475 65.103160
27.556000 4162.964510 64.521039
27.560000 4240.721898 65.120825
27.564000 4266.248068 65.316522
27.568000 4176.492588 64.625789
27.572000 4286.550402 65.471753
27.576000 4208.133397 64.870127
27.580000 4291.443435 65.509110
27.584000 4234.167066 65.070478
27.588000 4313.782639 65.679393
27.592000 4346.257440 65.926151
27.596000 4293.336257 65.523555
27.600000 4285.782807 65.465890
27.604000 4313.270184 65.675492
27.608000 4380.170747 66.182858
27.612000 4316.012311 65.696365
27.616000 4402.970264 66.354881
27.620000 4398.371836 66.320222
27.624000 4426.053915 66.528595
27.628000 4451.330148 66.718289
27.632000 4478.344530 66.920434
27.636000 4609.787903 67.895419
27.640000 4578.110583 67.661736
27.644000 4549.655268 67.451132
27.648000 4791.856236 69.223235
27.652000 4776.235653 69.110315
27.656000 4945.089552 70.321331
27.660000 4896.036049 69.971680
27.664000 5111.153611 71.492333
27.668000 5206.836245 72.158411
27.672000 5303.733457 72.826736
27.676000 5459.169681 73.886194
27.680000 5416.333471 73.595744
27.684000 5516.581936 74.273696
27.688000 5630.134913 75.034225
27.692000 5552.342273 74.514041
27.696000 5722.845686 75.649492
27.700000 5803.453281 76.180400
27.704000 5829.927589 76.353962
27.708000 5876.277064 76.656879
27.712000 5840.882366 76.425666
27.716000 5981.131458 77.337775
27.720000 5983.563563 77.353497
27.724000 6070.121820 77.910987
27.728000 6102.013333 78.115385
27.732000 6153.746154 78.445817
27.736000 6169.242951 78.544528
27.740000 6190.839524 78.681888
27.744000 6158.770213 78.477833
27.748000 6283.121672 79.266145
27.752000 6372.096972 79.825416
27.756000 6349.015450 79.680709
27.760000 6612.081434 81.314706
27.764000 6644.959296 81.516620
27.768000 6694.061801 81.817246
27.772000 7046.389031 83.942772
27.776000 7105.175812 84.292205
27.780000 7143.958968 84.521944
27.784000 7182.350571 84.748750
27.788000 7255.802611 85.180999
27.792000 7319.731087 85.555427
27.796000 7090.854022 84.207209
27.800000 6971.714972 83.496796
27.804000 6866.334659 82.863349
27.808000 6668.045096 81.658099
27.812000 6517.266140 80.729587
27.816000 6460.918722 80.379840
27.820000 6337.716132 79.609774
27.824000 6087.721882 78.023855
27.828000 5989.235749 77.390153
27.832000 5723.444493 75.653450
27.836000 5659.458711 75.229374
27.840000 5468.639090 73.950247
27.844000 5285.109980 72.698762
27.848000 5249.975226 72.456713
27.852000 5211.995526 72.194152
27.856000 5198.463195 72.100369
27.860000 5025.614811 70.891571
27.864000 4919.003745 70.135610
27.868000 4852.894687 69.662721
27.872000 4872.381193 69.802444
27.876000 4841.258486 69.579153
27.880000 4993.345266 70.663606
27.884000 4958.171224 70.414283
27.888000 5047.967705 71.049051
27.892000 5027.897975 70.907672
27.896000 5112.105887 71.498992
27.900000 5154.791280 71.796875
27.904000 5269.900559 72.594081
27.908000 5401.298187 73.493525
27.912000 5597.008215 74.813155
27.916000 5630.626342 75.037500
27.920000 5847.946528 76.471868
27.924000 6049.257675 77.776974
27.928000 6321.039124 79.504963
27.932000 6542.850109 80.887886
27.936000 6828.349324 82.633827
27.940000 7146.902264 84.539353
27.944000 7474.853229 86.457234
27.948000 7811.382914 88.382028
27.952000 8106.828087 90.037926
27.956000 8407.896770 91.694584
27.960000 8818.862159 93.908797
27.964000 9170.313082 95.761752
27.968000 9439.429827 97.156728
27.972000 9850.641490 99.250398
27.976000 10389.555159 101.929167
27.980000 10562.694031 102.774968
27.984000 11026.767760 105.008418
27.988000 11372.144324 106.640257
27.992000 11550.480588 107.473162
27.996000 11787.928406 108.572227
28.000000 12199.405207 110.450918
28.004000 12281.743009 110.823026
28.008000 12493.586077 111.774711
28.012000 12487.458879 111.747299
28.016000 12676.422828 112.589621
28.020000 12486.371480 111.742434
28.024000 12358.774515 111.170025
28.028000 12099.848891 109.999313
28.032000 11689.167776 108.116455
28.036000 11492.254208 107.201932
28.040000 10894.984554 104.379043
28.044000 10559.894624 102.761348
28.048000 10013.945406 100.069703
28.052000 9342.625783 96.657259
28.056000 9035.346703 95.054441
28.060000 8664.379829 93.082651
28.064000 8373.725772 91.508064
28.068000 8113.716391 90.076170
28.072000 7890.027030 88.825824
28.076000 7645.349667 87.437690
28.080000 7532.338753 86.789047
28.084000 7505.728622 86.635608
28.088000 7482.215180 86.499799
28.092000 7476.697173 86.467897
28.096000 7510.926503 86.665602
28.100000 7666.870306 87.560666
28.104000 7830.686511 88.491166
28.108000 7855.497337 88.631244
28.112000 7955.313449 89.192564
28.116000 7844.322537 88.568180
28.120000 7791.123909 88.267343
28.124000 7715.092601 87.835600
28.128000 7606.536741 87.215462
28.132000 7524.844474 86.745861
28.136000 7197.063006 84.835506
28.140000 7052.327856 83.978139
28.144000 6918.241811 83.175969
28.148000 6699.640564 81.851332
28.152000 6414.587403 80.091119
28.156000 6335.381358 79.595109
28.160000 6058.611485 77.837083
28.164000 5928.162813 76.994564
28.168000 5840.091745 76.420493
28.172000 5698.281414 75.486962
28.176000 5582.355611 74.715163
28.180000 5454.778143 73.856470
28.184000 5384.844740 73.381501
28.188000 5271.084010 72.602231
28.192000 5280.758732 72.668829
28.196000 5390.557161 73.420414
28.200000 5380.309436 73.350593
28.204000 5374.683089 73.312230
28.208000 5413.234967 73.574690
28.212000 5299.711850 72.799120
28.216000 5214.912141 72.214349
28.220000 5285.616724 72.702247
28.224000 5259.619364 72.523233
28.228000 5385.073528 73.383060
28.232000 5257.969561 72.511858
28.236000 5170.639216 71.907157
28.240000 5393.356758 73.439477
28.244000 5191.308839 72.050738
28.248000 5244.484687 72.418814
28.252000 5294.316186 72.762052
28.256000 5256.717885 72.503227
28.260000 5302.006656 72.814879
28.264000 5293.510136 72.756513
28.268000 5329.810075 73.005548
28.272000 5358.469649 73.201569
28.276000 5442.161060 73.771004
28.280000 5472.675420 73.977533
28.284000 5518.486506 74.286516
28.288000 5417.491214 73.603609
28.292000 5398.993178 73.477841
28.296000 5524.420128 74.326443
28.300000 5559.442472 74.561669
28.304000 5570.493742 74.635740
28.308000 5591.215122 74.774428
28.312000 5596.491981 74.809705
28.316000 5812.986954 76.242947
28.320000 6036.428994 77.694459
28.324000 6048.964058 77.775086
28.328000 6137.911876 78.344827
28.332000 6316.542897 79.476681
28.336000 6446.497119 80.290081
28.340000 6768.879393 82.273200
28.344000 6871.681519 82.895606
28.348000 7054.126731 83.988849
28.352000 7177.657336 84.721056
28.356000 7444.986688 86.284336
28.360000 7574.687203 87.032679
28.364000 7848.248291 88.590340
28.368000 8076.132588 89.867305
28.372000 8347.294408 91.363529
28.376000 8602.736208 92.750936
28.380000 8805.931677 93.839926
28.384000 8901.676518 94.348696
28.388000 9106.992007 95.430561
28.392000 9247.447817 96.163651
28.396000 9400.797125 96.957708
28.400000 9403.164099 96.969913
28.404000 9416.085996 97.036519
28.408000 9017.046503 94.958130
28.412000 8860.661874 94.131089
28.416000 8632.777804 92.912743
28.420000 8319.870607 91.213325
28.424000 7969.987595 89.274787
28.428000 7515.166667 86.690061
28.432000 7355.642564 85.765043
28.436000 6972.267315 83.500104
28.440000 6604.192492 81.266183
28.444000 6284.658180 79.275836
28.448000 6007.679650 77.509223
28.452000 5867.620953 76.600398
28.456000 5639.277423 75.095122
28.460000 5468.625414 73.950155
28.464000 5330.996273 73.013672
28.468000 5133.266314 71.646816
28.472000 5145.929712 71.735136
28.476000 5027.766466 70.906745
28.480000 4815.421193 69.393236
28.484000 4787.660706 69.192924
28.488000 4665.900958 68.307400
28.492000 4695.321059 68.522413
28.496000 4676.903355 68.387889
28.500000 4760.186695 68.994106
28.504000 4586.591011 67.724375
28.508000 4766.830405 69.042236
28.512000 4791.156836 69.218183
28.516000 4876.765661 69.833843
28.520000 4906.235091 70.044522
28.524000 4881.801845 69.869892
28.528000 5074.658359 71.236636
28.532000 5194.453173 72.072555
28.536000 5341.717452 73.087054
28.540000 5388.071619 73.403485
28.544000 5746.583667 75.806224
28.548000 5907.339535 76.859219
28.552000 6182.628328 78.629691
28.556000 6310.916704 79.441278
28.560000 6541.834307 80.881607
28.564000 6891.676085 83.016119
28.568000 7110.834398 84.325764
28.572000 7593.921794 87.143111
28.576000 7843.391261 88.562923
28.580000 8222.862092 90.679998
28.584000 8585.900761 92.660136
28.588000 8881.567716 94.242070
28.592000 9264.243245 96.250939
28.596000 9431.419446 97.115495
28.600000 9528.724444 97.615186
28.604000 9686.812727 98.421607
28.608000 9879.690676 99.396633
28.612000 9847.086499 99.232487
28.616000 9921.859462 99.608531
28.620000 10003.970310 100.019850
28.624000 9908.386907 99.540881
28.628000 9525.152556 97.596888
28.632000 9418.608785 97.049517
28.636000 9121.200292 95.504975
28.640000 8824.122704 93.936802
28.644000 8412.081191 91.717399
28.648000 8075.541922 89.864019
28.652000 7697.533503 87.735589
28.656000 7441.473576 86.263976
28.660000 7051.263242 83.971800
28.664000 6759.540303 82.216424
28.668000 6519.997604 80.746502
28.672000 6321.446752 79.507526
28.676000 6115.101257 78.199113
28.680000 5911.536865 76.886519
28.684000 5740.004965 75.762820
28.688000 5504.027948 74.189136
28.692000 5386.333511 73.391645
28.696000 5428.876874 73.680913
28.700000 5344.959542 73.109230
28.704000 5270.175720 72.595976
28.708000 5161.371839 71.842688
28.712000 5045.216695 71.029689
28.716000 5089.988289 71.344154
28.720000 4953.813903 70.383335
28.724000 4925.616449 70.182736
28.728000 4861.680056 69.725749
28.732000 4834.456481 69.530256
28.736000 4852.056162 69.656702
28.740000 4822.419151 69.443640
28.744000 4737.965930 68.832884
28.748000 4683.584421 68.436718
28.752000 4710.330051 68.631844
28.756000 4738.821754 68.839100
28.760000 4794.197764 69.240146
28.764000 4737.379766 68.828626
28.768000 4706.716452 68.605513
28.772000 4850.378760 69.644661
28.776000 4805.737645 69.323428
28.780000 4803.012244 69.303768
28.784000 4827.942241 69.483395
28.788000 4760.247523 68.994547
28.792000 4869.454369 69.781476
28.796000 4968.663561 70.488748
28.800000 4943.326857 70.308796
28.804000 4919.481462 70.139015
28.808000 4856.117647 69.685850
28.812000 5171.244876 71.911368
28.816000 5117.702985 71.538123
28.820000 5105.669151 71.453965
28.824000 5236.778813 72.365591
28.828000 5316.517434 72.914453
28.832000 5352.092100 73.157994
28.836000 5377.187743 73.329310
28.840000 5362.866383 73.231594
28.844000 5477.987224 74.013426
28.848000 5580.750762 74.704423
28.852000 5471.589832 73.970196
28.856000 5537.848017 74.416719
28.860000 5502.107266 74.176191
28.864000 5376.907894 73.327402
28.868000 5524.200958 74.324969
28.872000 5447.170083 73.804946
28.876000 5333.758318 73.032584
28.880000 5321.768354 72.950451
28.884000 5294.519297 72.763448
28.888000 5183.536598 71.996782
28.892000 4989.210550 70.634344
28.896000 4948.482566 70.345452
28.900000 4878.110993 69.843475
28.904000 4938.918397 70.277439
28.908000 4783.367847 69.161896
28.912000 4659.459540 68.260234
28.916000 4682.126164 68.426063
28.920000 4610.073463 67.897522
28.924000 4660.485732 68.267750
28.928000 4539.780410 67.377893
28.932000 4574.619377 67.635933
28.936000 4516.203885 67.202707
28.940000 4481.385946 66.943155
28.944000 4466.365451 66.830872
28.948000 4568.371572 67.589730
28.952000 4548.440777 67.442129
28.956000 4455.681661 66.750893
28.960000 4502.313867 67.099284
28.964000 4485.908438 66.976925
28.968000 4548.263369 67.440814
28.972000 4515.744477 67.199289
28.976000 4572.818245 67.622616
28.980000 4555.097152 67.491460
28.984000 4490.528206 67.011404
28.988000 4472.607133 66.877553
28.992000 4469.721386 66.855975
28.996000 4400.054299 66.332905
29.000000 4502.270961 67.098964
29.004000 4468.068784 66.843614
29.008000 4440.644929 66.638164
29.012000 4480.100386 66.933552
29.016000 4527.488688 67.286616
29.020000 4438.307991 66.620627
29.024000 4392.881917 66.278820
29.028000 4246.316948 65.163770
29.032000 4270.395262 65.348261
29.036000 4371.781932 66.119452
29.040000 4302.750865 65.595357
29.044000 4320.296063 65.728959
29.048000 4320.377866 65.729581
29.052000 4280.466508 65.425274
29.056000 4381.863189 66.195643
29.060000 4482.698604 66.952958
29.064000 4446.832047 66.684571
29.068000 4415.198510 66.446960
29.072000 4552.729838 67.473920
29.076000 4626.803883 68.020614
29.080000 4641.187650 68.126263
29.084000 4765.088151 69.029618
29.088000 4935.125363 70.250447
29.092000 4938.165619 70.272083
29.096000 5193.064092 72.062918
29.100000 5253.373702 72.480161
29.104000 5268.166578 72.582137
29.108000 5373.193546 73.302071
29.112000 5336.154378 73.048986
29.116000 5240.638535 72.392255
29.120000 5225.326012 72.286417
29.124000 5123.784426 71.580615
29.128000 5142.215033 71.709240
29.132000 5075.351089 71.241498
29.136000 4980.147990 70.570164
29.140000 4985.119958 70.605382
29.144000 4826.936935 69.476161
29.148000 4749.546180 68.916951
29.152000 4669.145950 68.331149
29.156000 4590.625790 67.754157
29.160000 4543.302901 67.404027
29.164000 4551.798046 67.467015
29.168000 4475.841139 66.901727
29.172000 4472.474048 66.876558
29.176000 4477.993411 66.917811
29.180000 4466.194330 66.829592
29.184000 4428.438063 66.546511
29.188000 4533.096400 67.328273
29.192000 4452.520652 66.727211
29.196000 4313.569452 65.677770
29.200000 4367.076125 66.083857
29.204000 4381.727120 66.194615
29.208000 4356.989259 66.007494
29.212000 4341.941041 65.893407
29.216000 4446.961088 66.685539
29.220000 4470.096328 66.858779
29.224000 4664.214876 68.295057
29.228000 4604.169430 67.854030
29.232000 4748.405628 68.908676
29.236000 4777.665158 69.120657
29.240000 4815.421501 69.393238
29.244000 5058.373089 71.122240
29.248000 5178.638275 71.962756
29.252000 5276.591272 72.640149
29.256000 5353.171775 73.165373
29.260000 5481.057767 74.034166
29.264000 5635.440457 75.069571
29.268000 5857.029811 76.531234
29.272000 5803.573709 76.181190
29.276000 5800.405418 76.160393
29.280000 5767.943907 75.946981
29.284000 5952.726321 77.153913
29.288000 5885.202912 76.715076
29.292000 5876.210701 76.656446
29.296000 5868.186003 76.604086
29.300000 5804.235028 76.185530
29.304000 5773.769292 75.985323
29.308000 5530.228202 74.365504
29.312000 5551.408038 74.507772
29.316000 5520.179883 74.297913
29.320000 5559.259893 74.560445
29.324000 5598.114938 74.820552
29.328000 5566.983365 74.612220
29.332000 5691.606173 75.442734
29.336000 5669.910833 75.298810
29.340000 5503.268228 74.184016
29.344000 5745.457014 75.798793
29.348000 5814.743214 76.254464
29.352000 5974.457761 77.294617
29.356000 6161.375150 78.494428
29.360000 6183.637041 78.636105
29.364000 6350.950506 79.692851
29.368000 6349.435188 79.683343
29.372000 6344.443587 79.652016
29.376000 6464.820285 80.404106
29.380000 6518.712128 80.738542
29.384000 6469.083454 80.430613
29.388000 6391.447046 79.946526
29.392000 6268.356934 79.172956
29.396000 6113.896221 78.191408
29.400000 6044.138898 77.744060
29.404000 5965.924158 77.239395
29.408000 5807.418574 76.206421
29.412000 5675.292521 75.334537
29.416000 5451.172166 73.832054
29.420000 5416.416516 73.596308
29.424000 5238.001846 72.374041
29.428000 5196.503203 72.086776
29.432000 5186.187866 72.015192
29.436000 5079.711088 71.272092
29.440000 4837.993243 69.555684
29.444000 4817.683781 69.409537
29.448000 4810.133316 69.355125
29.452000 4807.448315 69.335765
29.456000 4726.567084 68.750033
29.460000 4738.614156 68.837593
29.464000 4755.126963 68.957429
29.468000 4747.494412 68.902064
29.472000 4776.628512 69.113157
29.476000 4664.389113 68.296333
29.480000 4666.798829 68.313972
29.484000 4720.577452 68.706459
29.488000 4643.510411 68.143308
29.492000 4592.594465 67.768684
29.496000 4639.671991 68.115138
29.500000 4557.640234 67.510297
29.504000 4597.605825 67.805647
29.508000 4592.342203 67.766822
29.512000 4514.302217 67.188557
29.516000 4515.743551 67.199282
29.520000 4515.145290 67.194831
29.524000 4394.911291 66.294127
29.528000 4529.695322 67.303011
29.532000 4484.065746 66.963167
29.536000 4523.335626 67.255748
29.540000 4557.319851 67.507924
29.544000 4436.703660 66.608585
29.548000 4498.624973 67.071790
29.552000 4471.258116 66.867467
29.556000 4544.970193 67.416394
29.560000 4577.388238 67.656398
29.564000 4547.532464 67.435395
29.568000 4658.858398 68.255831
29.572000 4787.994146 69.195333
29.576000 4694.102714 68.513522
29.580000 4641.623902 68.129464
29.584000 4714.862427 68.664856
29.588000 4747.279670 68.900506
29.592000 4872.173883 69.800959
29.596000 4843.655668 69.596377
29.600000 4769.714478 69.063120
29.604000 4737.096369 68.826567
29.608000 4697.267962 68.536618
29.612000 4722.350186 68.719358
29.616000 4676.367299 68.383970
29.620000 4693.194252 68.506892
29.624000 4633.367048 68.068841
29.628000 4634.792709 68.079312
29.632000 4501.869878 67.095975
29.636000 4494.338834 67.039830
29.640000 4595.864822 67.792808
29.644000 4380.124534 66.182509
29.648000 4354.405377 65.987918
29.652000 4283.746142 65.450333
29.656000 4370.360447 66.108702
29.660000 4246.019159 65.161485
29.664000 4213.951182 64.914953
29.668000 4256.474678 65.241664
29.672000 4283.328366 65.447142
29.676000 4058.446187 63.705935
29.680000 4217.553092 64.942691
29.684000 3987.509627 63.146731
29.688000 4038.732217 63.551021
29.692000 3987.771155 63.148802
29.696000 4083.972935 63.905969
29.700000 4085.019246 63.914155
29.704000 4059.542576 63.714540
29.708000 4116.619978 64.160891
29.712000 4134.606197 64.300904
29.716000 4076.757517 63.849491
29.720000 3970.915333 63.015199
29.724000 4056.933475 63.694062
29.728000 4044.022993 63.592633
29.732000 4107.989356 64.093598
29.736000 4101.936119 64.046359
29.740000 4034.196913 63.515328
29.744000 4153.687901 64.449111
29.748000 4075.531422 63.839889
29.752000 4129.039117 64.257600
29.756000 4225.605536 65.004658
29.760000 4110.633848 64.114225
29.764000 4069.321980 63.791237
29.768000 4025.360926 63.445732
29.772000 4077.054284 63.851815
29.776000 4169.307710 64.570177
29.780000 4258.002119 65.253369
29.784000 4104.088649 64.063161
29.788000 4191.449707 64.741406
29.792000 4223.027682 64.984827
29.796000 4134.460085 64.299767
29.800000 4239.643512 65.112545
29.804000 4186.755455 64.705142
29.808000 4323.238425 65.751338
29.812000 4294.732363 65.534208
29.816000 4344.783705 65.914973
29.820000 4253.766116 65.220902
29.824000 4198.798031 64.798133
29.828000 4282.360394 65.439746
29.832000 4226.821714 65.014012
29.836000 4284.222708 65.453974
29.840000 4228.518499 65.027060
29.844000 4374.759979 66.141968
29.848000 4317.880304 65.710580
29.852000 4290.034772 65.498357
29.856000 4245.675925 65.158851
29.860000 4375.194252 66.145251
29.864000 4481.718250 66.945637
29.868000 4385.110398 66.220166
29.872000 4592.408008 67.767308
29.876000 4704.937196 68.592545
29.880000 4736.970197 68.825651
29.884000 4821.525685 69.437207
29.888000 4919.182351 70.136883
29.892000 5001.837414 70.723669
29.896000 5061.099281 71.141403
29.900000 5250.496807 72.460312
29.904000 5178.927997 71.964769
29.908000 5228.563692 72.308808
29.912000 5237.106440 72.367855
29.916000 5165.203354 71.869349
29.920000 5171.267163 71.911523
29.924000 5250.538856 72.460602
29.928000 5021.063107 70.859460
29.932000 5056.475835 71.108901
29.936000 5081.044388 71.281445
29.940000 5006.525628 70.756806
29.944000 5045.747671 71.033426
29.948000 5025.194784 70.888608
29.952000 5051.128324 71.071290
29.956000 5044.119350 71.021964
29.960000 5144.217489 71.723200
29.964000 5071.940128 71.217555
29.968000 5272.793718 72.614005
29.972000 5252.026344 72.470865
29.976000 5383.793985 73.374341
29.980000 5408.547774 73.542830
29.984000 5623.207557 74.988049
29.988000 5845.657439 76.456899
29.992000 5996.840392 77.439269
29.996000 6230.385203 78.932789
30.000000 6548.043736 80.919984
30.004000 6770.442774 82.282700
30.008000 6960.890390 83.431951
30.012000 7334.513442 85.641774
30.016000 7792.778872 88.276718
30.020000 8228.875854 90.713151
30.024000 8647.749534 92.993277
30.028000 9195.831867 95.894900
30.032000 9510.577322 97.522189
30.036000 10077.415114 100.386329
30.040000 10575.923744 102.839310
30.044000 10815.368911 103.996966
30.048000 11344.905003 106.512464
30.052000 11428.838435 106.905746
30.056000 11600.603141 107.706096
30.060000 11728.671634 108.298992
30.064000 11960.460474 109.363890
30.068000 11917.093447 109.165441
30.072000 11835.737936 108.792178
30.076000 11770.644057 108.492599
30.080000 11371.997269 106.639567
30.084000 11142.370508 105.557428
30.088000 10900.841405 104.407095
30.092000 10506.035933 102.498956
30.096000 10366.061850 101.813859
30.100000 9943.673410 99.717969
30.104000 9563.382650 97.792549
30.108000 9171.917754 95.770130
30.112000 8730.862595 93.439085
30.116000 8472.950186 92.048629
30.120000 8289.810840 91.048398
30.124000 7916.852801 88.976698
30.128000 7525.405377 86.749094
30.132000 7286.014056 85.358152
30.136000 6975.068938 83.516878
30.140000 6828.667016 82.635749
30.144000 6510.413920 80.687136
30.148000 6197.415117 78.723663
30.152000 5965.002129 77.233426
30.156000 5872.759591 76.633932
30.160000 5706.261113 75.539798
30.164000 5631.202235 75.041337
30.168000 5450.474847 73.827331
30.172000 5403.026806 73.505284
30.176000 5268.156774 72.582069
30.180000 5288.351809 72.721055
30.184000 5221.296779 72.258541
30.188000 5068.212777 71.191381
30.192000 5039.149055 70.986964
30.196000 5058.788829 71.125163
30.200000 5122.157963 71.569253
30.204000 5156.097950 71.805974
30.208000 5155.895590 71.804565
30.212000 5163.185254 71.855308
30.216000 5261.437252 72.535765
30.220000 5213.496407 72.204546
30.224000 5322.493479 72.955421
30.228000 5492.981395 74.114650
30.232000 5568.787863 74.624311
30.236000 5600.503307 74.836511
30.240000 5681.033804 75.372633
30.244000 5800.117916 76.158505
30.248000 5953.387809 77.158200
30.252000 6085.661315 78.010649
30.256000 6164.947032 78.517177
30.260000 6399.269098 79.995432
30.264000 6582.504584 81.132636
30.268000 6812.660900 82.538845
30.272000 6811.220921 82.530121
30.276000 7034.225071 83.870287
30.280000 7304.116582 85.464125
30.284000 7365.886612 85.824744
30.288000 7396.721637 86.004195
30.292000 7706.542602 87.786916
30.296000 7641.587171 87.416172
30.300000 7546.405522 86.870050
30.304000 7348.009316 85.720530
30.308000 7258.961139 85.199537
30.312000 7173.504718 84.696545
30.316000 7175.804365 84.710120
30.320000 6967.408038 83.471001
30.324000 6777.213435 82.323833
30.328000 6512.396061 80.699418
30.332000 6352.186319 79.700604
30.336000 6370.064679 79.812685
30.340000 6136.305131 78.334572
30.344000 5909.973435 76.876352
30.348000 5803.297312 76.179376
30.352000 5697.934522 75.484664
30.356000 5483.027415 74.047467
30.360000 5351.673566 73.155134
30.364000 5333.942257 73.033843
30.368000 5369.898323 73.279590
30.372000 5209.793464 72.178899
30.376000 5042.653447 71.011643
30.380000 5108.133713 71.471209
30.384000 5109.915890 71.483676
30.388000 5018.859995 70.843913
30.392000 5014.151717 70.810675
30.396000 5056.944334 71.112195
30.400000 5009.445302 70.777435
30.404000 5031.289304 70.931582
30.408000 4967.503859 70.480521
30.412000 4990.689380 70.644811
30.416000 5085.503191 71.312714
30.420000 5044.502795 71.024663
30.424000 5153.759441 71.789689
30.428000 5195.983927 72.083174
30.432000 5082.290924 71.290188
30.436000 5097.244078 71.394986
30.440000 5148.882632 71.755715
30.444000 5167.598350 71.886009
30.448000 5154.902453 71.797649
30.452000 5133.741815 71.650135
30.456000 5273.747139 72.620570
30.460000 5159.594990 71.830321
30.464000 5097.082505 71.393855
30.468000 5203.856268 72.137759
30.472000 5095.862321 71.385309
30.476000 5134.081980 71.652509
30.480000 5150.896167 71.769744
30.484000 5043.728773 71.019214
30.488000 5091.403671 71.354073
30.492000 4965.649188 70.467363
30.496000 4978.649632 70.559547
30.500000 4824.184722 69.456351
30.504000 4654.479605 68.223747
30.508000 4674.079585 68.367241
30.512000 4698.322888 68.544313
30.516000 4686.394730 68.457247
30.520000 4755.097685 68.957216
30.524000 4659.751309 68.262371
30.528000 4601.790052 67.836495
30.532000 4579.432427 67.671504
30.536000 4527.469845 67.286476
30.540000 4701.985361 68.571024
30.544000 4598.707125 67.813768
30.548000 4637.251988 68.097371
30.552000 4479.063082 66.925803
30.556000 4536.462115 67.353264
30.560000 4540.883278 67.386076
30.564000 4496.530210 67.056172
30.568000 4602.099308 67.838774
30.572000 4553.395715 67.478854
30.576000 4645.927868 68.161044
30.580000 4619.137992 67.964241
30.584000 4749.692628 68.918014
30.588000 4659.818738 68.262865
30.592000 4811.264377 69.363278
30.596000 4775.733935 69.106685
30.600000 4848.066776 69.628060
30.604000 4837.061219 69.548984
30.608000 4766.752003 69.041669
30.612000 4801.814992 69.295130
30.616000 4868.005000 69.771090
30.620000 4731.828212 68.788285
30.624000 4683.866017 68.438776
30.628000 4789.562215 69.206663
30.632000 4758.906112 68.984825
30.636000 4644.290600 68.149032
30.640000 4742.760117 68.867700
30.644000 4669.557733 68.334162
30.648000 4752.701866 68.939842
30.652000 4788.400586 69.198270
30.656000 4706.420660 68.603358
30.660000 4749.312468 68.915256
30.664000 4716.859877 68.679399
30.668000 4815.931842 69.396915
30.672000 4754.078133 68.949823
30.676000 4817.795527 69.410342
30.680000 4817.490553 69.408145
30.684000 4869.777955 69.783794
30.688000 4649.903203 68.190199
30.692000 4719.380453 68.697747
30.696000 4791.372471 69.219740
30.700000 4781.982986 69.151883
30.704000 4826.439830 69.472583
30.708000 4799.306229 69.277025
30.712000 4878.120418 69.843542
30.716000 4757.113605 68.971832
30.720000 4755.869111 68.962810
30.724000 4714.187966 68.659944
30.728000 4886.664593 69.904682
30.732000 4891.687700 69.940601
30.736000 4798.898562 69.274083
30.740000 4817.876260 69.410923
30.744000 4791.000000 69.217050
30.748000 4704.366777 68.588387
30.752000 4673.958466 68.366355
30.756000 4714.780881 68.664262
30.760000 4648.047923 68.176594
30.764000 4731.925708 68.788994
30.768000 4665.234292 68.302520
30.772000 4717.789936 68.686170
30.776000 4615.573481 67.938012
30.780000 4582.098698 67.691201
30.784000 4594.871023 67.785478
30.788000 4645.737220 68.159645
30.792000 4562.745465 67.548097
30.796000 4517.202875 67.210140
30.800000 4574.546326 67.635393
30.804000 4621.575880 67.982173
30.808000 4622.921459 67.992069
30.812000 4644.841587 68.153075
30.816000 4605.895179 67.866746
30.820000 4583.358094 67.700503
30.824000 4697.237487 68.536395
30.828000 4632.554166 68.062869
30.832000 4633.458971 68.069516
30.836000 4484.792599 66.968594
30.840000 4512.046535 67.171769
30.844000 4515.078275 67.194332
30.848000 4448.425083 66.696515
30.852000 4506.228701 67.128449
30.856000 4527.982670 67.290287
30.860000 4516.003994 67.201220
30.864000 4553.517126 67.479753
30.868000 4431.955272 66.572932
30.872000 4426.686374 66.533348
30.876000 4571.721641 67.614508
30.880000 4405.253698 66.372085
30.884000 4522.061526 67.246275
30.888000 4532.535144 67.324105
30.892000 4546.850639 67.430339
30.896000 4556.504709 67.501887
30.900000 4606.779543 67.873261
30.904000 4585.531683 67.716554
30.908000 4616.862589 67.947499
30.912000 4687.380151 68.464444
30.916000 4774.147179 69.095204
30.920000 4607.872221 67.881310
30.924000 4655.090705 68.228225
30.928000 4661.315849 68.273830
30.932000 4705.921991 68.599723
30.936000 4590.199363 67.751010
30.940000 4649.516066 68.187360
30.944000 4677.727058 68.393911
30.948000 4683.450745 68.435742
30.952000 4740.617297 68.852141
30.956000 4729.119574 68.768594
30.960000 4678.687185 68.400930
30.964000 4631.299211 68.053650
30.968000 4871.201028 69.793990
30.972000 4837.313365 69.550797
30.976000 4820.573104 69.430347
30.980000 4984.490454 70.600924
30.984000 4923.031616 70.164319
30.988000 4906.114997 70.043665
30.992000 4801.003995 69.289278
30.996000 4969.511247 70.494760
31.000000 5065.197071 71.170198
31.004000 5043.343942 71.016505
31.008000 4985.218246 70.606078
31.012000 4971.189081 70.506660
31.016000 5026.518525 70.897944
31.020000 4977.067205 70.548332
31.024000 4956.215359 70.400393
31.028000 5038.335553 70.981234
31.032000 5048.999819 71.056314
31.036000 5085.231577 71.310810
31.040000 5115.805236 71.524857
31.044000 5146.614333 71.739908
31.048000 5290.188994 72.733685
31.052000 5224.563249 72.281140
31.056000 5168.429375 71.891789
31.060000 5284.945800 72.697633
31.064000 5356.553202 73.188477
31.068000 5390.818589 73.422194
31.072000 5524.177364 74.324810
31.076000 5481.884993 74.039753
31.080000 5655.065246 75.200168
31.084000 5656.445120 75.209342
31.088000 5694.498236 75.461899
31.092000 5725.511318 75.667109
31.096000 5927.716475 76.991665
31.100000 5838.402622 76.409441
31.104000 5805.601065 76.194495
31.108000 5818.437950 76.278686
31.112000 5923.574917 76.964764
31.116000 5921.306249 76.950024
31.120000 6002.909153 77.478443
31.124000 5896.872437 76.791096
31.128000 5808.354418 76.212561
31.132000 5958.946155 77.194211
31.136000 6002.636261 77.476682
31.140000 5947.081758 77.117325
31.144000 5822.330313 76.304196
31.148000 5817.401467 76.271892
31.152000 5800.966164 76.164074
31.156000 5706.660604 75.542442
31.160000 5655.584141 75.203618
31.164000 5743.105214 75.783278
31.168000 5698.285831 75.486991
31.172000 5669.665594 75.297182
31.176000 5810.114893 76.224110
31.180000 5870.852730 76.621490
31.184000 6003.526007 77.482424
31.188000 6026.594586 77.631144
31.192000 6101.068708 78.109338
31.196000 6194.877658 78.707545
31.200000 6349.533534 79.683960
31.204000 6336.990002 79.605213
31.208000 6356.346412 79.726698
31.212000 6383.329907 79.895744
31.216000 6360.105207 79.750268
31.220000 6392.684687 79.954266
31.224000 6334.633284 79.590409
31.228000 6112.756493 78.184119
31.232000 6059.340921 77.841768
31.236000 6085.134391 78.007271
31.240000 5917.851333 76.927572
31.244000 5934.432323 77.035267
31.248000 5672.801598 75.318003
31.252000 5575.692401 74.670559
31.256000 5551.057776 74.505421
31.260000 5417.522399 73.603821
31.264000 5204.077023 72.139289
31.268000 5384.749049 73.380849
31.272000 5215.015006 72.215061
31.276000 5065.328859 71.171124
31.280000 4983.054076 70.590751
31.284000 4975.040850 70.533969
31.288000 4890.920716 69.935118
31.292000 4869.914583 69.784773
31.296000 4958.354582 70.415585
31.300000 4902.702075 70.019298
31.304000 4958.591369 70.417266
31.308000 4816.116699 69.398247
31.312000 4853.731643 69.668728
31.316000 4831.707188 69.510483
31.320000 4932.589378 70.232396
31.324000 4954.471497 70.388007
31.328000 5092.363933 71.360801
31.332000 5182.580255 71.990140
31.336000 5185.122866 72.007797
31.340000 5125.518093 71.592724
31.344000 5225.230820 72.285758
31.348000 5221.986700 72.263315
31.352000 5286.550015 72.708665
31.356000 5325.050513 72.972944
31.360000 5357.086255 73.192119
31.364000 5347.554241 73.126973
31.368000 5390.131981 73.417518
31.372000 5405.646988 73.523105
31.376000 5439.124933 73.750423
31.380000 5354.029590 73.171235
31.384000 5400.779702 73.489997
31.388000 5422.891845 73.640287
31.392000 5379.466922 73.344849
31.396000 5448.044382 73.810869
31.400000 5283.964863 72.690886
31.404000 5183.938354 71.999572
31.408000 5034.385775 70.953406
31.412000 4974.834843 70.532509
31.416000 4898.990449 69.992789
31.420000 4853.227508 69.665110
31.424000 4811.810868 69.367218
31.428000 4697.675760 68.539593
31.432000 4640.632125 68.122185
31.436000 4580.870037 67.682125
31.440000 4464.661993 66.818126
31.444000 4621.050963 67.978312
31.448000 4433.472706 66.584328
31.452000 4387.107619 66.235245
31.456000 4348.820586 65.945588
31.460000 4283.666054 65.449722
31.464000 4263.547826 65.295848
31.468000 4204.227916 64.840018
31.472000 4138.572531 64.331738
31.476000 4244.337941 65.148584
31.480000 4180.432339 64.656263
31.484000 4199.828451 64.806083
31.488000 4104.600133 64.067153
31.492000 4085.131260 63.915032
31.496000 4154.427205 64.454846
31.500000 4158.669113 64.487744
31.504000 4077.823109 63.857835
31.508000 4083.006305 63.898406
31.512000 4062.541849 63.738072
31.516000 4151.091558 64.428965
31.520000 4061.491865 63.729835
31.524000 4182.586464 64.672919
31.528000 4091.081801 63.961565
31.532000 4136.612682 64.316504
31.536000 4370.932730 66.113030
31.540000 4376.492642 66.155065
31.544000 4361.210257 66.039460
31.548000 4487.525831 66.988998
31.552000 4675.767824 68.379586
31.556000 4607.050946 67.875260
31.560000 4872.625100 69.804191
31.564000 4787.658149 69.192905
31.568000 4910.197801 70.072804
31.572000 5043.309442 71.016262
31.576000 5053.447582 71.087605
31.580000 5158.361822 71.821736
31.584000 5247.172087 72.437367
31.588000 5303.567999 72.825600
31.592000 5349.851743 73.142681
31.596000 5415.204364 73.588072
31.600000 5475.191946 73.994540
31.604000 5706.785316 75.543268
31.608000 5735.544406 75.733377
31.612000 5756.347612 75.870598
31.616000 5804.563062 76.187683
31.620000 5965.144151 77.234346
31.624000 6017.351492 77.571589
31.628000 5988.684654 77.386592
31.632000 6128.321665 78.283598
31.636000 6195.411404 78.710936
31.640000 6256.272307 79.096601
31.644000 6310.141393 79.436398
31.648000 6312.373330 79.450446
31.652000 6342.472783 79.639643
31.656000 6516.536429 80.725067
31.660000 6478.658434 80.490114
31.664000 6448.310365 80.301372
31.668000 6604.894751 81.270504
31.672000 6597.831377 81.227036
31.676000 6638.116942 81.474640
31.680000 6587.847759 81.165558
31.684000 6525.544972 80.780845
31.688000 6571.716762 81.066126
31.692000 6389.356719 79.933452
31.696000 6229.153424 78.924986
31.700000 6199.350442 78.735954
31.704000 6135.224045 78.327671
31.708000 5998.485399 77.449890
31.712000 5876.334773 76.657255
31.716000 5657.422259 75.215838
31.720000 5659.167689 75.227440
31.724000 5582.638565 74.717057
31.728000 5473.157721 73.980793
31.732000 5353.139214 73.165150
31.736000 5297.943131 72.786971
31.740000 5137.714476 71.677852
31.744000 5150.338915 71.765862
31.748000 5112.098435 71.498940
31.752000 5032.399418 70.939407
31.756000 5024.756434 70.885516
31.760000 5005.625620 70.750446
31.764000 5007.485014 70.763585
31.768000 4923.644227 70.168684
31.772000 5088.003087 71.330240
31.776000 5050.501940 71.066884
31.780000 5018.707166 70.842834
31.784000 5025.574875 70.891289
31.788000 5092.406734 71.361101
31.792000 5078.183290 71.261373
31.796000 5016.479398 70.827109
31.800000 5086.457356 71.319404
31.804000 5089.028931 71.337430
31.808000 4921.079067 70.150403
31.812000 4859.203810 69.707990
31.816000 4914.795576 70.105603
31.820000 4776.696749 69.113651
31.824000 4719.149523 68.696066
31.828000 4737.677536 68.830789
31.832000 4859.998285 69.713688
31.836000 4780.850205 69.143692
31.840000 4724.299307 68.733538
31.844000 4775.561774 69.105440
31.848000 4853.240919 69.665206
31.852000 4966.001908 70.469865
31.856000 4835.726697 69.539390
31.860000 5037.671798 70.976558
31.864000 5079.089655 71.267732
31.868000 5154.000165 71.791366
31.872000 5304.809168 72.834121
31.876000 5393.952026 73.443530
31.880000 5544.185452 74.459287
31.884000 5707.884861 75.550545
31.888000 5662.788913 75.251504
31.892000 5746.960831 75.808712
31.896000 5634.351812 75.062320
31.900000 5860.925659 76.556683
31.904000 5965.733475 77.238161
31.908000 6127.714286 78.279718
31.912000 5957.447761 77.184505
31.916000 6051.307036 77.790147
31.920000 6013.822542 77.548840
31.924000 6009.056503 77.518104
31.928000 5875.809701 76.653830
31.932000 5901.164179 76.819035
31.936000 5875.837953 76.654015
31.940000 5724.905117 75.663103
31.944000 5584.496269 74.729487
31.948000 5546.018657 74.471596
31.952000 5649.097548 75.160479
31.956000 5367.526119 73.263402
31.960000 5611.283582 74.908501
31.964000 5373.232409 73.302336
31.968000 5480.093284 74.027652
31.972000 5358.249467 73.200065
31.976000 5475.493603 73.996578
31.980000 5474.597174 73.990521
31.984000 5251.415778 72.466653
31.988000 5244.240938 72.417132
31.992000 5423.473348 73.644235
31.996000 5454.835821 73.856860
32.000000 5531.020528 74.370831
32.004000 5799.388060 76.153713
32.008000 5702.915245 75.517649
32.012000 5695.939749 75.471450
32.016000 5652.907249 75.185818
32.020000 5833.721674 76.378804
32.024000 5825.294243 76.323615
32.028000 5884.834755 76.712677
32.032000 6213.859771 78.828039
32.036000 6161.202559 78.493328
32.040000 6331.245001 79.569121
32.044000 6406.327292 80.039536
32.048000 6518.319915 80.736113
32.052000 6705.715352 81.888432
32.056000 6612.266596 81.315845
32.060000 6614.729211 81.330986
32.064000 6683.049853 81.749923
32.068000 6691.804052 81.803448
32.072000 6488.901398 80.553717
32.076000 6626.765054 81.404945
32.080000 6437.436416 80.233636
32.084000 6336.410557 79.601574
32.088000 6141.844701 78.369922
32.092000 5956.216897 77.176531
32.096000 5807.759264 76.208656
32.100000 5691.198627 75.440033
32.104000 5592.004799 74.779708
32.108000 5494.445982 74.124530
32.112000 5334.937034 73.040653
32.116000 5233.482183 72.342810
32.120000 5079.992802 71.274068
32.124000 5127.264000 71.604916
32.128000 4982.599840 70.587533
32.132000 5147.330312 71.744897
32.136000 5090.478933 71.347592
32.140000 4997.765396 70.694875
32.144000 5049.697067 71.061221
32.148000 5085.322847 71.311450
32.152000 4977.812850 70.553617
32.156000 5110.899200 71.490553
32.160000 5229.673154 72.316479
32.164000 5207.652893 72.164069
32.168000 5231.363903 72.328168
32.172000 5230.062933 72.319174
32.176000 5136.457478 71.669083
32.180000 5240.130099 72.388743
32.184000 5367.422021 73.262692
32.188000 5189.554785 72.038565
32.192000 4964.396694 70.458475
32.196000 5006.952000 70.759819
32.200000 5078.414823 71.262998
32.204000 4912.411090 70.088595
32.208000 4811.048787 69.361724
32.212000 4783.032791 69.159474
32.216000 4724.538523 68.735279
32.220000 4760.241002 68.994500
32.224000 4703.114370 68.579256
32.228000 4673.549987 68.363367
32.232000 4632.799574 68.064672
32.236000 4657.227406 68.243882
32.240000 4543.486004 67.405386
32.244000 4717.485471 68.683954
32.248000 4559.169821 67.521625
32.252000 4502.753731 67.102561
32.256000 4651.438017 68.201452
32.260000 4635.781392 68.086573
32.264000 4676.288990 68.383397
32.268000 4872.324094 69.802035
32.272000 4906.548654 70.046760
32.276000 4907.870968 70.056199
32.280000 4931.521194 70.224790
32.284000 4979.795309 70.567665
32.288000 4837.179419 69.549834
32.292000 4997.442431 70.692591
32.296000 5063.730205 71.159892
32.300000 4964.859275 70.461758
32.304000 4998.727273 70.701678
32.308000 5066.991471 71.182803
32.312000 4886.121034 69.900794
32.316000 4941.701493 70.297237
32.320000 4908.909951 70.063614
32.324000 4869.396566 69.781062
32.328000 4905.038324 70.035979
32.332000 4872.675972 69.804556
32.336000 4822.135232 69.441596
32.340000 4768.599822 69.055049
32.344000 4806.025207 69.325502
32.348000 4906.771970 70.048355
32.352000 4832.942794 69.519370
32.356000 4806.777309 69.330926
32.360000 4717.870691 68.686758
32.364000 4825.444681 69.465421
32.368000 4791.443775 69.220256
32.372000 4792.413881 69.227263
32.376000 4576.318333 67.648491
32.380000 4551.287948 67.463234
32.384000 4526.940543 67.282543
32.388000 4553.966226 67.483081
32.392000 4496.961974 67.059391
32.396000 4507.113060 67.135036
32.400000 4495.720508 67.050134
32.404000 4368.284558 66.092999
32.408000 4352.208355 65.971269
32.412000 4311.233273 65.659982
32.416000 4362.856811 66.051925
32.420000 4246.790950 65.167407
32.424000 4161.153390 64.507003
32.428000 4269.994372 65.345194
32.432000 4307.054128 65.628150
32.436000 4264.625178 65.304098
32.440000 4170.432744 64.578888
32.444000 4161.699004 64.511232
32.448000 4201.635873 64.820027
32.452000 4091.608346 63.965681
32.456000 4132.320543 64.283128
32.460000 4075.230241 63.837530
32.464000 4152.850886 64.442617
32.468000 4095.698233 63.997642
32.472000 4016.201416 63.373507
32.476000 4125.426600 64.229484
32.480000 4044.418913 63.595746
32.484000 3973.374479 63.034709
32.488000 4095.993603 63.999950
32.492000 4115.733014 64.153979
32.496000 4016.606149 63.376700
32.500000 4015.301328 63.366405
32.504000 3967.447653 62.987679
32.508000 4041.316011 63.571346
32.512000 3997.222844 63.223594
32.516000 4050.606961 63.644379
32.520000 4012.178327 63.341758
32.524000 4047.613131 63.620855
32.528000 4101.496733 64.042929
32.532000 4167.638060 64.557246
32.536000 4060.085146 63.718797
32.540000 4129.145487 64.258427
32.544000 4164.279318 64.531227
32.548000 4093.870824 63.983364
32.552000 4094.415152 63.987617
32.556000 4051.384990 63.650491
32.560000 4066.933531 63.772514
32.564000 4164.200410 64.530616
32.568000 4207.787031 64.867457
32.572000 4168.835129 64.566517
32.576000 4041.518074 63.572935
32.580000 4271.325693 65.355380
32.584000 4281.478980 65.433011
32.588000 4256.922961 65.245099
32.592000 4394.147595 66.288367
32.596000 4362.485852 66.049117
32.600000 4379.083315 66.174643
32.604000 4471.043269 66.865860
32.608000 4484.125594 66.963614
32.612000 4529.753739 67.303445
32.616000 4754.746266 68.954668
32.620000 4731.716201 68.787471
32.624000 4667.551093 68.319478
32.628000 4808.139585 69.340750
32.632000 4907.667503 70.054746
32.636000 4800.703256 69.287107
32.640000 4863.844605 69.741269
32.644000 4948.405097 70.344901
32.648000 4928.702992 70.204722
32.652000 4979.342217 70.564454
32.656000 4951.967817 70.370220
32.660000 4870.229861 69.787032
32.664000 4915.511191 70.110707
32.668000 4957.620234 70.410370
32.672000 4932.231409 70.229847
32.676000 4916.693083 70.119135
32.680000 5012.458428 70.798718
32.684000 4950.530435 70.360006
32.688000 5053.999879 71.091489
32.692000 4999.846815 70.709595
32.696000 4948.078713 70.342581
32.700000 4949.082907 70.349719
32.704000 5060.351765 71.136149
32.708000 5019.307529 70.847071
32.712000 4957.556949 70.409921
32.716000 4908.209797 70.058617
32.720000 4959.258193 70.422001
32.724000 4958.078351 70.413623
32.728000 5042.477877 71.010407
32.732000 4977.267847 70.549754
32.736000 4936.564395 70.260689
32.740000 4871.741788 69.797864
32.744000 4834.916691 69.533565
32.748000 4808.973702 69.346764
32.752000 4848.005862 69.627623
32.756000 4896.783287 69.977020
32.760000 4895.123566 69.965160
32.764000 4781.858010 69.150980
32.768000 4807.593063 69.336809
32.772000 4851.919115 69.655718
32.776000 4755.212831 68.958051
32.780000 4752.033573 68.934995
32.784000 4732.255089 68.791388
32.788000 4728.088857 68.761100
32.792000 4692.409273 68.501163
32.796000 4585.497437 67.716301
32.800000 4626.174913 68.015990
32.804000 4561.165601 67.536402
32.808000 4530.969624 67.312477
32.812000 4556.161031 67.499341
32.816000 4530.613642 67.309833
32.820000 4513.217274 67.180483
32.824000 4500.163526 67.083258
32.828000 4405.851081 66.376585
32.832000 4402.482438 66.351205
32.836000 4397.388586 66.312809
32.840000 4316.456701 65.699747
32.844000 4340.258065 65.880635
32.848000 4417.283067 66.462644
32.852000 4351.792151 65.968115
32.856000 4392.372154 66.274974
32.860000 4430.554937 66.562414
32.864000 4345.511588 65.920494
32.868000 4388.652551 66.246906
32.872000 4307.713612 65.633175
32.876000 4274.133841 65.376860
32.880000 4287.760338 65.480992
32.884000 4275.364781 65.386274
32.888000 4170.881118 64.582359
32.892000 4182.328764 64.670927
32.896000 4116.639525 64.161044
32.900000 4137.790568 64.325660
32.904000 4097.899552 64.014839
32.908000 4191.092416 64.738647
32.912000 4271.914233 65.359882
32.916000 4191.594566 64.742525
32.920000 4096.067638 64.000528
32.924000 4098.402770 64.018769
32.928000 4038.320430 63.547781
32.932000 3987.605325 63.147489
32.936000 4037.002664 63.537412
32.940000 4065.211323 63.759010
32.944000 3999.000223 63.237649
32.948000 4036.285846 63.531770
32.952000 4075.715258 63.841329
32.956000 4025.271387 63.445026
32.960000 4062.319540 63.736328
32.964000 4079.525775 63.871165
32.968000 4053.898974 63.670236
32.972000 4058.986147 63.710173
32.976000 3975.300306 63.049983
32.980000 4092.531167 63.972894
32.984000 4062.809587 63.740172
32.988000 4168.556774 64.564361
32.992000 4077.125200 63.852370
32.996000 4147.776903 64.403237
33.000000 4121.573045 64.199479
33.004000 4136.164624 64.313021
33.008000 4137.340871 64.322165
33.012000 4113.128396 64.133676
33.016000 4012.402310 63.343526
33.020000 4126.164891 64.235231
33.024000 4116.207120 64.157674
33.028000 4084.350027 63.908920
33.032000 4051.903730 63.654566
33.036000 4070.143580 63.797677
33.040000 4067.160548 63.774294
33.044000 4175.613213 64.618985
33.048000 4169.496687 64.571640
33.052000 4101.391316 64.042106
33.056000 4109.700435 64.106945
33.060000 4092.521340 63.972817
33.064000 4073.285972 63.822300
33.068000 4089.619788 63.950135
33.072000 4107.018072 64.086021
33.076000 3984.924343 63.126257
33.080000 4067.006393 63.773085
33.084000 4017.160891 63.381077
33.088000 3932.416614 62.708984
33.092000 4041.872300 63.575721
33.096000 4040.567247 63.565456
33.100000 4090.300213 63.955455
33.104000 4134.868087 64.302940
33.108000 4137.090984 64.320222
33.112000 4080.261402 63.876924
33.116000 4040.860063 63.567760
33.120000 4077.457856 63.854975
33.124000 4079.348599 63.869778
33.128000 4132.547949 64.284897
33.132000 4045.084732 63.600981
33.136000 4087.650901 63.934739
33.140000 4070.288874 63.798816
33.144000 4072.883718 63.819149
33.148000 4083.988475 63.906091
33.152000 4080.602151 63.879591
33.156000 4043.627108 63.589520
33.160000 4088.880222 63.944353
33.164000 4138.325596 64.329819
33.168000 4151.441662 64.431682
33.172000 4100.512811 64.035247
33.176000 4108.963888 64.101200
33.180000 4155.684521 64.464599
33.184000 4154.268176 64.453613
33.188000 4242.653989 65.135658
33.192000 4235.255367 65.078840
33.196000 4229.746865 65.036504
33.200000 4164.495469 64.532902
33.204000 4178.915167 64.644529
33.208000 4262.629028 65.288812
33.212000 4313.603078 65.678026
33.216000 4325.799923 65.770814
33.220000 4386.535931 66.230929
33.224000 4326.787483 65.778321
33.228000 4317.459182 65.707375
33.232000 4334.949699 65.840335
33.236000 4286.723835 65.473077
33.240000 4367.731144 66.088813
33.244000 4341.609837 65.890893
33.248000 4405.628229 66.374907
33.252000 4391.896144 66.271383
33.256000 4412.069774 66.423413
33.260000 4419.042377 66.475878
33.264000 4457.266898 66.762766
33.268000 4518.747265 67.221628
33.272000 4541.435686 67.390175
33.276000 4482.007723 66.947798
33.280000 4498.075327 67.067692
33.284000 4685.091611 68.447729
33.288000 4597.312426 67.803484
33.292000 4731.081758 68.782859
33.296000 4790.453262 69.213100
33.300000 4626.847758 68.020936
33.304000 4745.269922 68.885920
33.308000 4727.375362 68.755911
33.312000 4716.215712 68.674709
33.316000 4608.111338 67.883071
33.320000 4716.879095 68.679539
33.324000 4735.121172 68.812217
33.328000 4624.833556 68.006129
33.332000 4581.449800 67.686408
33.336000 4586.994585 67.727355
33.340000 4504.500133 67.115573
33.344000 4556.739814 67.503628
33.348000 4488.952178 66.999643
33.352000 4441.376831 66.643656
33.356000 4440.169907 66.634600
33.360000 4456.438083 66.756558
33.364000 4386.291345 66.229082
33.368000 4366.248792 66.077597
33.372000 4378.100839 66.167219
33.376000 4402.134242 66.348581
33.380000 4271.352064 65.355582
33.384000 4216.061999 64.931210
33.388000 4234.306198 65.071547
33.392000 4299.592543 65.571278
33.396000 4288.890813 65.489624
33.400000 4218.178695 64.947507
33.404000 4225.333150 65.002563
33.408000 4163.333422 64.523898
33.412000 4034.341657 63.516468
33.416000 4088.084648 63.938131
33.420000 4133.019429 64.288564
33.424000 4118.457523 64.175210
33.428000 4083.252837 63.900335
33.432000 4160.650306 64.503103
33.436000 4231.760852 65.051986
33.440000 4106.086756 64.078754
33.444000 4056.056192 63.687174
33.448000 3997.915634 63.229073
33.452000 3999.376546 63.240624
33.456000 4126.850922 64.240571
33.460000 4024.577372 63.439557
33.464000 4090.755526 63.959014
33.468000 3988.528749 63.154800
33.472000 4057.347983 63.697315
33.476000 4077.698269 63.856858
33.480000 4181.271949 64.662756
33.484000 4217.509316 64.942354
33.488000 4275.680945 65.388691
33.492000 4340.964314 65.885995
33.496000 4464.238586 66.814958
33.500000 4407.969915 66.392544
33.504000 4419.936961 66.482606
33.508000 4518.790413 67.221949
33.512000 4561.247050 67.537005
33.516000 4651.156435 68.199387
33.520000 4760.992011 68.999942
33.524000 4786.231097 69.182592
33.528000 4830.961080 69.505115
33.532000 4822.983420 69.447703
33.536000 4824.031832 69.455251
33.540000 4884.454419 69.888872
33.544000 5055.005593 71.098563
33.548000 4877.492072 69.839044
33.552000 4995.247053 70.677062
33.556000 5085.932375 71.315723
33.560000 5072.740051 71.223171
33.564000 5224.693272 72.282040
33.568000 5228.436901 72.307931
33.572000 5266.750112 72.572378
33.576000 5422.521578 73.637773
33.580000 5466.748669 73.937465
33.584000 5523.542932 74.320542
33.588000 5602.901486 74.852532
33.592000 5860.501597 76.553913
33.596000 5981.217425 77.338331
33.600000 5947.728652 77.121519
33.604000 6101.353842 78.111163
33.608000 6286.543663 79.287727
33.612000 6341.712958 79.634873
33.616000 6402.075080 80.012968
33.620000 6488.139015 80.548985
33.624000 6524.837527 80.776466
33.628000 6482.701012 80.515222
33.632000 6459.506427 80.371055
33.636000 6480.630458 80.502363
33.640000 6501.076758 80.629255
33.644000 6524.656550 80.775346
33.648000 6389.491618 79.934296
33.652000 6485.764643 80.534245
33.656000 6339.442789 79.620618
33.660000 6368.440362 79.802508
33.664000 6119.510383 78.227299
33.668000 6170.629848 78.553357
33.672000 5923.641214 76.965195
33.676000 5694.156283 75.459633
33.680000 5618.494174 74.956615
33.684000 5474.028222 73.986676
33.688000 5390.284345 73.418556
33.692000 5112.935143 71.504791
33.696000 4992.173323 70.655313
33.700000 5024.622204 70.884570
33.704000 4896.784749 69.977030
33.708000 4725.385517 68.741440
33.712000 4633.575287 68.070370
33.716000 4593.407614 67.774683
33.720000 4522.699749 67.251020
33.724000 4580.377796 67.678488
33.728000 4500.066294 67.082533
33.732000 4515.416134 67.196846
33.736000 4454.402419 66.741310
33.740000 4318.429835 65.714761
33.744000 4350.400692 65.957567
33.748000 4302.497338 65.593424
33.752000 4227.748625 65.021140
33.756000 4312.651225 65.670779
33.760000 4196.950202 64.783873
33.764000 4151.936102 64.435519
33.768000 4173.997100 64.606479
33.772000 4272.699947 65.365893
33.776000 4264.377529 65.302202
33.780000 4291.376997 65.508602
33.784000 4287.038710 65.475482
33.788000 4384.810567 66.217902
33.792000 4365.239084 66.069956
33.796000 4438.618233 66.622956
33.800000 4419.054313 66.475968
33.804000 4426.347178 66.530799
33.808000 4452.028754 66.723525
33.812000 4527.646922 67.287792
33.816000 4542.603837 67.398842
33.820000 4635.361022 68.083486
33.824000 4700.294196 68.558692
33.828000 4663.928359 68.292960
33.832000 4856.082002 69.685594
33.836000 4869.799255 69.783947
33.840000 4964.804903 70.461372
33.844000 5084.127263 71.303066
33.848000 5066.352236 71.178313
33.852000 5186.860596 72.019863
33.856000 5256.331470 72.500562
33.860000 5292.271529 72.748000
33.864000 5413.449414 73.576147
33.868000 5171.804047 71.915256
33.872000 5163.592269 71.858140
33.876000 5186.536475 72.017612
33.880000 5117.726812 71.538289
33.884000 5087.156465 71.324305
33.888000 4985.954739 70.611293
33.892000 4937.022364 70.263948
33.896000 4944.250552 70.315365
33.900000 4906.554846 70.046805
33.904000 4849.392917 69.637583
33.908000 4734.959531 68.811042
33.912000 4768.364686 69.053347
33.916000 4775.233493 69.103064
33.920000 4618.830838 67.961981
33.924000 4597.513355 67.804966
33.928000 4630.026488 68.044298
33.932000 4515.621938 67.198377
33.936000 4511.762861 67.169657
33.940000 4498.815761 67.073212
33.944000 4535.117327 67.343280
33.948000 4510.283758 67.158646
33.952000 4535.231097 67.344124
33.956000 4435.677668 66.600883
33.960000 4483.572417 66.959483
33.964000 4524.736943 67.266165
33.968000 4448.829073 66.699543
33.972000 4482.823437 66.953890
33.976000 4450.202875 66.709841
33.980000 4471.988436 66.872928
33.984000 4437.650760 66.615695
33.988000 4332.103301 65.818715
33.992000 4438.929465 66.625291
33.996000 4441.738285 66.646367
34.000000 4531.338199 67.315215
34.004000 4376.875399 66.157958
34.008000 4386.085973 66.227532
34.012000 4519.469116 67.226997
34.016000 4494.679547 67.042371
34.020000 4412.990149 66.430341
34.024000 4536.321533 67.352220
34.028000 4442.145061 66.649419
34.032000 4427.095314 66.536421
34.036000 4455.519563 66.749678
34.040000 4305.412141 65.615639
34.044000 4423.899792 66.512403
34.048000 4400.705882 66.337816
34.052000 4477.089989 66.911060
34.056000 4444.691160 66.668517
34.060000 4434.435188 66.591555
34.064000 4432.929180 66.580246
34.068000 4434.816628 66.594419
34.072000 4405.726910 66.375650
34.076000 4396.830260 66.308599
34.080000 4381.809372 66.195237
34.084000 4477.918020 66.917248
34.088000 4463.973349 66.812973
34.092000 4461.492545 66.794405
34.096000 4460.561884 66.787438
34.100000 4512.346819 67.174004
34.104000 4511.782481 67.169803
34.108000 4466.283352 66.830258
34.112000 4563.100878 67.550728
34.116000 4550.041534 67.453996
34.120000 4444.214799 66.664944
34.124000 4552.344738 67.471066
34.128000 4570.468317 67.605239
34.132000 4542.077722 67.394938
34.136000 4517.850227 67.214955
34.140000 4483.374314 66.958004
34.144000 4479.961484 66.932514
34.148000 4539.143199 67.373164
34.152000 4464.411076 66.816249
34.156000 4550.189513 67.455093
34.160000 4581.392068 67.685981
34.164000 4628.886217 68.035919
34.168000 4626.633387 68.019360
34.172000 4565.525952 67.568676
34.176000 4720.694603 68.707311
34.180000 4770.088636 69.065828
34.184000 4823.584354 69.452029
34.188000 4887.000000 69.907081
34.192000 4868.277955 69.773046
34.196000 4780.371573 69.140231
34.200000 4888.499867 69.917808
34.204000 4959.791525 70.425787
34.208000 5090.671894 71.348945
34.212000 5213.169609 72.202283
34.216000 5244.564280 72.419364
34.220000 5218.796380 72.241237
34.224000 5350.423056 73.146586
34.228000 5401.176471 73.492697
34.232000 5556.365032 74.541029
34.236000 5699.770828 75.496827
34.240000 5823.668264 76.312963
34.244000 5904.211605 76.838868
34.248000 5872.913761 76.634938
34.252000 5968.123281 77.253630
34.256000 5998.176122 77.447893
34.260000 6103.036688 78.121935
34.264000 6142.486825 78.374019
34.268000 6185.416556 78.647419
34.272000 6215.385517 78.837716
34.276000 6187.033271 78.657697
34.280000 6116.490756 78.207997
34.284000 6236.494810 78.971481
34.288000 6095.541921 78.073952
34.292000 6114.712546 78.196627
34.296000 5942.864817 77.089979
34.300000 5898.903114 76.804317
34.304000 5998.351344 77.449024
34.308000 5864.604665 76.580707
34.312000 5840.807343 76.425175
34.316000 5735.528347 75.733271
34.320000 5670.960710 75.305781
34.324000 5658.074528 75.220174
34.328000 5745.919703 75.801845
34.332000 5600.121555 74.833960
34.336000 5590.571733 74.770126
34.340000 5440.323662 73.758550
34.344000 5176.019430 71.944558
34.348000 5344.395031 73.105369
34.352000 5199.029653 72.104297
34.356000 5140.720788 71.698820
34.360000 5081.678999 71.285896
34.364000 4928.371712 70.202363
34.368000 4914.357501 70.102479
34.372000 4840.010381 69.570183
34.376000 4786.716595 69.186101
34.380000 4773.818738 69.092827
34.384000 4685.533670 68.450958
34.388000 4628.561502 68.033532
34.392000 4485.747671 66.975724
34.396000 4559.836838 67.526564
34.400000 4453.026517 66.731001
34.404000 4486.489752 66.981264
34.408000 4511.822007 67.170098
34.412000 4402.370618 66.350363
34.416000 4421.524887 66.494548
34.420000 4446.794783 66.684292
34.424000 4416.051105 66.453375
34.428000 4352.746606 65.975348
34.432000 4313.695542 65.678730
34.436000 4375.576258 66.148139
34.440000 4315.176670 65.690004
34.444000 4297.629225 65.556306
34.448000 4177.643865 64.634696
34.452000 4307.306501 65.630073
34.456000 4279.468697 65.417648
34.460000 4168.796646 64.566219
34.464000 4391.155709 66.265796
34.468000 4279.202840 65.415616
34.472000 4273.794251 65.374263
34.476000 4310.891090 65.657377
34.480000 4227.343093 65.018021
34.484000 4253.275235 65.217139
34.488000 4221.614586 64.973953
34.492000 4094.675539 63.989652
34.496000 4186.628241 64.704159
34.500000 4166.528613 64.548653
34.504000 4144.871892 64.380679
34.508000 4204.751930 64.844059
34.512000 4155.802768 64.465516
34.516000 4149.127115 64.413718
34.520000 4228.630130 65.027918
34.524000 4214.424275 64.918597
34.528000 4121.392068 64.198069
34.532000 4176.763109 64.627882
34.536000 4251.345740 65.202345
34.540000 4229.451495 65.034233
34.544000 4240.865052 65.121925
34.548000 4238.389673 65.102916
34.552000 4334.310620 65.835481
34.556000 4374.285833 66.138384
34.560000 4331.794921 65.816373
34.564000 4411.933990 66.422391
34.568000 4398.297046 66.319658
34.572000 4460.637743 66.788006
34.576000 4601.041069 67.830974
34.580000 4482.555445 66.951889
34.584000 4546.013841 67.424134
34.588000 4674.940112 68.373534
34.592000 4690.753055 68.489073
34.596000 4684.249667 68.441578
34.600000 4629.476052 68.040253
34.604000 4760.586638 68.997005
34.608000 4795.241150 69.247680
34.612000 4803.866284 69.309929
34.616000 4910.003726 70.071419
34.620000 4815.258996 69.392067
34.624000 4839.094756 69.563602
34.628000 4904.116050 70.029394
34.632000 4862.258185 69.729894
34.636000 4978.157348 70.556058
34.640000 4909.586106 70.068439
34.644000 4924.525153 70.174961
34.648000 5085.400852 71.311997
34.652000 5062.043918 71.148042
34.656000 5088.643996 71.334732
34.660000 5156.682992 71.810048
34.664000 5261.078786 72.533294
34.668000 5302.089433 72.815448
34.672000 5283.498817 72.687680
34.676000 5342.758135 73.094173
34.680000 5358.520362 73.201915
34.684000 5332.220389 73.022054
34.688000 5546.799050 74.476836
34.692000 5502.961672 74.181950
34.696000 5570.437583 74.635364
34.700000 5453.328541 73.846656
34.704000 5549.932393 74.497868
34.708000 5500.652915 74.166387
34.712000 5403.156242 73.506165
34.716000 5323.867592 72.964838
34.720000 5414.765833 73.585092
34.724000 5233.534735 72.343173
34.728000 5227.349747 72.300413
34.732000 5170.689114 71.907504
34.736000 5085.167355 71.310359
34.740000 4991.429482 70.650049
34.744000 5009.784935 70.779834
34.748000 4956.258185 70.400697
34.752000 4649.819537 68.189585
34.756000 4837.767101 69.554059
34.760000 4737.361459 68.828493
34.764000 4721.286209 68.711616
34.768000 4639.755656 68.115752
34.772000 4670.715464 68.342633
34.776000 4523.018366 67.253389
34.780000 4569.918270 67.601171
34.784000 4502.965749 67.104141
34.788000 4589.840564 67.748362
34.792000 4529.157055 67.299012
34.796000 4503.893266 67.111052
34.800000 4462.916423 66.805063
34.804000 4423.401491 66.508657
34.808000 4445.607932 66.675392
34.812000 4345.964067 65.923926
34.816000 4394.686281 66.292430
34.820000 4344.892734 65.915800
34.824000 4378.027149 66.166662
34.828000 4337.464058 65.859426
34.832000 4388.377695 66.244831
34.836000 4338.870109 65.870100
34.840000 4322.171962 65.743228
34.844000 4351.490511 65.965828
34.848000 4278.304764 65.408751
34.852000 4272.572604 65.364919
34.856000 4324.532073 65.761175
34.860000 4354.914826 65.991778
34.864000 4291.725240 65.511260
34.868000 4286.744211 65.473233
34.872000 4384.548631 66.215924
34.876000 4328.891669 65.794313
34.880000 4357.684544 66.012760
34.884000 4376.139083 66.152393
34.888000 4447.215331 66.687445
34.892000 4380.909830 66.188442
34.896000 4261.040192 65.276644
34.900000 4461.414863 66.793824
34.904000 4347.060725 65.932243
34.908000 4397.958478 66.317105
34.912000 4350.507563 65.958378
34.916000 4453.411232 66.733884
34.920000 4563.052876 67.550373
34.924000 4412.294042 66.425101
34.928000 4480.352409 66.935435
34.932000 4690.233035 68.485276
34.936000 4626.208185 68.016235
34.940000 4566.974408 67.579393
34.944000 4666.969923 68.315225
34.948000 4743.135802 68.870428
34.952000 4783.103707 69.159986
34.956000 4706.091228 68.600956
34.960000 4741.635614 68.859535
34.964000 4875.392752 69.824013
34.968000 4925.534831 70.182155
34.972000 4883.806761 69.884238
34.976000 4977.072397 70.548369
34.980000 5015.993080 70.823676
34.984000 5038.476038 70.982223
34.988000 5126.944637 71.602686
34.992000 5060.024746 71.133851
34.996000 5179.960064 71.971939
35.000000 5117.099281 71.533903
35.004000 5097.906116 71.399623
35.008000 5266.472984 72.570469
35.012000 5264.110756 72.554192
35.016000 5228.840564 72.310722
35.020000 5446.730426 73.801968
35.024000 5246.658953 72.433825
35.028000 5320.390859 72.941009
35.032000 5282.311419 72.679512
35.036000 5166.430777 71.877888
35.040000 5147.337639 71.744949
35.044000 5179.124035 71.966131
35.048000 5167.546409 71.885648
35.052000 5113.162806 71.506383
35.056000 5063.942414 71.161383
35.060000 4920.611821 70.147073
35.064000 5001.466521 70.721047
35.068000 4775.950776 69.108254
35.072000 4754.084868 68.949872
35.076000 4715.117223 68.666711
35.080000 4675.935373 68.380811
35.084000 4671.557626 68.348794
35.088000 4474.113020 66.888811
35.092000 4570.253846 67.603653
35.096000 4521.194564 67.239829
35.100000 4392.973409 66.279510
35.104000 4378.240299 66.168273
35.108000 4405.917830 66.377088
35.112000 4381.049184 66.189495
35.116000 4262.421613 65.287224
35.120000 4268.488552 65.333671
35.124000 4329.983497 65.802610
35.128000 4316.058754 65.696718
35.132000 4181.016773 64.660782
35.136000 4172.748470 64.596815
35.140000 4148.731088 64.410644
35.144000 4203.010383 64.830628
35.148000 4286.569223 65.471896
35.152000 4240.350812 65.117976
35.156000 4201.536132 64.819257
35.160000 4178.039404 64.637755
35.164000 4197.484163 64.787994
35.168000 4233.234824 65.063314
35.172000 4151.905926 64.435285
35.176000 4226.213390 65.009333
35.180000 4204.984015 64.845848
35.184000 4252.144779 65.208472
35.188000 4221.937433 64.976438
35.192000 4172.769497 64.596977
35.196000 4167.356230 64.555064
35.200000 4113.758831 64.138591
35.204000 4161.549494 64.510073
35.208000 4201.178647 64.816500
35.212000 4193.784400 64.759435
35.216000 4260.311558 65.271062
35.220000 4255.059638 65.230818
35.224000 4193.294549 64.755653
35.228000 4225.616880 65.004745
35.232000 4255.247804 65.232260
35.236000 4391.936635 66.271688
35.240000 4342.621334 65.898569
35.244000 4329.261981 65.797127
35.248000 4388.943901 66.249105
35.252000 4469.717252 66.855944
35.256000 4486.289105 66.979766
35.260000 4507.221131 67.135841
35.264000 4578.724512 67.666273
35.268000 4547.685836 67.436532
35.272000 4711.123003 68.637621
35.276000 4835.396888 69.537018
35.280000 4859.859425 69.712692
35.284000 4883.196007 69.879868
35.288000 4951.789137 70.368950
35.292000 5153.685681 71.789175
35.296000 5214.645101 72.212500
35.300000 5326.122893 72.980291
35.304000 5588.728435 74.757798
35.308000 5574.081203 74.659770
35.312000 5688.215348 75.420258
35.316000 5920.461129 76.944533
35.320000 6106.264788 78.142593
35.324000 6192.814696 78.694439
35.328000 6428.581797 80.178437
35.332000 6619.980032 81.363260
35.336000 6802.939639 82.479935
35.340000 6858.538605 82.816294
35.344000 6993.139888 83.624996
35.348000 7103.655751 84.283188
35.352000 7332.261715 85.628627
35.356000 7406.977337 86.063798
35.360000 7428.136848 86.186640
35.364000 7382.886581 85.923725
35.368000 7324.566047 85.583679
35.372000 7299.737753 85.438503
35.376000 7099.600639 84.259128
35.380000 7094.178182 84.226945
35.384000 6767.182109 82.262884
35.388000 6686.947817 81.773760
35.392000 6280.548905 79.249914
35.396000 6325.252929 79.531459
35.400000 6158.256041 78.474557
35.404000 6060.161206 77.847037
35.408000 5966.226038 77.241349
35.412000 5737.122471 75.743795
35.416000 5606.801556 74.878579
35.420000 5678.632322 75.356701
35.424000 5594.937966 74.799318
35.428000 5552.561502 74.515512
35.432000 5473.798472 73.985123
35.436000 5581.623003 74.710260
35.440000 5524.043833 74.323912
35.444000 5696.404420 75.474528
35.448000 5823.263975 76.310314
35.452000 5828.016773 76.341449
35.456000 5954.344784 77.164401
35.460000 6235.817625 78.967193
35.464000 6296.356905 79.349587
35.468000 6435.189288 80.219632
35.472000 6585.791001 81.152887
35.476000 6747.686901 82.144305
35.480000 6892.303655 83.019899
35.484000 7001.641640 83.675813
35.488000 7137.784145 84.485408
35.492000 7199.717785 84.851151
35.496000 7336.341054 85.652443
35.500000 7340.790469 85.678413
35.504000 7313.556177 85.519332
35.508000 7552.815425 86.906935
35.512000 7430.701278 86.201516
35.516000 7557.754677 86.935348
35.520000 7390.873802 85.970191
35.524000 7503.531949 86.622930
35.528000 7494.781853 86.572408
35.532000 7252.493344 85.161572
35.536000 7174.685561 84.703516
35.540000 7043.736954 83.926974
35.544000 7100.809326 84.266300
35.548000 6608.058307 81.289964
35.552000 6678.840788 81.724175
35.556000 6639.924771 81.485734
35.560000 6493.548722 80.582558
35.564000 6382.927601 79.893226
35.568000 6252.420660 79.072250
35.572000 6049.555353 77.778888
35.576000 5948.586921 77.127083
35.580000 5883.884984 76.706486
35.584000 5790.250657 76.093697
35.588000 5720.464058 75.633749
35.592000 5605.939614 74.872823
35.596000 5503.554367 74.185945
35.600000 5486.265974 74.069332
35.604000 5362.180486 73.226911
35.608000 5373.381789 73.303355
35.612000 5274.943437 72.628806
35.616000 5333.339723 73.029718
35.620000 5394.730770 73.448831
35.624000 5452.113182 73.838426
35.628000 5521.681256 74.308016
35.632000 5534.327742 74.393062
35.636000 5575.510933 74.669344
35.640000 5606.058289 74.873615
35.644000 5714.945526 75.597259
35.648000 5810.119119 76.224137
35.652000 5726.923479 75.676439
35.656000 5962.700333 77.218523
35.660000 5969.581571 77.263067
35.664000 6055.162673 77.814926
35.668000 6023.962058 77.614187
35.672000 6054.670573 77.811764
35.676000 5927.625599 76.991075
35.680000 6143.523564 78.380633
35.684000 6088.215389 78.027017
35.688000 6008.933156 77.517309
35.692000 5856.584408 76.528324
35.696000 5904.468861 76.840542
35.700000 5785.228221 76.060688
35.704000 5734.779384 75.728326
35.708000 5711.197393 75.572465
35.712000 5523.908123 74.322999
35.716000 5496.278790 74.136892
35.720000 5429.420881 73.684604
35.724000 5315.689747 72.908777
35.728000 5297.371790 72.783046
35.732000 5228.168497 72.306075
35.736000 5111.935819 71.497803
35.740000 5177.074455 71.951890
35.744000 4986.653706 70.616243
35.748000 4941.583755 70.296399
35.752000 4835.992494 69.541301
35.756000 4868.516636 69.774756
35.760000 4791.453262 69.220324
35.764000 4744.158988 68.877856
35.768000 4676.497483 68.384921
35.772000 4595.164581 67.787643
35.776000 4599.782377 67.821695
35.780000 4556.550190 67.502224
35.784000 4601.724368 67.836011
35.788000 4584.651879 67.710057
35.792000 4515.188016 67.195149
35.796000 4425.062520 66.521143
35.800000 4391.120864 66.265533
35.804000 4396.329699 66.304824
35.808000 4428.859387 66.549676
35.812000 4355.682024 65.997591
35.816000 4395.230147 66.296532
35.820000 4360.548484 66.034449
35.824000 4463.716667 66.811052
35.828000 4482.294773 66.949942
35.832000 4339.280447 65.873215
35.836000 4414.819174 66.444106
35.840000 4356.262117 66.001986
35.844000 4299.947576 65.573986
35.848000 4433.294939 66.582993
35.852000 4408.398136 66.395769
35.856000 4524.880132 67.267229
35.860000 4389.243225 66.251364
35.864000 4334.686175 65.838334
35.868000 4448.542743 66.697397
35.872000 4427.820944 66.541874
35.876000 4584.993076 67.712577
35.880000 4529.411451 67.300902
35.884000 4597.286066 67.803289
35.888000 4643.651664 68.144344
35.892000 4639.663329 68.115074
35.896000 4618.642660 67.960596
35.900000 4606.180888 67.868851
35.904000 4587.739547 67.732854
35.908000 4640.551545 68.121594
35.912000 4639.401141 68.113150
35.916000 4538.621135 67.369289
35.920000 4597.776298 67.806905
35.924000 4609.063587 67.890085
35.928000 4691.009854 68.490947
35.932000 4791.627540 69.221583
35.936000 4694.131892 68.513735
35.940000 4757.521438 68.974788
35.944000 4753.319456 68.944321
35.948000 4757.824136 68.976983
35.952000 4778.605859 69.127461
35.956000 4604.093320 67.853469
35.960000 4532.121316 67.321032
35.964000 4684.900666 68.446334
35.968000 4678.043238 68.396222
35.972000 4675.990296 68.381213
35.976000 4816.011346 69.397488
35.980000 4852.021039 69.656450
35.984000 4949.149353 70.350191
35.988000 5076.007542 71.246105
35.992000 5058.215636 71.121134
35.996000 5011.780943 70.793933
36.000000 4999.295606 70.705697
36.004000 5258.806682 72.517630
36.008000 5228.083069 72.305484
36.012000 5270.359833 72.597244
36.016000 5178.361517 71.960833
36.020000 5274.362942 72.624809
36.024000 5152.284230 71.779414
36.028000 5156.008872 71.805354
36.032000 5075.303769 71.241166
36.036000 5082.236547 71.289807
36.040000 5015.824501 70.822486
36.044000 4927.889657 70.198929
36.048000 4956.016516 70.398981
36.052000 4839.914491 69.569494
36.056000 4838.534856 69.559578
36.060000 4630.429775 68.047261
36.064000 4565.197761 67.566247
36.068000 4619.240011 67.964991
36.072000 4604.089404 67.853441
36.076000 4531.582919 67.317033
36.080000 4575.247736 67.640578
36.084000 4554.008654 67.483395
36.088000 4540.065398 67.380007
36.092000 4565.596164 67.569195
36.096000 4504.140187 67.112891
36.100000 4395.264519 66.296791
36.104000 4376.218966 66.152997
36.108000 4397.036845 66.310156
36.112000 4469.342568 66.853142
36.116000 4515.767803 67.199463
36.120000 4420.097635 66.483815
36.124000 4524.799947 67.266633
36.128000 4487.446691 66.988407
36.132000 4446.183622 66.679709
36.136000 4362.588972 66.049898
36.140000 4509.483039 67.152685
36.144000 4467.269046 66.837632
36.148000 4514.384495 67.189169
36.152000 4542.933978 67.401291
36.156000 4504.217602 67.113468
36.160000 4461.230258 66.792442
36.164000 4573.390759 67.626849
36.168000 4583.655523 67.702700
36.172000 4545.612043 67.421154
36.176000 4595.578593 67.790697
36.180000 4578.192328 67.662341
36.184000 4662.498899 68.282493
36.188000 4575.182811 67.640098
36.192000 4728.833838 68.766517
36.196000 4661.413529 68.274545
36.200000 4725.998135 68.745895
36.204000 4682.597457 68.429507
36.208000 4811.574692 69.365515
36.212000 4794.945392 69.245544
36.216000 4673.671461 68.364256
36.220000 4764.541289 69.025657
36.224000 4733.993307 68.804021
36.228000 4833.287801 69.521851
36.232000 4790.592699 69.214108
36.236000 4801.381985 69.292005
36.240000 4868.188064 69.772402
36.244000 4857.197594 69.693598
36.248000 4991.603090 70.651278
36.252000 5229.653809 72.316345
36.256000 5125.506188 71.592641
36.260000 5240.478597 72.391150
36.264000 5255.998332 72.498264
36.268000 5239.455205 72.384081
36.272000 5315.586308 72.908068
36.276000 5263.575939 72.550506
36.280000 5263.544748 72.550291
36.284000 5201.385396 72.120631
36.288000 5274.253180 72.624054
36.292000 5269.777250 72.593231
36.296000 5251.905974 72.470035
36.300000 5198.426882 72.100117
36.304000 5068.425138 71.192873
36.308000 5112.378057 71.500896
36.312000 5050.226556 71.064946
36.316000 5011.717166 70.793483
36.320000 5098.493508 71.403736
36.324000 4995.267671 70.677208
36.328000 4927.350967 70.195092
36.332000 4966.466744 70.473163
36.336000 5028.167016 70.909569
36.340000 4965.720305 70.467867
36.344000 4873.322305 69.809185
36.348000 4830.388349 69.500995
36.352000 4910.754611 70.076777
36.356000 4833.702719 69.524835
36.360000 4711.641709 68.641399
36.364000 4742.355655 68.864764
36.368000 4754.994937 68.956471
36.372000 4726.422075 68.748979
36.376000 4687.022282 68.461831
36.380000 4713.753641 68.656781
36.384000 4721.648955 68.714256
36.388000 4701.430324 68.566977
36.392000 4715.409102 68.668836
36.396000 4677.299411 68.390785
36.400000 4742.905008 68.868752
36.404000 4696.070391 68.527880
36.408000 4759.920863 68.992180
36.412000 4858.951312 69.706178
36.416000 4751.444977 68.930726
36.420000 4796.788899 69.258854
36.424000 4837.928590 69.555220
36.428000 4799.028842 69.275023
36.432000 4852.002931 69.656320
36.436000 4815.703628 69.395271
36.440000 4809.495802 69.350528
36.444000 4750.554756 68.924268
36.448000 4813.530516 69.379612
36.452000 4771.682415 69.077365
36.456000 4840.100453 69.570830
36.460000 4726.111398 68.746719
36.464000 4704.913417 68.592371
36.468000 4552.519898 67.472364
36.472000 4715.368001 68.668537
36.476000 4595.689360 67.791514
36.480000 4516.119703 67.202081
36.484000 4460.297895 66.785462
36.488000 4441.726884 66.646282
36.492000 4436.352775 66.605951
36.496000 4424.699887 66.518418
36.500000 4379.468519 66.177553
36.504000 4483.565461 66.959431
36.508000 4355.874437 65.999049
36.512000 4297.954771 65.558789
36.516000 4383.535305 66.208272
36.520000 4297.647226 65.556443
36.524000 4308.314488 65.637752
36.528000 4236.009471 65.084633
36.532000 4190.747081 64.735980
36.536000 4165.612062 64.541553
36.540000 4219.756521 64.959653
36.544000 4232.748757 65.059579
36.548000 4243.100830 65.139088
36.552000 4130.532586 64.269220
36.556000 4126.246603 64.235867
36.560000 4164.742453 64.534816
36.564000 4254.917596 65.229729
36.568000 4122.278785 64.204975
36.572000 4098.278365 64.017797
36.576000 4094.173588 63.985730
36.580000 4059.868147 63.717095
36.584000 4175.221998 64.615958
36.588000 4151.788780 64.434376
36.592000 4110.376462 64.112218
36.596000 4124.474947 64.222075
36.600000 4156.390274 64.470073
36.604000 4262.374887 65.286866
36.608000 4129.022274 64.257469
36.612000 4143.725633 64.371777
36.616000 4221.554425 64.973490
36.620000 4141.895118 64.357557
36.624000 4245.957356 65.161011
36.628000 4165.850510 64.543400
36.632000 4212.634458 64.904811
36.636000 4246.917313 65.168377
36.640000 4191.473443 64.741590
36.644000 4154.848243 64.458112
36.648000 4247.171933 65.170330
36.652000 4311.641258 65.663089
36.656000 4298.430359 65.562416
36.660000 4294.655067 65.533618
36.664000 4292.092751 65.514065
36.668000 4217.635356 64.943324
36.672000 4210.609917 64.889213
36.676000 4258.618165 65.258089
36.680000 4280.960288 65.429048
36.684000 4277.399587 65.401832
36.688000 4241.928639 65.130090
36.692000 4169.386698 64.570788
36.696000 4150.716428 64.426054
36.700000 4059.413380 63.713526
36.704000 4130.614362 64.269856
36.708000 4219.168974 64.955130
36.712000 4086.698192 63.927288
36.716000 4151.992204 64.435954
36.720000 4144.195074 64.375423
36.724000 4224.733206 64.997948
36.728000 4165.453226 64.540322
36.732000 4105.325285 64.072812
36.736000 4135.791141 64.310117
36.740000 4050.881379 63.646535
36.744000 4028.522237 63.470641
36.748000 4022.050041 63.419635
36.752000 4128.943786 64.256858
36.756000 4106.665524 64.083270
36.760000 4022.330614 63.421847
36.764000 4069.035219 63.788990
36.768000 4076.133298 63.844603
36.772000 4086.608117 63.926584
36.776000 4136.298358 64.314060
36.780000 4168.471833 64.563704
36.784000 4204.506836 64.842169
36.788000 4144.212475 64.375558
36.792000 4158.258967 64.484564
36.796000 4108.928518 64.100924
36.800000 4174.428272 64.609816
36.804000 4256.295516 65.240291
36.808000 4166.947613 64.551899
36.812000 4152.599158 64.440664
36.816000 4201.237889 64.816957
36.820000 4276.706063 65.396529
36.824000 4230.886229 65.045263
36.828000 4226.143585 65.008796
36.832000 4296.617249 65.548587
36.836000 4289.955221 65.497750
36.840000 4228.589176 65.027603
36.844000 4387.157926 66.235624
36.848000 4462.476082 66.801767
36.852000 4524.143695 67.261755
36.856000 4492.292933 67.024570
36.860000 4502.586847 67.101318
36.864000 4483.353945 66.957852
36.868000 4468.707664 66.848393
36.872000 4434.490405 66.591970
36.876000 4578.890429 67.667499
36.880000 4631.044776 68.051780
36.884000 4645.329246 68.156652
36.888000 4677.172175 68.389854
36.892000 4742.782191 68.867860
36.896000 4712.963753 68.651029
36.900000 4805.611304 69.322517
36.904000 4825.881098 69.468562
36.908000 4718.307036 68.689934
36.912000 4820.259664 69.428090
36.916000 4784.991736 69.173635
36.920000 4711.007463 68.636779
36.924000 4771.241802 69.074176
36.928000 4647.763263 68.174506
36.932000 4692.544776 68.502152
36.936000 4875.923754 69.827815
36.940000 4797.944548 69.267197
36.944000 4807.294055 69.334653
36.948000 4805.498267 69.321701
36.952000 4809.393762 69.349793
36.956000 4831.059701 69.505825
36.960000 4792.106638 69.225043
36.964000 4861.527593 69.724656
36.968000 4850.917089 69.648525
36.972000 4804.382298 69.313652
36.976000 4883.955745 69.885304
36.980000 4962.617969 70.445851
36.984000 4682.588110 68.429439
36.988000 4863.041322 69.735510
36.992000 4923.398560 70.166934
36.996000 4978.553600 70.558866
37.000000 5058.228739 71.121226
37.004000 4999.168222 70.704796
37.008000 4940.410557 70.288054
37.012000 4939.315383 70.280263
37.016000 4991.338843 70.649408
37.020000 5150.303467 71.765615
37.024000 4987.190616 70.620044
37.028000 5011.800587 70.794072
37.032000 4907.533458 70.053790
37.036000 5067.830400 71.188696
37.040000 5097.728073 71.398376
37.044000 5165.440000 71.870996
37.048000 5014.274060 70.811539
37.052000 4971.796321 70.510966
37.056000 5058.649600 71.124184
37.060000 5009.162890 70.775440
37.064000 4961.586133 70.438527
37.068000 4873.212013 69.808395
37.072000 4941.720931 70.297375
37.076000 4960.940549 70.433945
37.080000 4823.175319 69.449084
37.084000 4789.929086 69.209314
37.088000 4814.894348 69.389440
37.092000 4820.652598 69.430920
37.096000 4838.604525 69.560079
37.100000 4780.926169 69.144242
37.104000 4823.961365 69.454743
37.108000 4814.842593 69.389067
37.112000 4797.545005 69.264313
37.116000 4697.640369 68.539334
37.120000 4906.797441 70.048536
37.124000 4629.658849 68.041596
37.128000 4660.528392 68.268063
37.132000 4584.885928 67.711786
37.136000 4749.430171 68.916110
37.140000 4742.924840 68.868896
37.144000 4710.392429 68.632299
37.148000 4945.008529 70.320755
37.152000 4855.268657 69.679758
37.156000 4795.167377 69.247147
37.160000 4672.218550 68.353629
37.164000 4847.689150 69.625348
37.168000 4884.526652 69.889389
37.172000 4835.426439 69.537231
37.176000 4746.260661 68.893110
37.180000 4877.521855 69.839257
37.184000 4897.127399 69.979478
37.188000 4921.723881 70.154999
37.192000 4980.624200 70.573538
37.196000 5038.267591 70.980755
37.200000 5103.070362 71.435778
37.204000 5013.611407 70.806860
37.208000 5020.965095 70.858769
37.212000 5078.296375 71.262167
37.216000 5140.584222 71.697868
37.220000 5075.864606 71.245102
37.224000 5097.695096 71.398145
37.228000 5049.897655 71.062632
37.232000 5226.433253 72.294075
37.236000 5254.471748 72.487735
37.240000 5433.720149 73.713772
37.244000 5296.784972 72.779015
37.248000 5307.791045 72.854588
37.252000 5072.746269 71.223214
37.256000 5295.104183 72.767467
37.260000 5285.053305 72.698372
37.264000 5258.292033 72.514082
37.268000 5310.065032 72.870193
37.272000 5219.545842 72.246424
37.276000 5215.673861 72.219622
37.280000 5095.134328 71.380210
37.284000 5051.426592 71.073389
37.288000 4921.074627 70.150372
37.292000 4939.782574 70.283587
37.296000 4853.407783 69.666404
37.300000 4978.837730 70.560880
37.304000 5060.421642 71.136641
37.308000 4916.601652 70.118483
37.312000 4762.195044 69.008659
37.316000 4780.555970 69.141565
37.320000 4754.828998 68.955268
37.324000 4786.679898 69.185836
37.328000 4633.140332 68.067175
37.332000 4699.733003 68.554599
37.336000 4640.447957 68.120834
37.340000 4717.855147 68.686645
37.344000 4736.960021 68.825577
37.348000 4705.165540 68.594209
37.352000 4743.523488 68.873242
37.356000 4707.203832 68.609065
37.360000 4655.814949 68.233532
37.364000 4759.811915 68.991390
37.368000 4732.515665 68.793282
37.372000 4762.465308 69.010617
37.376000 4765.503316 69.032625
37.380000 4779.207923 69.131816
37.384000 4725.293257 68.740769
37.388000 4778.884363 69.129475
37.392000 4722.244036 68.718586
37.396000 4676.414436 68.384314
37.400000 4739.565095 68.844499
37.404000 4734.293700 68.806204
37.408000 4659.923445 68.263632
37.412000 4661.958868 68.278539
37.416000 4618.842770 67.962069
37.420000 4718.328693 68.690092
37.424000 4671.721010 68.349989
37.428000 4697.296025 68.536822
37.432000 4606.032111 67.867755
37.436000 4692.389207 68.501016
37.440000 4623.141390 67.993686
37.444000 4627.156051 68.023202
37.448000 4598.408617 67.811567
37.452000 4671.413283 68.347738
37.456000 4628.497349 68.033061
37.460000 4674.765830 68.372259
37.464000 4631.895068 68.058027
37.468000 4674.497427 68.370296
37.472000 4816.301268 69.399577
37.476000 4782.715506 69.157180
37.480000 4711.256011 68.638590
37.484000 4842.855350 69.590627
37.488000 4883.700879 69.883481
37.492000 4934.543927 70.246309
37.496000 5048.338129 71.051658
37.500000 5117.854552 71.539182
37.504000 5129.773830 71.622439
37.508000 5239.135535 72.381873
37.512000 5182.568659 71.990059
37.516000 5348.439535 73.133026
37.520000 5395.076810 73.451187
37.524000 5517.390621 74.279140
37.528000 5461.542041 73.902247
37.532000 5392.706735 73.435051
37.536000 5353.434863 73.167171
37.540000 5583.050777 74.719815
37.544000 5442.374360 73.772450
37.548000 5452.124984 73.838506
37.552000 5279.079159 72.657272
37.556000 5328.617704 72.997381
37.560000 5369.916867 73.279717
37.564000 5307.514857 72.852693
37.568000 5276.250173 72.637801
37.572000 5348.708320 73.134864
37.576000 5215.097254 72.215630
37.580000 5219.095086 72.243305
37.584000 5201.698418 72.122801
37.588000 5064.094911 71.162454
37.592000 5113.141598 71.506235
37.596000 5119.415024 71.550088
37.600000 5077.716054 71.258095
37.604000 5250.580680 72.460891
37.608000 5141.631026 71.705167
37.612000 5240.337795 72.390177
37.616000 5271.878738 72.607704
37.620000 5270.923240 72.601124
37.624000 5235.348122 72.355706
37.628000 5173.333449 71.925889
37.632000 5364.306458 73.241426
37.636000 5262.891717 72.545790
37.640000 5172.410474 71.919472
37.644000 5303.334481 72.823997
37.648000 5371.943757 73.293545
37.652000 5399.305733 73.479968
37.656000 5300.634484 72.805456
37.660000 5444.527838 73.787044
37.664000 5396.619872 73.461690
37.668000 5320.334213 72.940621
37.672000 5323.038833 72.959159
37.676000 5384.530857 73.379363
37.680000 5284.003034 72.691148
37.684000 5249.707586 72.454866
37.688000 5209.918328 72.179764
37.692000 5151.312762 71.772646
37.696000 5228.858738 72.310848
37.700000 5128.412717 71.612937
37.704000 5072.073103 71.218488
37.708000 4890.548748 69.932458
37.712000 4985.546275 70.608401
37.716000 4901.944563 70.013888
37.720000 4853.098828 69.664186
37.724000 4687.052287 68.462050
37.728000 4872.931850 69.806388
37.732000 4712.344764 68.646520
37.736000 4684.683916 68.444751
37.740000 4659.569259 68.261038
37.744000 4628.897620 68.036002
37.748000 4597.148210 67.802273
37.752000 4550.914186 67.460464
37.756000 4531.032123 67.312942
37.760000 4519.271368 67.225526
37.764000 4425.253867 66.522582
37.768000 4537.293970 67.359439
37.772000 4443.085242 66.656472
37.776000 4569.420255 67.597487
37.780000 4652.624149 68.210147
37.784000 4520.462973 67.234388
37.788000 4581.268371 67.685068
37.792000 4531.028040 67.312911
37.796000 4523.599893 67.257713
37.800000 4519.838676 67.229745
37.804000 4443.513574 66.659685
37.808000 4452.349858 66.725931
37.812000 4484.131749 66.963660
37.816000 4494.006926 67.037355
37.820000 4497.692283 67.064836
37.824000 4487.745040 66.990634
37.828000 4472.885627 66.879635
37.832000 4464.704477 66.818444
37.836000 4497.547112 67.063754
37.840000 4461.417090 66.793840
37.844000 4585.016155 67.712747
37.848000 4568.989763 67.594303
37.852000 4651.058547 68.198670
37.856000 4568.466172 67.590430
37.860000 4529.138112 67.298872
37.864000 4578.993369 67.668260
37.868000 4585.164952 67.713846
37.872000 4560.661991 67.532674
37.876000 4486.376026 66.980415
37.880000 4578.738434 67.666376
37.884000 4417.633555 66.465281
37.888000 4615.211270 67.935346
37.892000 4589.997994 67.749524
37.896000 4514.314303 67.188647
37.900000 4542.881117 67.400898
37.904000 4422.751115 66.503768
37.908000 4556.978162 67.505394
37.912000 4556.425033 67.501297
37.916000 4610.746042 67.902474
37.920000 4601.044747 67.831001
37.924000 4684.331025 68.442173
37.928000 4545.075638 67.417176
37.932000 4575.128179 67.639694
37.936000 4552.121265 67.469410
37.940000 4737.888324 68.832320
37.944000 4690.682290 68.488556
37.948000 4674.797560 68.372491
37.952000 4800.031549 69.282260
37.956000 4802.091079 69.297122
37.960000 4873.995561 69.814007
37.964000 4959.034088 70.420410
37.968000 4866.358808 69.759292
37.972000 5087.381406 71.325882
37.976000 5092.022705 71.358410
37.980000 5195.777531 72.081742
37.984000 5194.264764 72.071248
37.988000 5090.755292 71.349529
37.992000 5353.045394 73.164509
37.996000 5379.843395 73.347416
38.000000 5535.124273 74.398416
38.004000 5419.507595 73.617305
38.008000 5498.069844 74.148971
38.012000 5536.849669 74.410011
38.016000 5478.020848 74.013653
38.020000 5567.033112 74.612553
38.024000 5573.918300 74.658679
38.028000 5544.362873 74.460479
38.032000 5530.014597 74.364068
38.036000 5657.764930 75.218116
38.040000 5482.216134 74.041989
38.044000 5576.281254 74.674502
38.048000 5592.190466 74.780950
38.052000 5496.671812 74.139543
38.056000 5501.576032 74.172610
38.060000 5443.290090 73.778656
38.064000 5330.720545 73.011784
38.068000 5222.545672 72.267183
38.072000 5330.932519 73.013235
38.076000 5285.898012 72.704182
38.080000 5163.497426 71.857480
38.084000 5056.150999 71.106617
38.088000 5107.618445 71.467604
38.092000 5067.653981 71.187457
38.096000 4968.462311 70.487320
38.100000 4965.354993 70.465275
38.104000 4948.137002 70.342995
38.108000 4921.693193 70.154780
38.112000 4760.891842 68.999216
38.116000 4737.837917 68.831954
38.120000 4767.875136 69.049802
38.124000 4690.516979 68.487349
38.128000 4707.540613 68.611520
38.132000 4626.066643 68.015194
38.136000 4661.018507 68.271652
38.140000 4658.745674 68.255005
38.144000 4653.464223 68.216305
38.148000 4690.504164 68.487255
38.152000 4654.782072 68.225963
38.156000 4546.310969 67.426337
38.160000 4553.023630 67.476097
38.164000 4430.226984 66.559950
38.168000 4478.317375 66.920231
38.172000 4472.907626 66.879800
38.176000 4425.664537 66.525668
38.180000 4417.021068 66.460673
38.184000 4483.813312 66.961282
38.188000 4448.296812 66.695553
38.192000 4588.533038 67.738712
38.196000 4532.229877 67.321838
38.200000 4522.939297 67.252801
38.204000 4642.782258 68.137965
38.208000 4565.215761 67.566380
38.212000 4706.534611 68.604188
38.216000 4778.888735 69.129507
38.220000 4680.052306 68.410908
38.224000 4668.126464 68.323689
38.228000 4792.118058 69.225126
38.232000 4693.884984 68.511933
38.236000 4729.958814 68.774696
38.240000 4750.385517 68.923041
38.244000 4783.766416 69.164777
38.248000 4765.605427 69.033365
38.252000 4748.099978 68.906458
38.256000 4802.824467 69.302413
38.260000 4865.714590 69.754674
38.264000 4809.423588 69.350008
38.268000 4975.472843 70.537032
38.272000 4987.300173 70.620820
38.276000 4830.824272 69.504131
38.280000 4877.850905 69.841613
38.284000 4820.704519 69.431294
38.288000 5089.268371 71.339108
38.292000 5071.710349 71.215942
38.296000 5024.097596 70.880869
38.300000 5152.290735 71.779459
38.304000 5073.881147 71.231181
38.308000 4922.369542 70.159600
38.312000 5005.419519 70.748990
38.316000 5084.513740 71.305776
38.320000 5093.844515 71.371174
38.324000 5127.936873 71.609614
38.328000 5043.260029 71.015914
38.332000 4886.673447 69.904746
38.336000 4953.833600 70.383475
38.340000 4944.726917 70.318752
38.344000 5062.880409 71.153921
38.348000 4987.679211 70.623503
38.352000 5085.729641 71.314302
38.356000 5151.564430 71.774400
38.360000 5114.950681 71.518883
38.364000 5099.242078 71.408978
38.368000 5244.890043 72.421613
38.372000 5305.013489 72.835524
38.376000 5178.372204 71.960907
38.380000 5225.981394 72.290950
38.384000 5366.041178 73.253267
38.388000 5498.559105 74.152270
38.392000 5360.662506 73.216545
38.396000 5374.832268 73.313248
38.400000 5345.028608 73.109703
38.404000 5357.699660 73.196309
38.408000 5335.114750 73.041870
38.412000 5294.873426 72.765881
38.416000 5292.060118 72.746547
38.420000 5290.489883 72.735754
38.424000 5272.279227 72.610462
38.428000 5256.294755 72.500309
38.432000 5240.246006 72.389543
38.436000 5165.230435 71.869538
38.440000 5201.109662 72.118719
38.444000 5149.874102 71.762623
38.448000 5018.941960 70.844491
38.452000 4932.405208 70.231084
38.456000 5020.287036 70.853984
38.460000 4932.942702 70.234911
38.464000 4953.224780 70.379150
38.468000 5009.127344 70.775189
38.472000 4862.178334 69.729322
38.476000 4730.922861 68.781704
38.480000 4797.486088 69.263887
38.484000 4633.324661 68.068529
38.488000 4692.977445 68.505310
38.492000 4681.556559 68.421901
38.496000 4756.396243 68.966631
38.500000 4622.540726 67.989269
38.504000 4595.275752 67.788463
38.508000 4475.660070 66.900374
38.512000 4487.446999 66.988409
38.516000 4537.162364 67.358462
38.520000 4573.759710 67.629577
38.524000 4565.938758 67.571730
38.528000 4410.275486 66.409905
38.532000 4422.555371 66.502296
38.536000 4439.711587 66.631161
38.540000 4487.070801 66.985601
38.544000 4430.342980 66.560822
38.548000 4309.851477 65.649459
38.552000 4392.539752 66.276238
38.556000 4419.508384 66.479383
38.560000 4338.138622 65.864548
38.564000 4393.146660 66.280817
38.568000 4298.355953 65.561848
38.572000 4406.789460 66.383654
38.576000 4363.879823 66.059669
38.580000 4417.875166 66.467098
38.584000 4387.223402 66.236119
38.588000 4277.103008 65.399564
38.592000 4524.064817 67.261169
38.596000 4508.922012 67.148507
38.600000 4416.177312 66.454325
38.604000 4408.372904 66.395579
38.608000 4498.297728 67.069350
38.612000 4501.287463 67.091635
38.616000 4473.332219 66.882974
38.620000 4420.025286 66.483271
38.624000 4462.861793 66.804654
38.628000 4609.532872 67.893541
38.632000 4600.592290 67.827666
38.636000 4530.168006 67.306523
38.640000 4559.303700 67.522616
38.644000 4649.981200 68.190771
38.648000 4635.220122 68.082451
38.652000 4580.832110 67.681845
38.656000 4628.035703 68.029668
38.660000 4695.273623 68.522067
38.664000 4552.381421 67.471338
38.668000 4565.436061 67.568011
38.672000 4596.572531 67.798027
38.676000 4635.202289 68.082320
38.680000 4603.404664 67.848395
38.684000 4675.454620 68.377296
38.688000 4636.690445 68.093248
38.692000 4673.716263 68.364583
38.696000 4705.978524 68.600135
38.700000 4637.501834 68.099206
38.704000 4637.173543 68.096795
38.708000 4578.103008 67.661680
38.712000 4521.120148 67.239275
38.716000 4639.050838 68.110578
38.720000 4612.784069 67.917480
38.724000 4629.992015 68.044045
38.728000 4737.757519 68.831370
38.732000 4588.164718 67.735993
38.736000 4687.883773 68.468122
38.740000 4679.282939 68.405284
38.744000 4680.058589 68.410954
38.748000 4621.015704 67.978053
38.752000 4628.056694 68.029822
38.756000 4646.148273 68.162660
38.760000 4670.509981 68.341130
38.764000 4765.511374 69.032683
38.768000 4701.894064 68.570358
38.772000 4759.509449 68.989198
38.776000 4756.981841 68.970877
38.780000 4672.169399 68.353269
38.784000 4733.987224 68.803977
38.788000 4804.074038 69.311428
38.792000 4944.084110 70.314181
38.796000 4844.433324 69.601964
38.800000 4777.217753 69.117420
38.804000 4919.983764 70.142596
38.808000 4947.440275 70.338043
38.812000 5064.255789 71.163585
38.816000 4928.030324 70.199931
38.820000 4910.619134 70.075810
38.824000 5017.997047 70.837822
38.828000 4993.063348 70.661612
38.832000 4950.647523 70.360838
38.836000 5124.645196 71.586627
38.840000 5065.504126 71.172355
38.844000 5259.506917 72.522458
38.848000 5176.686186 71.949192
38.852000 5236.558990 72.364073
38.856000 5296.576524 72.777583
38.860000 5195.920872 72.082736
38.864000 5218.829164 72.241464
38.868000 5192.969390 72.062261
38.872000 5372.624017 73.298186
38.876000 5358.894331 73.204469
38.880000 5341.563598 73.086001
38.884000 5291.070003 72.739742
38.888000 5400.059606 73.485098
38.892000 5455.650214 73.862373
38.896000 5450.952089 73.830563
38.900000 5436.666489 73.733754
38.904000 5494.446153 74.124531
38.908000 5535.641565 74.401892
38.912000 5506.766037 74.207587
38.916000 5671.444455 75.308993
38.920000 5548.717594 74.489715
38.924000 5674.867483 75.331716
38.928000 5573.261499 74.654280
38.932000 5708.866117 75.557039
38.936000 5649.096328 75.160471
38.940000 5571.356291 74.641519
38.944000 5639.961405 75.099676
38.948000 5599.928701 74.832671
38.952000 5594.035391 74.793284
38.956000 5577.629758 74.683531
38.960000 5641.953056 75.112935
38.964000 5621.975172 74.979832
38.968000 5593.521777 74.789851
38.972000 5721.566073 75.641034
38.976000 5694.416890 75.461360
38.980000 5782.068227 76.039912
38.984000 5751.099447 75.836004
38.988000 5824.004178 76.315163
38.992000 5851.886095 76.497621
38.996000 5869.430548 76.612209
39.000000 5977.937690 77.317124
39.004000 5975.218150 77.299535
39.008000 6028.899273 77.645987
39.012000 6181.301485 78.621253
39.016000 6215.558808 78.838815
39.020000 6174.968060 78.580965
39.024000 6098.718999 78.094296
39.028000 6042.423476 77.733027
39.032000 5984.214588 77.357705
39.036000 5991.635977 77.405659
39.040000 5965.745217 77.238237
39.044000 6007.196913 77.506109
39.048000 5773.539526 75.983811
39.052000 5648.557437 75.156885
39.056000 5542.213677 74.446045
39.060000 5362.547799 73.229419
39.064000 5200.740254 72.116158
39.068000 5217.285486 72.230779
39.072000 5151.463012 71.773693
39.076000 5017.121256 70.831640
39.080000 4998.807610 70.702246
39.084000 4844.599414 69.603157
39.088000 4894.113890 69.957944
39.092000 4776.212991 69.110151
39.096000 4747.032198 68.898710
39.100000 4746.191642 68.892609
39.104000 4627.183076 68.023401
39.108000 4630.772192 68.049777
39.112000 4536.203566 67.351344
39.116000 4516.067589 67.201693
39.120000 4524.385136 67.263550
39.124000 4544.166220 67.410431
39.128000 4440.145024 66.634413
39.132000 4451.119443 66.716710
39.136000 4312.408994 65.668935
39.140000 4345.275162 65.918701
39.144000 4390.936668 66.264143
39.148000 4365.435604 66.071443
39.152000 4297.841192 65.557922
39.156000 4321.097924 65.735059
39.160000 4345.050268 65.916995
39.164000 4238.001863 65.099938
39.168000 4411.552954 66.419522
39.172000 4425.343625 66.523256
39.176000 4175.507042 64.618163
39.180000 4248.588877 65.181200
39.184000 4267.235232 65.324078
39.188000 4280.477799 65.425361
39.192000 4299.493081 65.570520
39.196000 4243.453433 65.141795
39.200000 4166.102961 64.545356
39.204000 4233.797499 65.067638
39.208000 4296.484849 65.547577
39.212000 4293.027785 65.521201
39.216000 4300.392762 65.577380
39.220000 4279.318787 65.416502
39.224000 4329.615333 65.799813
39.228000 4349.043108 65.947275
39.232000 4459.323576 66.778167
39.236000 4437.482171 66.614429
39.240000 4418.936136 66.475079
39.244000 4410.746595 66.413452
39.248000 4419.538896 66.479613
39.252000 4312.088877 65.666497
39.256000 4380.564928 66.185836
39.260000 4395.328100 66.297271
39.264000 4376.155709 66.152519
39.268000 4347.753060 65.937494
39.272000 4363.202235 66.054540
39.276000 4400.159393 66.333697
39.280000 4398.525029 66.321377
39.284000 4455.441990 66.749097
39.288000 4537.894625 67.363897
39.292000 4585.481639 67.716184
39.296000 4552.544850 67.472549
39.300000 4599.488026 67.819525
39.304000 4687.995742 68.468940
39.308000 4641.950282 68.131860
39.312000 4608.696647 67.887382
39.316000 4541.216072 67.388546
39.320000 4567.055615 67.579994
39.324000 4652.401809 68.208517
39.328000 4657.114295 68.243053
39.332000 4643.669505 68.144475
39.336000 4462.908994 66.805007
39.340000 4462.207025 66.799753
39.344000 4497.933475 67.066635
39.348000 4467.704950 66.840893
39.352000 4457.679351 66.765855
39.356000 4413.981905 66.437805
39.360000 4450.423630 66.711495
39.364000 4397.353912 66.312547
39.368000 4460.201089 66.784737
39.372000 4448.977069 66.700653
39.376000 4380.101118 66.182332
39.380000 4311.971794 65.665606
39.384000 4406.022885 66.377879
39.388000 4329.055615 65.795559
39.392000 4216.376321 64.933630
39.396000 4211.861096 64.898853
39.400000 4192.599787 64.750288
39.404000 4314.988292 65.688570
39.408000 4223.831825 64.991013
39.412000 4209.703832 64.882230
39.416000 4227.312932 65.017789
39.420000 4259.036999 65.261298
39.424000 4156.234433 64.468864
39.428000 4182.645024 64.673372
39.432000 4170.603513 64.580210
39.436000 4232.604311 65.058468
39.440000 4251.034593 65.199959
39.444000 4290.638904 65.502969
39.448000 4157.653339 64.479868
39.452000 4276.107504 65.391953
39.456000 4245.660458 65.158733
39.460000 4167.758116 64.558176
39.464000 4295.365886 65.539041
39.468000 4213.384247 64.910587
39.472000 4245.985897 65.161230
39.476000 4208.473656 64.872750
39.480000 4263.550559 65.295869
39.484000 4071.356573 63.807183
39.488000 4219.877328 64.960583
39.492000 4283.843534 65.451077
39.496000 4239.098098 65.108357
39.500000 4248.039383 65.176985
39.504000 4235.431080 65.080190
39.508000 4218.678020 64.951351
39.512000 4208.591804 64.873660
39.516000 4301.617882 65.586720
39.520000 4244.546567 65.150185
39.524000 4193.055349 64.753806
39.528000 4307.731240 65.633309
39.532000 4477.204896 66.911919
39.536000 4401.845721 66.346407
39.540000 4410.204896 66.409374
39.544000 4521.745609 67.243926
39.548000 4417.150346 66.461646
39.552000 4450.170569 66.709599
39.556000 4581.639436 67.687809
39.560000 4612.403938 67.914681
39.564000 4594.720862 67.784370
39.568000 4647.845663 68.175110
39.572000 4663.355508 68.288766
39.576000 4636.228047 68.089853
39.580000 4646.461416 68.164957
39.584000 4915.969399 70.113974
39.588000 4876.508781 69.832004
39.592000 4945.340607 70.323116
39.596000 5021.209420 70.860493
39.600000 5141.808904 71.706408
39.604000 5041.606328 71.004270
39.608000 4995.532464 70.679081
39.612000 5120.428952 71.557173
39.616000 5065.800692 71.174438
39.620000 5058.216871 71.121142
39.624000 5178.725918 71.963365
39.628000 5234.676690 72.351066
39.632000 5193.398882 72.065240
39.636000 5174.232837 71.932140
39.640000 5217.790580 72.234276
39.644000 5269.487759 72.591237
39.648000 5199.268760 72.105955
39.652000 5285.471794 72.701250
39.656000 5367.672964 73.264404
39.660000 5443.713411 73.781525
39.664000 5519.043640 74.290266
39.668000 5504.864049 74.194771
39.672000 5444.298563 73.785490
39.676000 5436.515700 73.732732
39.680000 5529.944651 74.363598
39.684000 5436.201703 73.730602
39.688000 5482.031400 74.040741
39.692000 5479.300692 74.022299
39.696000 5521.292177 74.305398
39.700000 5361.205428 73.220253
39.704000 5411.168175 73.560643
39.708000 5338.436935 73.064608
39.712000 5475.474476 73.996449
39.716000 5366.292709 73.254984
39.720000 5490.168449 74.095671
39.724000 5245.896487 72.428561
39.728000 5332.215540 73.022021
39.732000 5208.693454 72.171279
39.736000 5286.203832 72.706285
39.740000 5245.013571 72.422466
39.744000 5124.138105 71.583085
39.748000 5119.190914 71.548521
39.752000 5165.004790 71.867968
39.756000 5189.855508 72.040652
39.760000 5059.725652 71.131749
39.764000 5101.137307 71.422247
39.768000 5033.622938 70.948030
39.772000 5119.792975 71.552729
39.776000 4956.689999 70.403764
39.780000 4922.857903 70.163081
39.784000 4898.265833 69.987612
39.788000 4934.499734 70.245994
39.792000 4945.442257 70.323838
39.796000 4971.694784 70.510246
39.800000 4889.361629 69.923970
39.804000 4852.609253 69.660672
39.808000 4854.309473 69.672875
39.812000 4876.631985 69.832886
39.816000 4749.392230 68.915834
39.820000 4723.207557 68.725596
39.824000 4694.422565 68.515856
39.828000 4638.727782 68.108206
39.832000 4852.398616 69.659160
39.836000 4714.117520 68.659431
39.840000 4640.281267 68.119610
39.844000 4696.310271 68.529631
39.848000 4627.707993 68.027259
39.852000 4723.492815 68.727671
39.856000 4558.979244 67.520214
39.860000 4620.167110 67.971811
39.864000 4721.633848 68.714146
39.868000 4644.474440 68.150381
39.872000 4774.466205 69.097512
39.876000 4799.986961 69.281938
39.880000 4760.769824 68.998332
39.884000 4806.820383 69.331237
39.888000 4862.371075 69.730704
39.892000 4912.503459 70.089254
39.896000 4922.641831 70.161541
39.900000 4955.593911 70.395979
39.904000 5052.845663 71.083371
39.908000 5135.133509 71.659846
39.912000 5193.050559 72.062824
39.916000 5236.331580 72.362501
39.920000 5364.067323 73.239793
39.924000 5457.861895 73.877344
39.928000 5417.648749 73.604679
39.932000 5395.056088 73.451046
39.936000 5514.857903 74.262089
39.940000 5442.772485 73.775148
39.944000 5424.622763 73.652038
39.948000 5471.840075 73.971887
39.952000 5440.151676 73.757384
39.956000 5337.602875 73.058900
39.960000 5389.289516 73.411780
39.964000 5315.222459 72.905572
39.968000 5394.879572 73.449844
39.972000 5356.377328 73.187276
39.976000 5269.893028 72.594029
39.980000 5243.837483 72.414346
39.984000 5234.088345 72.347000
39.988000 5207.474454 72.162833
39.992000 5191.904977 72.054875
39.996000 5220.451304 72.252691
40.000000 5106.794039 71.461836
40.004000 5091.160634 71.352370
40.008000 5063.548696 71.158616
40.012000 5019.073443 70.845419
40.016000 5095.996228 71.386247
40.020000 5062.078499 71.148285
40.024000 5054.879957 71.097679
40.028000 4961.030335 70.434582
40.032000 5048.306407 71.051435
40.036000 5058.236828 71.121283
40.040000 4959.486961 70.423625
40.044000 5038.604249 70.983127
40.048000 5031.049988 70.929895
40.052000 5057.304366 71.114727
40.056000 5039.712081 70.990930
40.060000 5106.362959 71.458820
40.064000 5108.377298 71.472913
40.068000 5010.250931 70.783126
40.072000 5035.864786 70.963827
40.076000 5021.997339 70.866052
40.080000 4936.824641 70.262541
40.084000 4936.014721 70.256777
40.088000 4943.130389 70.307399
40.092000 5070.404470 71.206773
40.096000 5160.158371 71.834242
40.100000 5138.391166 71.682572
40.104000 5200.888012 72.117183
40.108000 5182.710484 71.991044
40.112000 5326.700293 72.984247
40.116000 5231.150612 72.326694
40.120000 5297.371557 72.783044
40.124000 5331.518361 73.017247
40.128000 5314.783948 72.902565
40.132000 5309.353697 72.865312
40.136000 5247.001525 72.436189
40.140000 5135.875492 71.665023
40.144000 5104.873254 71.448396
40.148000 5173.574411 71.927564
40.152000 5143.221007 71.716253
40.156000 5124.954763 71.588789
40.160000 5013.946495 70.809226
40.164000 4927.346707 70.195062
40.168000 4891.047443 69.936024
40.172000 4954.977614 70.391602
40.176000 4866.441206 69.759882
40.180000 4788.720524 69.200582
40.184000 4728.225120 68.762091
40.188000 4741.989343 68.862104
40.192000 4750.014373 68.920348
40.196000 4619.146088 67.964300
40.200000 4627.053282 68.022447
40.204000 4557.078275 67.506135
40.208000 4498.392122 67.070054
40.212000 4455.686057 66.750926
40.216000 4587.069186 67.727906
40.220000 4517.647325 67.213446
40.224000 4496.322642 67.054624
40.228000 4361.503459 66.041680
40.232000 4377.773621 66.164746
40.236000 4369.645591 66.103295
40.240000 4414.389873 66.440875
40.244000 4366.005583 66.075756
40.248000 4346.377504 65.927062
40.252000 4339.855133 65.877577
40.256000 4387.659290 66.239409
40.260000 4337.525685 65.859894
40.264000 4408.518753 66.396677
40.268000 4354.209621 65.986435
40.272000 4368.134948 66.091867
40.276000 4339.846048 65.877508
40.280000 4351.817988 65.968310
40.284000 4346.375832 65.927049
40.288000 4477.025881 66.910581
40.292000 4415.635253 66.450246
40.296000 4310.544091 65.654734
40.300000 4428.454194 66.546632
40.304000 4384.631356 66.216549
40.308000 4339.738089 65.876689
40.312000 4395.703336 66.300101
40.316000 4528.301038 67.292652
40.320000 4492.363854 67.025099
40.324000 4436.566559 66.607556
40.328000 4527.391536 67.285894
40.332000 4485.919922 66.977010
40.336000 4527.608198 67.287504
40.340000 4461.998845 66.798195
40.344000 4523.999734 67.260685
40.348000 4423.118950 66.506533
40.352000 4566.317541 67.574533
40.356000 4410.797445 66.413835
40.360000 4436.073709 66.603857
40.364000 4513.637477 67.183610
40.368000 4479.951982 66.932443
40.372000 4439.198297 66.627309
40.376000 4390.060563 66.257532
40.380000 4399.234229 66.326723
40.384000 4300.908079 65.581309
40.388000 4390.861059 66.263573
40.392000 4299.201985 65.568300
40.396000 4274.114187 65.376710
40.400000 4368.069574 66.091373
40.404000 4389.514506 66.253411
40.408000 4386.610061 66.231488
40.412000 4338.782640 65.869436
40.416000 4260.792657 65.274747
40.420000 4271.694969 65.358205
40.424000 4329.368326 65.797936
40.428000 4408.279212 66.394873
40.432000 4297.357200 65.554231
40.436000 4257.823149 65.251997
40.440000 4295.905510 65.543158
40.444000 4371.009260 66.113609
40.448000 4304.140271 65.605947
40.452000 4260.488688 65.272419
40.456000 4267.576033 65.326687
40.460000 4313.193266 65.674906
40.464000 4273.750067 65.373925
40.468000 4369.157131 66.099600
40.472000 4203.915624 64.837610
40.476000 4171.610327 64.588005
40.480000 4223.981634 64.992166
40.484000 4263.515682 65.295602
40.488000 4249.842427 65.190816
40.492000 4248.239304 65.178519
40.496000 4253.733298 65.220651
40.500000 4211.919922 64.899306
40.504000 4185.875818 64.698345
40.508000 4241.889806 65.129792
40.512000 4315.302372 65.690961
40.516000 4368.954751 66.098069
40.520000 4461.755057 66.796370
40.524000 4404.133085 66.363643
40.528000 4397.779809 66.315758
40.532000 4500.490285 67.085694
40.536000 4644.841568 68.153075
40.540000 4497.284277 67.061794
40.544000 4506.998935 67.134186
40.548000 4597.307692 67.803449
40.552000 4631.039847 68.051744
40.556000 4774.668352 69.098975
40.560000 4625.468611 68.010798
40.564000 4859.816609 69.712385
40.568000 4959.251264 70.421952
40.572000 4979.080374 70.562599
40.576000 4989.920429 70.639369
40.580000 5024.483407 70.883591
40.584000 5058.193374 71.120977
40.588000 5127.010647 71.603147
40.592000 5150.377695 71.766132
40.596000 4998.301607 70.698668
40.600000 5082.521427 71.291805
40.604000 5072.808291 71.223650
40.608000 4918.242215 70.130180
40.612000 4910.575849 70.075501
40.616000 5060.335374 71.136034
40.620000 4937.943777 70.270504
40.624000 4885.465418 69.896104
40.628000 4831.426138 69.508461
40.632000 4804.745616 69.316272
40.636000 4734.324473 68.806428
40.640000 4749.245941 68.914773
40.644000 4771.588731 69.076687
40.648000 4750.060821 68.920685
40.652000 4606.838701 67.873697
40.656000 4610.633839 67.901648
40.660000 4590.771033 67.755229
40.664000 4573.675273 67.628953
40.668000 4561.071998 67.535709
40.672000 4606.148869 67.868615
40.676000 4632.434389 68.061989
40.680000 4608.990890 67.889549
40.684000 4519.941711 67.230512
40.688000 4550.289060 67.455830
40.692000 4533.719611 67.332901
40.696000 4629.617771 68.041295
40.700000 4573.052968 67.624352
40.704000 4615.750532 67.939315
40.708000 4533.407382 67.330583
40.712000 4546.513228 67.427837
40.716000 4595.007187 67.786482
40.720000 4515.495897 67.197440
40.724000 4427.517308 66.539592
40.728000 4510.371140 67.159297
40.732000 4507.818144 67.140287
40.736000 4354.162111 65.986075
40.740000 4449.632386 66.705565
40.744000 4431.917160 66.572646
40.748000 4379.425539 66.177228
40.752000 4345.672650 65.921716
40.756000 4382.979845 66.204077
40.760000 4424.726837 66.518620
40.764000 4388.165048 66.243226
40.768000 4385.662340 66.224333
40.772000 4445.822480 66.677001
40.776000 4396.731629 66.307855
40.780000 4411.868694 66.421899
40.784000 4365.172307 66.069451
40.788000 4302.531550 65.593685
40.792000 4368.270616 66.092894
40.796000 4325.028222 65.764947
40.800000 4380.525651 66.185540
40.804000 4345.211151 65.918216
40.808000 4280.121406 65.422637
40.812000 4252.073125 65.207922
40.816000 4303.880192 65.603965
40.820000 4113.517884 64.136712
40.824000 4279.066685 65.414575
40.828000 4298.135250 65.560165
40.832000 4244.803540 65.152157
40.836000 4296.314696 65.546279
40.840000 4360.553031 66.034484
40.844000 4229.316294 65.033194
40.848000 4354.856741 65.991338
40.852000 4299.399301 65.569805
40.856000 4303.571619 65.601613
40.860000 4396.844794 66.308708
40.864000 4369.807774 66.104522
40.868000 4414.575866 66.442275
40.872000 4404.267838 66.364658
40.876000 4400.240611 66.334309
40.880000 4353.224619 65.978971
40.884000 4487.057511 66.985502
40.888000 4536.461522 67.353259
40.892000 4538.788072 67.370528
40.896000 4490.213982 67.009059
40.900000 4715.411796 68.668856
40.904000 4650.556596 68.194990
40.908000 4654.593717 68.224583
40.912000 4727.945422 68.760057
40.916000 4744.877263 68.883069
40.920000 4728.387357 68.763270
40.924000 4838.738442 69.561041
40.928000 4833.165335 69.520970
40.932000 4821.143724 69.434456
40.936000 4893.136848 69.950960
40.940000 4970.431283 70.501286
40.944000 4961.819856 70.440186
40.948000 4887.646965 69.911708
40.952000 4969.873400 70.497329
40.956000 5097.450400 71.396431
40.960000 5020.762780 70.857341
40.964000 4959.251795 70.421955
40.968000 5064.228701 71.163394
40.972000 5079.881249 71.273286
40.976000 5024.888836 70.886450
40.980000 5086.341321 71.318590
40.984000 5026.734870 70.899470
40.988000 5105.084132 71.449871
40.992000 5036.400021 70.967598
40.996000 4932.365892 70.230804
41.000000 4853.420751 69.666497
41.004000 4912.419329 70.088653
41.008000 4874.976211 69.821030
41.012000 4788.510117 69.199062
41.016000 4727.389180 68.756012
41.020000 4728.797993 68.766256
41.024000 4802.540646 69.300365
41.028000 4582.724345 67.695822
41.032000 4555.794462 67.496626
41.036000 4489.561300 67.004189
41.040000 4442.152619 66.649476
41.044000 4610.159281 67.898154
41.048000 4494.203921 67.038824
41.052000 4476.753263 66.908544
41.056000 4527.661749 67.287902
41.060000 4442.954739 66.655493
41.064000 4385.459460 66.222802
41.068000 4417.102530 66.461286
41.072000 4388.015949 66.242101
41.076000 4301.757457 65.587784
41.080000 4433.676457 66.585858
41.084000 4400.485470 66.336155
41.088000 4451.686329 66.720959
41.092000 4288.303920 65.485143
41.096000 4332.956167 65.825194
41.100000 4309.450144 65.646402
41.104000 4386.554821 66.231071
41.108000 4347.349304 65.934432
41.112000 4461.974967 66.798016
41.116000 4483.168559 66.956468
41.120000 4435.450349 66.599177
41.124000 4420.693334 66.488295
41.128000 4243.967776 65.145743
41.132000 4299.613360 65.571437
41.136000 4332.271544 65.819993
41.140000 4487.330493 66.987540
41.144000 4494.959796 67.044461
41.148000 4503.882737 67.110973
41.152000 4458.095495 66.768971
41.156000 4530.915947 67.312079
41.160000 4513.229286 67.180572
41.164000 4533.142014 67.328612
41.168000 4541.131824 67.387920
41.172000 4541.534029 67.390905
41.176000 4615.967264 67.940910
41.180000 4559.198479 67.521837
41.184000 4527.062583 67.283450
41.188000 4491.154902 67.016079
41.192000 4528.443977 67.293714
41.196000 4516.485944 67.204806
41.200000 4568.103063 67.587743
41.204000 4569.755392 67.599966
41.208000 4596.512383 67.797584
41.212000 4622.859674 67.991615
41.216000 4554.225033 67.484999
41.220000 4516.787552 67.207050
41.224000 4538.314871 67.367016
41.228000 4489.694506 67.005183
41.232000 4557.454386 67.508921
41.236000 4529.114248 67.298694
41.240000 4395.314343 66.297167
41.244000 4371.552863 66.117720
41.248000 4435.803000 66.601824
41.252000 4612.040569 67.912006
41.256000 4485.221544 66.971797
41.260000 4462.250152 66.800076
41.264000 4433.991744 66.588225
41.268000 4356.933538 66.007072
41.272000 4432.323099 66.575695
41.276000 4380.070406 66.182100
41.280000 4379.273236 66.176078
41.284000 4379.693963 66.179256
41.288000 4354.919345 65.991813
41.292000 4308.456224 65.638832
41.296000 4339.200883 65.872611
41.300000 4314.700824 65.686382
41.304000 4184.814913 64.690145
41.308000 4176.341401 64.624619
41.312000 4158.858855 64.489215
41.316000 4247.103862 65.169808
41.320000 4213.150157 64.908783
41.324000 4169.718698 64.573359
41.328000 4229.606890 65.035428
41.332000 4178.912796 64.644511
41.336000 4080.902195 63.881940
41.340000 4165.313171 64.539237
41.344000 4143.686201 64.371470
41.348000 4010.300761 63.326936
41.352000 4153.462639 64.447363
41.356000 4256.119617 65.238942
41.360000 4134.765624 64.302143
41.364000 4163.073194 64.521882
41.368000 4121.330776 64.197592
41.372000 4064.112142 63.750389
41.376000 4144.900802 64.380904
41.380000 4164.101492 64.529850
41.384000 4102.491704 64.050696
41.388000 4112.320616 64.127378
41.392000 4109.868076 64.108253
41.396000 4177.682013 64.634991
41.400000 4080.934183 63.882190
41.404000 4090.517281 63.957152
41.408000 4288.514385 65.486750
41.412000 4183.933531 64.683333
41.416000 4220.751437 64.967311
41.420000 4087.650750 63.934738
41.424000 4100.243664 64.033145
41.428000 4073.854779 63.826756
41.432000 4053.206446 63.664798
41.436000 4007.620641 63.305771
41.440000 4043.721391 63.590262
41.444000 4053.983218 63.670898
41.448000 4083.481126 63.902121
41.452000 4028.545551 63.470824
41.456000 4043.854934 63.591312
41.460000 4091.106287 63.961756
41.464000 4014.282763 63.358368
41.468000 4004.076599 63.277773
41.472000 3991.688865 63.179814
41.476000 3964.712504 62.965963
41.480000 4029.276505 63.476582
41.484000 4014.568269 63.360621
41.488000 3984.185911 63.120408
41.492000 3911.022909 62.538172
41.496000 4011.062702 63.332951
41.500000 3928.675132 62.679144
41.504000 3925.622536 62.654789
41.508000 3949.548338 62.845432
41.512000 4067.555576 63.777391
41.516000 4005.923304 63.292364
41.520000 3997.667390 63.227110
41.524000 3954.688066 62.886311
41.528000 3963.312514 62.954845
41.532000 4049.974151 63.639407
41.536000 4073.508846 63.824046
41.540000 4001.154569 63.254680
41.544000 4052.763411 63.661318
41.548000 4058.827002 63.708924
41.552000 4075.250942 63.837692
41.556000 4037.722011 63.543072
41.560000 4034.851074 63.520478
41.564000 4133.179490 64.289809
41.568000 4076.090840 63.844270
41.572000 4081.454369 63.886261
41.576000 4083.615260 63.903171
41.580000 4048.410484 63.627121
41.584000 4107.198383 64.087428
41.588000 4038.575034 63.549784
41.592000 4046.475495 63.611913
41.596000 4108.181675 64.095099
41.600000 4087.976446 63.937285
41.604000 3994.062254 63.198594
41.608000 4020.362415 63.406328
41.612000 4112.130575 64.125896
41.616000 4144.558198 64.378243
41.620000 4001.994106 63.261316
41.624000 3980.388853 63.090323
41.628000 4012.277281 63.342539
41.632000 4030.229228 63.484086
41.636000 3958.188916 62.914139
41.640000 4013.595949 63.352947
41.644000 4057.432958 63.697982
41.648000 3871.832079 62.224047
41.652000 4028.203302 63.468128
41.656000 4062.611084 63.738615
41.660000 4024.144951 63.436149
41.664000 4006.870411 63.299845
41.668000 4057.635250 63.699570
41.672000 4123.036922 64.210879
41.676000 4065.911553 63.764501
41.680000 4037.355183 63.540186
41.684000 4050.572121 63.644105
41.688000 3936.873846 62.744512
41.692000 3989.079870 63.159163
41.696000 4049.570552 63.636236
41.700000 4016.243626 63.373840
41.704000 3967.231752 62.985965
41.708000 4052.524114 63.659439
41.712000 4206.584775 64.858190
41.716000 4040.260621 63.563044
41.720000 4063.913158 63.748829
41.724000 4110.377669 64.112227
41.728000 4030.108979 63.483139
41.732000 4227.847653 65.021901
41.736000 4104.473697 64.066167
41.740000 4098.683905 64.020965
41.744000 4095.169054 63.993508
41.748000 4287.786015 65.481188
41.752000 4322.160187 65.743138
41.756000 4347.423448 65.934994
41.760000 4307.112024 65.628592
41.764000 4303.339237 65.599842
41.768000 4359.078370 66.023317
41.772000 4430.438511 66.561539
41.776000 4331.041586 65.810649
41.780000 4493.049142 67.030211
41.784000 4486.995831 66.985042
41.788000 4546.824003 67.430142
41.792000 4584.764234 67.710887
41.796000 4720.426496 68.705360
41.800000 4671.721254 68.349991
41.804000 4618.763412 67.961485
41.808000 4706.475910 68.603760
41.812000 4834.729570 69.532220
41.816000 4797.026271 69.260568
41.820000 4839.301244 69.565086
41.824000 4817.080907 69.405194
41.828000 4708.517385 68.618637
41.832000 4773.836286 69.092954
41.836000 4633.191166 68.067549
41.840000 4644.872932 68.153305
41.844000 4603.365810 67.848108
41.848000 4575.469572 67.642217
41.852000 4686.234275 68.456076
41.856000 4640.267350 68.119508
41.860000 4611.940896 67.911272
41.864000 4441.212713 66.642424
41.868000 4455.809968 66.751854
41.872000 4437.651479 66.615700
41.876000 4428.152944 66.544368
41.880000 4381.848614 66.195533
41.884000 4477.212896 66.911979
41.888000 4408.228617 66.394492
41.892000 4237.011458 65.092330
41.896000 4259.905117 65.267949
41.900000 4209.548628 64.881034
41.904000 4116.375267 64.158984
41.908000 4245.905675 65.160614
41.912000 4095.488273 63.996002
41.916000 4209.449507 64.880271
41.920000 4316.025586 65.696466
41.924000 4163.258193 64.523315
41.928000 4141.843284 64.357154
41.932000 4212.191365 64.901397
41.936000 4119.207567 64.181053
41.940000 4149.795309 64.418905
41.944000 4163.793177 64.527461
41.948000 3975.363709 63.050485
41.952000 4034.965885 63.521381
41.956000 4128.809168 64.255810
41.960000 4048.110312 63.624762
41.964000 4005.936034 63.292464
41.968000 4069.317697 63.791204
41.972000 4019.255864 63.397601
41.976000 3928.757996 62.679805
41.980000 4056.076739 63.687336
41.984000 4134.484542 64.299958
41.988000 3969.586887 63.004658
41.992000 3936.180704 62.738989
41.996000 4018.976013 63.395394
42.000000 4033.788380 63.512112
42.004000 4058.617804 63.707282
42.008000 3978.104478 63.072216
42.012000 3997.431770 63.225246
42.016000 3872.962154 62.233127
42.020000 3944.198294 62.802853
42.024000 4002.014392 63.261476
42.028000 3868.410981 62.196551
42.032000 3941.201280 62.778988
42.036000 3932.858209 62.712504
42.040000 3868.844350 62.200035
42.044000 3926.276119 62.660004
42.048000 3916.559701 62.582423
42.052000 3994.644628 63.203201
42.056000 4015.152452 63.365231
42.060000 3925.562367 62.654308
42.064000 4092.645522 63.973788
42.068000 4125.087710 64.226846
42.072000 4072.265058 63.814301
42.076000 3989.963743 63.166160
42.080000 4117.255148 64.165841
42.084000 4139.244735 64.336962
42.088000 4101.706898 64.044570
42.092000 4133.608638 64.293146
42.096000 4188.238845 64.716604
42.100000 4173.215676 64.600431
42.104000 4210.695138 64.889869
42.108000 4235.281792 65.079043
42.112000 4245.555840 65.157930
42.116000 4337.766787 65.861725
42.120000 4320.399327 65.729745
42.124000 4382.680885 66.201819
42.128000 4584.000000 67.705244
42.132000 4398.124234 66.318355
42.136000 4429.327292 66.553191
42.140000 4441.579845 66.645179
42.144000 4443.797921 66.661818
42.148000 4395.411514 66.297900
42.152000 4390.661157 66.262064
42.156000 4524.541722 67.264714
42.160000 4450.365672 66.711061
42.164000 4339.697681 65.876382
42.168000 4360.087443 66.030958
42.172000 4435.130064 66.596772
42.176000 4362.582245 66.049847
42.180000 4398.040512 66.317724
42.184000 4333.758464 65.831288
42.188000 4324.023454 65.757307
42.192000 4388.312900 66.244342
42.196000 4306.078379 65.620716
42.200000 4307.863539 65.634317
42.204000 4136.373134 64.314642
42.208000 4147.466276 64.400825
42.212000 4203.745736 64.836300
42.216000 4263.197014 65.293162
42.220000 4203.010661 64.830631
42.224000 4139.405117 64.338209
42.228000 4106.255864 64.080074
42.232000 4211.825113 64.898576
42.236000 4106.270789 64.080190
42.240000 4120.413113 64.190444
42.244000 3993.715352 63.195849
42.248000 4149.824580 64.419132
42.252000 4071.786780 63.810554
42.256000 4084.238806 63.908050
42.260000 4193.982942 64.760968
42.264000 4157.044776 64.475149
42.268000 4091.586354 63.965509
42.272000 3943.611940 62.798184
42.276000 4004.000000 63.277168
42.280000 4050.439232 63.643061
42.284000 4052.089552 63.656025
42.288000 4015.518124 63.368116
42.292000 4146.285714 64.391659
42.296000 4204.682303 64.843522
42.300000 4202.614072 64.827572
42.304000 4161.846482 64.512375
42.308000 4116.895522 64.163039
42.312000 4183.791045 64.682231
42.316000 4267.568893 65.326632
42.320000 4370.523512 66.109935
42.324000 4330.349103 65.805388
42.328000 4348.519745 65.943307
42.332000 4466.012930 66.828235
42.336000 4489.897856 67.006700
42.340000 4457.130060 66.761741
42.344000 4562.803268 67.548525
42.348000 4550.134473 67.454685
42.352000 4468.833836 66.849337
42.356000 4618.071086 67.956391
42.360000 4657.050640 68.242587
42.364000 4646.359208 68.164208
42.368000 4646.756574 68.167122
42.372000 4591.642591 67.761660
42.376000 4566.938751 67.579130
42.380000 4679.777353 68.408898
42.384000 4628.375410 68.032165
42.388000 4570.327825 67.604200
42.392000 4576.599838 67.650572
42.396000 4622.361024 67.987948
42.400000 4550.948894 67.460721
42.404000 4566.254633 67.574068
42.408000 4556.784043 67.503956
42.412000 4527.277629 67.285048
42.416000 4549.696892 67.451441
42.420000 4575.580745 67.643039
42.424000 4692.009023 68.498241
42.428000 4542.739920 67.399851
42.432000 4483.430396 66.958423
42.436000 4501.406983 67.092526
42.440000 4525.103326 67.268888
42.444000 4451.600570 66.720316
42.448000 4476.099027 66.903655
42.452000 4504.258262 67.113771
42.456000 4520.062994 67.231414
42.460000 4459.411435 66.778825
42.464000 4379.915979 66.180934
42.468000 4442.277445 66.650412
42.472000 4349.473237 65.950536
42.476000 4329.158021 65.796337
42.480000 4341.010764 65.886347
42.484000 4260.995373 65.276300
42.488000 4168.998754 64.567784
42.492000 4197.472374 64.787903
42.496000 4282.247653 65.438885
42.500000 4208.696759 64.874469
42.504000 4218.638519 64.951047
42.508000 4131.904685 64.279893
42.512000 4182.403519 64.671505
42.516000 4145.902274 64.388681
42.520000 4075.097239 63.836488
42.524000 4002.964876 63.268988
42.528000 4139.488308 64.338855
42.532000 4014.485139 63.359965
42.536000 4049.636894 63.636757
42.540000 3941.848273 62.784140
42.544000 3904.973169 62.489785
42.548000 3903.342926 62.476739
42.552000 3966.896111 62.983300
42.556000 3961.119105 62.937422
42.560000 4018.482636 63.391503
42.564000 4047.511852 63.620059
42.568000 4093.897915 63.983575
42.572000 3931.020449 62.697850
42.576000 3970.189248 63.009438
42.580000 3996.483911 63.217750
42.584000 4042.986640 63.584484
42.588000 4037.060218 63.537864
42.592000 4015.089356 63.364733
42.596000 4010.035960 63.324845
42.600000 4078.197708 63.860768
42.604000 4013.974500 63.355935
42.608000 4112.131128 64.125901
42.612000 4026.504184 63.454741
42.616000 4059.343922 63.712981
42.620000 4076.360669 63.846383
42.624000 4071.373819 63.807318
42.628000 4092.470814 63.972422
42.632000 4086.476152 63.925552
42.636000 4094.641720 63.989388
42.640000 4082.945377 63.897929
42.644000 4146.923662 64.396612
42.648000 4079.052292 63.867459
42.652000 4119.147160 64.180582
42.656000 4124.082081 64.219017
42.660000 4074.522764 63.831989
42.664000 4077.779630 63.857495
42.668000 4059.049827 63.710673
42.672000 4167.239487 64.554159
42.676000 4116.066641 64.156579
42.680000 4126.423661 64.237245
42.684000 4183.668768 64.681286
42.688000 4148.122449 64.405919
42.692000 4132.660813 64.285775
42.696000 4187.547714 64.711264
42.700000 4158.444655 64.486004
42.704000 4200.025907 64.807607
42.708000 4230.337608 65.041046
42.712000 4196.952571 64.783891
42.716000 4229.040346 65.031072
42.720000 4207.228781 64.863154
42.724000 4081.751910 63.888590
42.728000 4076.491617 63.847409
42.732000 4115.337157 64.150894
42.736000 4120.869918 64.194002
42.740000 4210.125824 64.885482
42.744000 4069.598678 63.793406
42.748000 4106.469679 64.081742
42.752000 4034.858851 63.520539
42.756000 4059.597672 63.714972
42.760000 4055.905168 63.685989
42.764000 3994.604623 63.202885
42.768000 4005.073284 63.285648
42.772000 3908.655085 62.519238
42.776000 3886.283901 62.340067
42.780000 3873.812107 62.239956
42.784000 3795.670878 61.609016
42.788000 3833.388119 61.914361
42.792000 3790.172400 61.564376
42.796000 3750.561680 61.241829
42.800000 3799.740741 61.642037
42.804000 3780.569259 61.486334
42.808000 3827.560409 61.867281
42.812000 3820.655611 61.811452
42.816000 3870.796484 62.215725
42.820000 3792.343797 61.582009
42.824000 3723.141504 61.017551
42.828000 3715.521051 60.955074
42.832000 3672.039313 60.597354
42.836000 3638.206180 60.317545
42.840000 3687.200435 60.722322
42.844000 3670.144113 60.581714
42.848000 3740.705375 61.161306
42.852000 3672.738412 60.603122
42.856000 3742.546935 61.176359
42.860000 3619.300740 60.160624
42.864000 3646.514073 60.386373
42.868000 3748.335372 61.223650
42.872000 3655.826265 60.463429
42.876000 3705.628720 60.873876
42.880000 3712.859097 60.933235
42.884000 3643.541289 60.361754
42.888000 3692.101666 60.762667
42.892000 3805.383058 61.687787
42.896000 3722.058934 61.008679
42.900000 3636.641944 60.304576
42.904000 3713.684811 60.940010
42.908000 3766.819588 61.374421
42.912000 3770.189569 61.401869
42.916000 3824.258791 61.840592
42.920000 3734.931001 61.114082
42.924000 3729.604688 61.070490
42.928000 3725.550973 61.037292
42.932000 3860.833577 62.135606
42.936000 3798.694870 61.633553
42.940000 3797.657432 61.625136
42.944000 3833.122183 61.912214
42.948000 3828.089982 61.871560
42.952000 3784.274266 61.516455
42.956000 3731.973375 61.089879
42.960000 3715.616529 60.955857
42.964000 3819.809270 61.804606
42.968000 3917.623869 62.590925
42.972000 3891.922088 62.385271
42.976000 3848.710662 62.037978
42.980000 3981.061638 63.095655
42.984000 3935.732717 62.735418
42.988000 4034.207975 63.515415
42.992000 4027.455659 63.462238
42.996000 3866.904614 62.184440
43.000000 3982.341605 63.105797
43.004000 4013.277258 63.350432
43.008000 3993.137150 63.191274
43.012000 3955.371306 62.891743
43.016000 3933.154052 62.714863
43.020000 3951.362368 62.859863
43.024000 3950.726967 62.854809
43.028000 3888.075366 62.354433
43.032000 3961.692061 62.941974
43.036000 3948.961065 62.840760
43.040000 3887.343009 62.348561
43.044000 3893.283097 62.396179
43.048000 3951.394141 62.860116
43.052000 3993.882396 63.197171
43.056000 3964.696064 62.965833
43.060000 3969.373901 63.002967
43.064000 3812.109189 61.742280
43.068000 3861.907665 62.144249
43.072000 3855.005578 62.088691
43.076000 3798.612404 61.632884
43.080000 3858.549324 62.117222
43.084000 3876.211563 62.259229
43.088000 3822.626099 61.827390
43.092000 3750.417328 61.240651
43.096000 3743.436718 61.183631
43.100000 3747.846871 61.219661
43.104000 3800.659328 61.649488
43.108000 3752.728628 61.259519
43.112000 3814.380623 61.760672
43.116000 3699.642420 60.824686
43.120000 3624.430807 60.203246
43.124000 3683.071904 60.688318
43.128000 3814.663043 61.762959
43.132000 3691.839414 60.760509
43.136000 3671.194950 60.590387
43.140000 3668.325166 60.566700
43.144000 3715.538707 60.955219
43.148000 3752.307674 61.256083
43.152000 3709.348269 60.904419
43.156000 3726.886019 61.048227
43.160000 3789.586855 61.559620
43.164000 3761.988324 61.335050
43.168000 3722.301198 61.010665
43.172000 3692.865883 60.768955
43.176000 3813.368043 61.752474
43.180000 3730.197166 61.075340
43.184000 3777.496138 61.461339
43.188000 3731.127344 61.082955
43.192000 3693.372836 60.773126
43.196000 3843.033355 61.992204
43.200000 3723.348457 61.019247
43.204000 3746.540525 61.208991
43.208000 3713.393772 60.937622
43.212000 3667.052159 60.556190
43.216000 3775.119308 61.442000
43.220000 3774.285493 61.435214
43.224000 3806.500517 61.696844
43.228000 3827.534331 61.867070
43.232000 3838.527656 61.955852
43.236000 3926.822903 62.664367
43.240000 3812.859319 61.748355
43.244000 3890.287720 62.372171
43.248000 3878.937068 62.281113
43.252000 3969.711851 63.005649
43.256000 3908.111618 62.514891
43.260000 3945.194513 62.810783
43.264000 3990.006646 63.166499
43.268000 4069.172600 63.790067
43.272000 4102.491611 64.050696
43.276000 4041.491600 63.572727
43.280000 3951.241836 62.858904
43.284000 4003.633127 63.274269
43.288000 4051.612647 63.652279
43.292000 4065.369231 63.760248
43.296000 4082.051132 63.890932
43.300000 3983.873802 63.117936
43.304000 3975.484285 63.051442
43.308000 4022.664788 63.424481
43.312000 4006.168781 63.294303
43.316000 3936.755857 62.743572
43.320000 3981.295201 63.097506
43.324000 4015.191517 63.365539
43.328000 4069.633267 63.793677
43.332000 4056.134984 63.687793
43.336000 3965.763040 62.974305
43.340000 3997.192458 63.223354
43.344000 3958.456155 62.916263
43.348000 3916.335729 62.580634
43.352000 3930.581845 62.694353
43.356000 3988.592969 63.155308
43.360000 4006.090522 63.293685
43.364000 4052.104208 63.656140
43.368000 3992.415101 63.185561
43.372000 3951.467252 62.860697
43.376000 3993.426545 63.193564
43.380000 3956.191121 62.898260
43.384000 4019.063099 63.396081
43.388000 3975.422278 63.050950
43.392000 4029.859404 63.481174
43.396000 3983.365016 63.113905
43.400000 3934.053912 62.722037
43.404000 4021.892971 63.418396
43.408000 4137.135911 64.320571
43.412000 4029.308573 63.476835
43.416000 4052.356938 63.658125
43.420000 4028.571619 63.471030
43.424000 3985.277016 63.129050
43.428000 3927.199196 62.667369
43.432000 3975.712993 63.053255
43.436000 4104.926367 64.069699
43.440000 4023.671218 63.432415
43.444000 4032.654067 63.503182
43.448000 4033.919030 63.513141
43.452000 4074.978435 63.835558
43.456000 4050.150992 63.640797
43.460000 4033.670378 63.511183
43.464000 3993.877796 63.197134
43.468000 4076.648296 63.848636
43.472000 4036.100501 63.530312
43.476000 4122.190628 64.204288
43.480000 4095.490930 63.996023
43.484000 4025.361022 63.445733
43.488000 4053.163573 63.664461
43.492000 4171.896509 64.590220
43.496000 4118.575346 64.176128
43.500000 4024.567219 63.439477
43.504000 4102.709265 64.052395
43.508000 4127.284345 64.243944
43.512000 4171.238773 64.585128
43.516000 4130.457996 64.268639
43.520000 4231.200455 65.047678
43.524000 4265.741214 65.312642
43.528000 4195.350698 64.771527
43.532000 4169.409744 64.570967
43.536000 4225.997351 65.007671
43.540000 4188.216986 64.716435
43.544000 4100.535221 64.035422
43.548000 4181.490948 64.664449
43.552000 4197.215414 64.785920
43.556000 4143.353568 64.368887
43.560000 4058.867293 63.709240
43.564000 4184.035942 64.684124
43.568000 4139.312893 64.337492
43.572000 4055.447284 63.682394
43.576000 4021.283289 63.413589
43.580000 4012.178906 63.341763
43.584000 4011.044196 63.332805
43.588000 4021.468640 63.415051
43.592000 3954.550319 62.885215
43.596000 3931.493610 62.701624
43.600000 3968.982266 62.999859
43.604000 3878.317317 62.276138
43.608000 3858.290202 62.115137
43.612000 3917.341535 62.588669
43.616000 3949.887737 62.848132
43.620000 3821.716187 61.820031
43.624000 3744.424057 61.191699
43.628000 3802.326411 61.663007
43.632000 3868.524302 62.197462
43.636000 3823.247006 61.832411
43.640000 3866.960330 62.184888
43.644000 3753.880448 61.268919
43.648000 3737.423024 61.134467
43.652000 3722.310703 61.010743
43.656000 3874.429506 62.244916
43.660000 3780.881649 61.488874
43.664000 3804.893068 61.683815
43.668000 3756.420919 61.289648
43.672000 3751.185636 61.246923
43.676000 3722.543073 61.012647
43.680000 3725.188406 61.034322
43.684000 3739.196555 61.148970
43.688000 3774.944027 61.440573
43.692000 3771.845406 61.415352
43.696000 3634.736542 60.288776
43.700000 3695.948219 60.794311
43.704000 3797.155262 61.621062
43.708000 3758.188981 61.304070
43.712000 3680.626386 60.668166
43.716000 3748.342652 61.223710
43.720000 3841.841895 61.982593
43.724000 3714.413138 60.945985
43.728000 3740.065569 61.156075
43.732000 3718.492263 60.979441
43.736000 3741.382436 61.166841
43.740000 3765.793333 61.366060
43.744000 3834.841629 61.926098
43.748000 3693.943965 60.777825
43.752000 3618.761512 60.156143
43.756000 3769.754143 61.398324
43.760000 3792.774022 61.585502
43.764000 3720.882322 60.999035
43.768000 3782.255341 61.500043
43.772000 3849.282672 62.042588
43.776000 3788.415614 61.550107
43.780000 3817.063348 61.782387
43.784000 3784.363364 61.517179
43.788000 3843.876497 61.999004
43.792000 3823.101233 61.831232
43.796000 3813.504658 61.753580
43.800000 3770.520319 61.404563
43.804000 3758.896460 61.309840
43.808000 3726.520096 61.045230
43.812000 3928.630724 62.678790
43.816000 3866.173543 62.178562
43.820000 3768.884405 61.391240
43.824000 3767.146127 61.377081
43.828000 3737.166402 61.132368
43.832000 3731.484429 61.085877
43.836000 3795.018898 61.603725
43.840000 3978.605536 63.076188
43.844000 3896.203354 62.419575
43.848000 3909.866328 62.528924
43.852000 3921.820868 62.624443
43.856000 3906.341203 62.500730
43.860000 3908.268832 62.516149
43.864000 3898.360394 62.436851
43.868000 3968.817658 62.998553
43.872000 3967.129359 62.985152
43.876000 4105.921371 64.077464
43.880000 4145.084642 64.382332
43.884000 4106.159170 64.079319
43.888000 4016.401240 63.375084
43.892000 4016.349747 63.374677
43.896000 4072.117913 63.813148
43.900000 4066.677518 63.770507
43.904000 4184.561352 64.688186
43.908000 4136.235560 64.313572
43.912000 4101.934302 64.046345
43.916000 4056.047112 63.687103
43.920000 4121.694703 64.200426
43.924000 4199.538728 64.803848
43.928000 4122.706032 64.208302
43.932000 4157.663029 64.479943
43.936000 4193.470588 64.757012
43.940000 4015.358228 63.366854
43.944000 4058.006747 63.702486
43.948000 4120.586106 64.191792
43.952000 3961.115784 62.937396
43.956000 4037.971520 63.545035
43.960000 3947.060382 62.825635
43.964000 3943.074528 62.793905
43.968000 3732.027415 61.090322
43.972000 3892.649721 62.391103
43.976000 3899.679798 62.447416
43.980000 3852.762326 62.070624
43.984000 3762.144530 61.336323
43.988000 3753.889506 61.268993
43.992000 3766.711206 61.373538
43.996000 3820.590365 61.810924
44.000000 3755.270162 61.280259
44.004000 3731.424010 61.085383
44.008000 3681.294230 60.673670
44.012000 3600.512377 60.004270
44.016000 3604.287730 60.035720
44.020000 3630.887943 60.256850
44.024000 3512.929483 59.269971
44.028000 3564.172478 59.700691
44.032000 3556.151717 59.633478
44.036000 3424.672786 58.520704
44.040000 3552.440511 59.602353
44.044000 3597.251530 59.977092
44.048000 3487.492623 59.054997
44.052000 3524.142097 59.364485
44.056000 3608.859196 60.073781
44.060000 3619.440245 60.161784
44.064000 3602.505456 60.020875
44.068000 3553.172150 59.608491
44.072000 3566.941709 59.723879
44.076000 3456.377695 58.790966
44.080000 3551.648922 59.595712
44.084000 3504.398463 59.197960
44.088000 3598.079851 59.983997
44.092000 3493.433712 59.105277
44.096000 3483.595688 59.021993
44.100000 3514.210008 59.280773
44.104000 3470.674319 58.912429
44.108000 3578.783870 59.822938
44.112000 3615.703753 60.130722
44.116000 3520.492414 59.333738
44.120000 3571.470115 59.761778
44.124000 3546.175920 59.549777
44.128000 3593.538728 59.946132
44.132000 3507.854482 59.227143
44.136000 3507.655310 59.225462
44.140000 3582.754858 59.856118
44.144000 3585.826993 59.881775
44.148000 3686.897525 60.719828
44.152000 3619.417393 60.161594
44.156000 3598.039393 59.983659
44.160000 3586.512328 59.887497
44.164000 3685.050306 60.704615
44.168000 3616.421613 60.136691
44.172000 3564.003725 59.699277
44.176000 3705.223316 60.870546
44.180000 3725.740484 61.038844
44.184000 3755.555173 61.282585
44.188000 3768.835507 61.390842
44.192000 3745.433324 61.199945
44.196000 3744.218201 61.190017
44.200000 3748.413628 61.224290
44.204000 3729.583754 61.070318
44.208000 3764.053234 61.351880
44.212000 3791.971786 61.578988
44.216000 3792.018100 61.579364
44.220000 3792.239381 61.581161
44.224000 3875.810025 62.256004
44.228000 3843.617248 61.996913
44.232000 3927.841119 62.672491
44.236000 3921.545116 62.622241
44.240000 3950.174075 62.850410
44.244000 4024.940401 63.442418
44.248000 4033.058025 63.506362
44.252000 3968.119110 62.993008
44.256000 3968.506521 62.996083
44.260000 4016.736243 63.377727
44.264000 4044.061376 63.592935
44.268000 4014.165025 63.357439
44.272000 3904.258399 62.484065
44.276000 3839.821444 61.966293
44.280000 3981.633072 63.100183
44.284000 4015.485760 63.367861
44.288000 3952.315297 62.867442
44.292000 4057.033457 63.694846
44.296000 3998.174317 63.231118
44.300000 3855.451424 62.092282
44.304000 3792.515875 61.583406
44.308000 3943.759781 62.799361
44.312000 3836.552036 61.939907
44.316000 3824.997414 61.846563
44.320000 3791.374329 61.574137
44.324000 3776.052445 61.449593
44.328000 3830.834709 61.893737
44.332000 3793.686556 61.592910
44.336000 3791.427787 61.574571
44.340000 3709.085341 60.902261
44.344000 3746.128294 61.205623
44.348000 3719.687600 60.989242
44.352000 3671.626031 60.593944
44.356000 3806.359576 61.695701
44.360000 3732.644348 61.095371
44.364000 3668.748470 60.570195
44.368000 3760.212613 61.320573
44.372000 3764.712537 61.357253
44.376000 3729.858683 61.072569
44.380000 3810.361666 61.728127
44.384000 3686.816081 60.719157
44.388000 3560.575459 59.670558
44.392000 3752.795636 61.260066
44.396000 3652.166888 60.433161
44.400000 3732.385825 61.093255
44.404000 3668.035664 60.564310
44.408000 3655.997548 60.464846
44.412000 3562.694703 59.688313
44.416000 3602.490687 60.020752
44.420000 3661.618845 60.511312
44.424000 3656.558069 60.469480
44.428000 3606.970987 60.058063
44.432000 3684.642119 60.701253
44.436000 3670.521248 60.584827
44.440000 3690.431727 60.748924
44.444000 3693.461682 60.773857
44.448000 3693.490817 60.774097
44.452000 3683.428547 60.691256
44.456000 3652.934555 60.439512
44.460000 3671.378380 60.591900
44.464000 3694.391316 60.781505
44.468000 3710.496133 60.913842
44.472000 3768.131644 61.385109
44.476000 3687.314299 60.723260
44.480000 3753.989480 61.269809
44.484000 3838.527549 61.955852
44.488000 3920.735426 62.615776
44.492000 3946.423097 62.820563
44.496000 3916.272292 62.580127
44.500000 4031.896900 63.497220
44.504000 4010.119591 63.325505
44.508000 4008.084431 63.309434
44.512000 4059.883687 63.717217
44.516000 4066.324696 63.767740
44.520000 4020.427735 63.406843
44.524000 4060.223493 63.719883
44.528000 4092.105669 63.969568
44.532000 4120.397020 64.190319
44.536000 4106.526218 64.082183
44.540000 4124.387440 64.221394
44.544000 4105.833644 64.076779
44.548000 4119.874960 64.186252
44.552000 4086.477775 63.925564
44.556000 4129.645556 64.262318
44.560000 4070.339100 63.799209
44.564000 3984.098137 63.119713
44.568000 3966.546877 62.980528
44.572000 3978.021560 63.071559
44.576000 3962.330761 62.947047
44.580000 3930.974980 62.697488
44.584000 4113.088877 64.133368
44.588000 4016.654216 63.377080
44.592000 3873.046982 62.233809
44.596000 3916.894597 62.585099
44.600000 3972.616678 63.028697
44.604000 3932.988981 62.713547
44.608000 3933.093263 62.714378
44.612000 3884.062720 62.322249
44.616000 3961.587280 62.941141
44.620000 3905.357200 62.492857
44.624000 3940.627204 62.774415
44.628000 4013.791626 63.354492
44.632000 3920.035134 62.610184
44.636000 3890.320915 62.372437
44.640000 3903.727176 62.479814
44.644000 3877.027142 62.265778
44.648000 3933.199627 62.715226
44.652000 3900.262640 62.452083
44.656000 3993.186851 63.191668
44.660000 3902.422033 62.469369
44.664000 3964.315145 62.962808
44.668000 3923.198244 62.635439
44.672000 3953.574128 62.877453
44.676000 3998.282254 63.231972
44.680000 3917.601072 62.590743
44.684000 3966.498928 62.980147
44.688000 4021.002600 63.411376
44.692000 3994.696958 63.203615
44.696000 3913.380623 62.557019
44.700000 3938.312932 62.755979
44.704000 3924.557892 62.646292
44.708000 4062.689196 63.739228
44.712000 3910.733298 62.535856
44.716000 3983.854745 63.117785
44.720000 3912.239073 62.547894
44.724000 3929.406175 62.684976
44.728000 3863.476051 62.156866
44.732000 3850.296513 62.050758
44.736000 3773.077967 61.425385
44.740000 3836.808934 61.941980
44.744000 3868.589566 62.197987
44.748000 3744.891432 61.195518
44.752000 3752.905776 61.260965
44.756000 3726.687517 61.046601
44.760000 3786.536189 61.534837
44.764000 3824.079851 61.839145
44.768000 3729.881161 61.072753
44.772000 3687.502795 60.724812
44.776000 3647.049494 60.390806
44.780000 3643.757785 60.363547
44.784000 3650.902629 60.422700
44.788000 3683.174366 60.689162
44.792000 3572.407537 59.769621
44.796000 3587.948363 59.899485
44.800000 3680.161788 60.664337
44.804000 3536.251264 59.466388
44.808000 3590.813051 59.923393
44.812000 3587.548734 59.896150
44.816000 3582.387164 59.853046
44.820000 3551.691509 59.596070
44.824000 3542.954663 59.522724
44.828000 3481.260837 59.002210
44.832000 3524.110460 59.364219
44.836000 3379.461948 58.133140
44.840000 3405.984030 58.360809
44.844000 3537.264618 59.474907
44.848000 3502.543876 59.182294
44.852000 3450.585961 58.741688
44.856000 3399.620442 58.306264
44.860000 3469.508948 58.902538
44.864000 3534.015571 59.447587
44.868000 3435.991939 58.617335
44.872000 3394.084376 58.258771
44.876000 3463.354976 58.850276
44.880000 3452.941176 58.761732
44.884000 3441.779995 58.666686
44.888000 3426.625233 58.537383
44.892000 3398.616255 58.297652
44.896000 3392.981620 58.249306
44.900000 3402.648390 58.332224
44.904000 3492.652209 59.098665
44.908000 3451.075060 58.745851
44.912000 3506.920149 59.219255
44.916000 3403.973241 58.343579
44.920000 3463.994677 58.855711
44.924000 3498.486532 59.148005
44.928000 3486.743641 59.048655
44.932000 3431.499601 58.579003
44.936000 3443.794517 58.683852
44.940000 3357.214476 57.941475
44.944000 3428.819271 58.556121
44.948000 3452.038318 58.754049
44.952000 3345.655310 57.841640
44.956000 3578.076923 59.817029
44.960000 3488.660192 59.064881
44.964000 3455.644131 58.784727
44.968000 3478.520894 58.978987
44.972000 3423.095066 58.507222
44.976000 3528.635347 59.402318
44.980000 3496.668601 59.132636
44.984000 3541.940385 59.514203
44.988000 3507.938582 59.227853
44.992000 3529.375566 59.408548
44.996000 3504.248869 59.196696
45.000000 3462.689694 58.844623
45.004000 3454.187916 58.772340
45.008000 3487.316533 59.053506
45.012000 3476.078191 58.958275
45.016000 3428.570934 58.554000
45.020000 3403.826880 58.342325
45.024000 3494.859995 59.117341
45.028000 3555.990152 59.632123
45.032000 3559.402247 59.660726
45.036000 3569.055896 59.741576
45.040000 3501.881022 59.176693
45.044000 3572.746656 59.772457
45.048000 3515.121373 59.288459
45.052000 3539.331825 59.492284
45.056000 3590.924674 59.924325
45.060000 3594.753527 59.956263
45.064000 3597.049338 59.975406
45.068000 3524.658504 59.368834
45.072000 3601.310088 60.010916
45.076000 3588.241259 59.901930
45.080000 3521.537397 59.342543
45.084000 3516.657706 59.301414
45.088000 3529.489252 59.409505
45.092000 3533.919617 59.446780
45.096000 3587.401916 59.894924
45.100000 3574.570402 59.787711
45.104000 3609.923151 60.082636
45.108000 3551.313016 59.592894
45.112000 3521.039856 59.338351
45.116000 3666.415757 60.550935
45.120000 3560.213468 59.667524
45.124000 3569.503859 59.745325
45.128000 3521.405319 59.341430
45.132000 3542.261645 59.516902
45.136000 3574.849614 59.790046
45.140000 3635.994410 60.299207
45.144000 3521.496238 59.342196
45.148000 3711.411232 60.921353
45.152000 3520.595688 59.334608
45.156000 3543.301038 59.525633
45.160000 3583.632531 59.863449
45.164000 3640.765238 60.338754
45.168000 3452.880756 58.761218
45.172000 3641.073729 60.341310
45.176000 3549.058855 59.573978
45.180000 3601.649188 60.013742
45.184000 3595.327521 59.961050
45.188000 3573.340165 59.777422
45.192000 3520.839662 59.336664
45.196000 3522.449561 59.350228
45.200000 3569.793452 59.747749
45.204000 3638.784669 60.322340
45.208000 3641.658187 60.346153
45.212000 3497.431727 59.139088
45.216000 3513.206371 59.272307
45.220000 3600.853340 60.007111
45.224000 3576.670216 59.805269
45.228000 3532.229435 59.432562
45.232000 3561.823796 59.681017
45.236000 3693.931409 60.777721
45.240000 3616.220655 60.135020
45.244000 3568.005323 59.732783
45.248000 3509.263465 59.239037
45.252000 3496.755656 59.133372
45.256000 3506.178600 59.212994
45.260000 3538.254458 59.483228
45.264000 3498.311062 59.146522
45.268000 3595.433535 59.961934
45.272000 3486.402099 59.045763
45.276000 3462.996806 58.847233
45.280000 3554.126697 59.616497
45.284000 3582.299707 59.852316
45.288000 3591.221662 59.926803
45.292000 3522.879691 59.353852
45.296000 3486.825126 59.049345
45.300000 3479.529892 58.987540
45.304000 3484.658504 59.030996
45.308000 3463.737557 58.853526
45.312000 3465.541808 58.868853
45.316000 3476.401384 58.961016
45.320000 3550.835605 59.588888
45.324000 3525.524621 59.376128
45.328000 3464.254527 58.857918
45.332000 3498.048709 59.144304
45.336000 3405.888607 58.359991
45.340000 3509.980037 59.245084
45.344000 3560.310620 59.668339
45.348000 3558.984766 59.657227
45.352000 3473.468459 58.936139
45.356000 3483.517544 59.021331
45.360000 3542.182592 59.516238
45.364000 3469.547235 58.902863
45.368000 3434.450359 58.604184
45.372000 3522.679444 59.352165
45.376000 3389.858664 58.222493
45.380000 3360.026861 57.965739
45.384000 3479.031492 58.983315
45.388000 3580.421723 59.836625
45.392000 3497.433022 59.139099
45.396000 3420.222784 58.482671
45.400000 3489.520211 59.072161
45.404000 3526.763375 59.386559
45.408000 3516.684182 59.301637
45.412000 3568.150652 59.733999
45.416000 3586.424253 59.886762
45.420000 3449.034868 58.728484
45.424000 3510.814386 59.252126
45.428000 3522.950479 59.354448
45.432000 3512.852276 59.269320
45.436000 3481.269225 59.002282
45.440000 3417.524355 58.459596
45.444000 3555.114083 59.624777
45.448000 3556.550256 59.636820
45.452000 3568.202573 59.734434
45.456000 3526.189031 59.381723
45.460000 3622.994677 60.191317
45.464000 3613.073745 60.108849
45.468000 3614.187172 60.118110
45.472000 3510.488954 59.249379
45.476000 3672.700213 60.602807
45.480000 3685.986462 60.712325
45.484000 3744.259516 61.190355
45.488000 3613.303434 60.110760
45.492000 3607.651225 60.063726
45.496000 3632.069452 60.266653
45.500000 3629.843891 60.248186
45.504000 3663.489220 60.526764
45.508000 3743.010650 61.180149
45.512000 3637.955526 60.315467
45.516000 3707.655809 60.890523
45.520000 3656.206015 60.466569
45.524000 3671.391640 60.592010
45.528000 3670.321112 60.583175
45.532000 3577.649240 59.813454
45.536000 3607.885517 60.065677
45.540000 3726.449724 61.044654
45.544000 3685.075249 60.704821
45.548000 3650.805078 60.421892
45.552000 3669.260368 60.574420
45.556000 3565.760117 59.713986
45.560000 3671.514183 60.593021
45.564000 3704.047159 60.860884
45.568000 3695.334665 60.789264
45.572000 3637.797199 60.314154
45.576000 3650.663182 60.420718
45.580000 3667.591054 60.560639
45.584000 3727.337608 61.051926
45.588000 3698.274760 60.813442
45.592000 3718.048536 60.975803
45.596000 3723.373269 61.019450
45.600000 3707.857436 60.892179
45.604000 3629.185836 60.242724
45.608000 3650.505671 60.419415
45.612000 3693.271565 60.772293
45.616000 3774.702249 61.438606
45.620000 3801.559105 61.656785
45.624000 3826.775827 61.860939
45.628000 3833.333866 61.913923
45.632000 3792.715935 61.585030
45.636000 3945.494143 62.813169
45.640000 3830.462379 61.890729
45.644000 3909.829073 62.528626
45.648000 3939.160323 62.762730
45.652000 3913.660809 62.559258
45.656000 3948.849943 62.839875
45.660000 3877.197551 62.267147
45.664000 3931.315796 62.700206
45.668000 4014.141374 63.357252
45.672000 3996.739344 63.219770
45.676000 3970.995740 63.015837
45.680000 3876.343614 62.260289
45.684000 3907.274494 62.508195
45.688000 3982.264005 63.105182
45.692000 3926.529374 62.662025
45.696000 3966.362087 62.979061
45.700000 3915.715805 62.575681
45.704000 3941.707889 62.783022
45.708000 3869.391374 62.204432
45.712000 3916.091337 62.578681
45.716000 3936.361191 62.740427
45.720000 3795.950213 61.611283
45.724000 3868.321229 62.195830
45.728000 4052.750799 63.661219
45.732000 4043.133919 63.585642
45.736000 4090.839294 63.959669
45.740000 4063.558696 63.746048
45.744000 3987.676554 63.148053
45.748000 4077.909478 63.858511
45.752000 4024.949414 63.442489
45.756000 4054.601795 63.675755
45.760000 4110.152394 64.110470
45.764000 4108.914537 64.100815
45.768000 4101.090860 64.039760
45.772000 4053.268903 63.665288
45.776000 3999.742936 63.243521
45.780000 4022.354100 63.422032
45.784000 3996.196340 63.215475
45.788000 4081.648030 63.887777
45.792000 3965.898861 62.975383
45.796000 4085.431466 63.917380
45.800000 4067.203232 63.774628
45.804000 4125.298213 64.228484
45.808000 3999.100639 63.238443
45.812000 4072.793183 63.818439
45.816000 3925.844249 62.656558
45.820000 3988.546566 63.154941
45.824000 4102.812833 64.053203
45.828000 4045.658222 63.605489
45.832000 4053.590314 63.667812
45.836000 4064.441427 63.752972
45.840000 4015.065528 63.364545
45.844000 3869.708251 62.206979
45.848000 3938.739350 62.759377
45.852000 3919.479955 62.605750
45.856000 3901.977790 62.465813
45.860000 3935.211662 62.731265
45.864000 3764.877796 61.358600
45.868000 3900.735943 62.455872
45.872000 3857.223978 62.106553
45.876000 3827.323522 61.865366
45.880000 3764.201334 61.353087
45.884000 3774.697620 61.438568
45.888000 3794.491217 61.599442
45.892000 3843.670573 61.997343
45.896000 3779.173629 61.474984
45.900000 3671.316178 60.591387
45.904000 3607.788779 60.064871
45.908000 3559.589058 59.662292
45.912000 3580.620186 59.838284
45.916000 3574.626631 59.788181
45.920000 3558.134185 59.650098
45.924000 3539.244826 59.491553
45.928000 3527.442904 59.392280
45.932000 3561.855659 59.681284
45.936000 3488.029135 59.059539
45.940000 3528.662045 59.402542
45.944000 3520.851708 59.336765
45.948000 3442.782690 58.675231
45.952000 3461.170400 58.831713
45.956000 3453.372539 58.765403
45.960000 3411.275005 58.406121
45.964000 3479.918509 58.990834
45.968000 3431.255651 58.576921
45.972000 3417.909227 58.462888
45.976000 3394.844906 58.265298
45.980000 3421.944075 58.497385
45.984000 3400.335109 58.312392
45.988000 3397.752086 58.290240
45.992000 3411.920107 58.411644
45.996000 3396.518986 58.279662
46.000000 3327.805859 57.687138
46.004000 3396.371465 58.278396
46.008000 3434.333014 58.603183
46.012000 3456.867111 58.795128
46.016000 3366.392073 58.020618
46.020000 3381.713449 58.152502
46.024000 3342.500321 57.814361
46.028000 3495.452071 59.122348
46.032000 3444.430920 58.689274
46.036000 3357.326830 57.942444
46.040000 3456.878230 58.795223
46.044000 3474.852730 58.947881
46.048000 3437.238984 58.627971
46.052000 3459.737949 58.819537
46.056000 3367.829153 58.033001
46.060000 3450.961187 58.744882
46.064000 3443.325965 58.679860
46.068000 3446.026387 58.702865
46.072000 3401.145064 58.319337
46.076000 3466.731610 58.878957
46.080000 3512.183274 59.263676
46.084000 3351.836218 57.895045
46.088000 3349.812923 57.877568
46.092000 3424.444208 58.518751
46.096000 3449.307710 58.730807
46.100000 3396.688833 58.281119
46.104000 3452.023702 58.753925
46.108000 3510.561100 59.249988
46.112000 3485.424234 59.037482
46.116000 3399.216510 58.302800
46.120000 3453.590088 58.767254
46.124000 3477.417843 58.969635
46.128000 3559.278513 59.659689
46.132000 3496.514328 59.131331
46.136000 3472.758455 58.930115
46.140000 3467.999129 58.889720
46.144000 3497.045863 59.135826
46.148000 3521.440486 59.341726
46.152000 3635.371505 60.294042
46.156000 3661.424531 60.509706
46.160000 3600.321085 60.002676
46.164000 3669.022535 60.572457
46.168000 3728.077255 61.057983
46.172000 3641.155930 60.341991
46.176000 3684.932623 60.703646
46.180000 3743.115569 61.181007
46.184000 3766.707556 61.373509
46.188000 3697.010138 60.803044
46.192000 3824.958701 61.846250
46.196000 3825.718896 61.852396
46.200000 3815.566303 61.770270
46.204000 3796.130162 61.612744
46.208000 3858.182681 62.114271
46.212000 3756.301632 61.288675
46.216000 3991.774708 63.180493
46.220000 3924.222937 62.643618
46.224000 3904.846564 62.488772
46.228000 3881.730104 62.303532
46.232000 3869.550090 62.205708
46.236000 3871.021869 62.217537
46.240000 3790.753567 61.569096
46.244000 3838.355955 61.954467
46.248000 3800.706979 61.649874
46.252000 3862.814270 62.151543
46.256000 3821.483052 61.818145
46.260000 3736.478319 61.126740
46.264000 3816.962706 61.781573
46.268000 3719.884032 60.990852
46.272000 3792.986018 61.587223
46.276000 3659.846330 60.496664
46.280000 3763.690949 61.348928
46.284000 3737.926212 61.138582
46.288000 3664.654992 60.536394
46.292000 3754.394909 61.273117
46.296000 3751.929409 61.252995
46.300000 3683.477029 60.691655
46.304000 3651.230687 60.425414
46.308000 3657.471187 60.477030
46.312000 3596.163825 59.968023
46.316000 3537.059287 59.473181
46.320000 3561.934477 59.681944
46.324000 3669.954388 60.580148
46.328000 3569.325469 59.743832
46.332000 3602.573342 60.021441
46.336000 3590.583910 59.921481
46.340000 3603.973843 60.033106
46.344000 3689.016672 60.737276
46.348000 3557.872669 59.647906
46.352000 3579.848292 59.831833
46.356000 3663.565796 60.527397
46.360000 3596.941439 59.974507
46.364000 3567.021157 59.724544
46.368000 3575.919552 59.798993
46.372000 3577.238572 59.810021
46.376000 3684.205907 60.697660
46.380000 3606.126240 60.051030
46.384000 3516.982361 59.304151
46.388000 3506.514559 59.215830
46.392000 3515.890851 59.294948
46.396000 3523.298615 59.357380
46.400000 3543.800386 59.529828
46.404000 3521.988692 59.346345
46.408000 3396.846224 58.282469
46.412000 3453.951513 58.770329
46.416000 3517.549513 59.308933
46.420000 3487.458178 59.054705
46.424000 3505.915856 59.210775
46.428000 3532.413592 59.434111
46.432000 3525.699022 59.377597
46.436000 3528.782505 59.403556
46.440000 3537.194187 59.474315
46.444000 3570.819425 59.756334
46.448000 3536.800190 59.471003
46.452000 3607.530915 60.062725
46.456000 3555.129273 59.624905
46.460000 3529.416527 59.408893
46.464000 3504.606855 59.199720
46.468000 3570.177833 59.750965
46.472000 3585.074546 59.875492
46.476000 3600.877770 60.007314
46.480000 3632.613376 60.271165
46.484000 3566.522126 59.720366
46.488000 3529.202032 59.407087
46.492000 3476.385996 58.960885
46.496000 3468.925152 58.897582
46.500000 3627.668428 60.230129
46.504000 3569.391779 59.744387
46.508000 3553.308287 59.609632
46.512000 3566.890392 59.723449
46.516000 3530.134020 59.414931
46.520000 3572.279161 59.768547
46.524000 3528.445591 59.400720
46.528000 3588.323945 59.902621
46.532000 3558.143618 59.650177
46.536000 3564.698355 59.705095
46.540000 3518.427549 59.316335
46.544000 3593.703318 59.947505
46.548000 3602.569885 60.021412
46.552000 3559.214653 59.659154
46.556000 3596.768235 59.973063
46.560000 3560.022541 59.665924
46.564000 3535.865132 59.463141
46.568000 3641.581797 60.345520
46.572000 3704.006629 60.860551
46.576000 3554.198944 59.617103
46.580000 3537.691180 59.478493
46.584000 3555.351570 59.626769
46.588000 3619.160976 60.159463
46.592000 3541.676525 59.511986
46.596000 3535.440855 59.459573
46.600000 3538.298462 59.483598
46.604000 3556.880790 59.639591
46.608000 3605.950639 60.049568
46.612000 3529.395791 59.408718
46.616000 3575.009498 59.791383
46.620000 3588.102992 59.900776
46.624000 3652.221567 60.433613
46.628000 3682.272586 60.681732
46.632000 3706.984033 60.885007
46.636000 3712.386533 60.929357
46.640000 3617.873396 60.148761
46.644000 3538.439413 59.484783
46.648000 3580.074195 59.833721
46.652000 3648.311781 60.401256
46.656000 3613.661205 60.113736
46.660000 3631.628320 60.262993
46.664000 3762.173023 61.336555
46.668000 3718.276887 60.977675
46.672000 3670.729293 60.586544
46.676000 3756.967843 61.294109
46.680000 3740.639205 61.160765
46.684000 3702.030283 60.844312
46.688000 3700.936330 60.835321
46.692000 3696.503052 60.798874
46.696000 3677.315395 60.640872
46.700000 3685.138266 60.705340
46.704000 3603.434396 60.028613
46.708000 3682.467515 60.683338
46.712000 3621.401391 60.178081
46.716000 3680.619152 60.668107
46.720000 3702.401540 60.847363
46.724000 3658.105676 60.482276
46.728000 3653.060015 60.440549
46.732000 3611.028039 60.091830
46.736000 3675.013336 60.621888
46.740000 3627.398291 60.227886
46.744000 3592.437111 59.936943
46.748000 3470.245302 58.908788
46.752000 3543.938966 59.530992
46.756000 3477.886452 58.973608
46.760000 3606.785380 60.056518
46.764000 3528.647000 59.402416
46.768000 3459.135868 58.814419
46.772000 3538.055970 59.481560
46.776000 3545.609356 59.545020
46.780000 3553.575230 59.611872
46.784000 3448.401835 58.723095
46.788000 3406.307447 58.363580
46.792000 3502.215965 59.179523
46.796000 3537.803066 59.479434
46.800000 3480.488249 58.995663
46.804000 3391.886944 58.239909
46.808000 3425.385128 58.526790
46.812000 3524.446307 59.367047
46.816000 3450.880264 58.744193
46.820000 3363.552435 57.996142
46.824000 3374.592420 58.091242
46.828000 3374.067238 58.086722
46.832000 3404.370151 58.346981
46.836000 3376.548534 58.108076
46.840000 3408.637694 58.383540
46.844000 3483.530796 59.021444
46.848000 3463.294957 58.849766
46.852000 3490.816424 59.083131
46.856000 3521.223088 59.339895
46.860000 3501.548060 59.173880
46.864000 3466.351956 58.875733
46.868000 3529.104478 59.406266
46.872000 3585.153518 59.876151
46.876000 3445.895522 58.701751
46.880000 3455.181237 58.780790
46.884000 3510.618337 59.250471
46.888000 3771.844391 61.415343
46.892000 3628.542111 60.237381
46.896000 3644.848614 60.372582
46.900000 3544.289446 59.533935
46.904000 3612.298507 60.102400
46.908000 3547.889659 59.564164
46.912000 3659.523860 60.493999
46.916000 3709.074627 60.902173
46.920000 3684.865672 60.703094
46.924000 3645.375267 60.376943
46.928000 3636.991471 60.307474
46.932000 3611.029851 60.091845
46.936000 3706.371002 60.879972
46.940000 3853.006397 62.072590
46.944000 3875.706745 62.255174
46.948000 3675.453625 60.625520
46.952000 3746.465885 61.208381
46.956000 3701.753132 60.842034
46.960000 3793.185501 61.588842
46.964000 3733.649254 61.103594
46.968000 3486.890844 59.049901
46.972000 3608.442223 60.070311
46.976000 3749.139659 61.230219
46.980000 3828.777393 61.877115
46.984000 3728.665245 61.062798
46.988000 3811.284991 61.735606
46.992000 3657.854478 60.480199
46.996000 3637.278592 60.309855
47.000000 3775.477612 61.444915
47.004000 3853.024793 62.072738
47.008000 3790.960554 61.570777
47.012000 3869.447761 62.204885
47.016000 3915.428419 62.573384
47.020000 3818.966418 61.797787
47.024000 3932.982671 62.713497
47.028000 3876.757665 62.263614
47.032000 3896.922175 62.425333
47.036000 4035.120768 63.522600
47.040000 3937.354839 62.748345
47.044000 3913.630499 62.559016
47.048000 4185.001066 64.691584
47.052000 4111.787257 64.123219
47.056000 4203.031725 64.830793
47.060000 4192.655825 64.750721
47.064000 4192.362037 64.748452
47.068000 4102.525913 64.050963
47.072000 4159.840309 64.496824
47.076000 4259.870279 65.267682
47.080000 4218.726740 64.951726
47.084000 4299.747593 65.572461
47.088000 4297.272727 65.553587
47.092000 4277.403547 65.401862
47.096000 4226.661424 65.012779
47.100000 4261.639258 65.281232
47.104000 4185.496668 64.695415
47.108000 4279.409757 65.417198
47.112000 4266.693782 65.319934
47.116000 4169.189816 64.569264
47.120000 4159.500933 64.494193
47.124000 4166.724607 64.550171
47.128000 4286.892562 65.474366
47.132000 4013.342042 63.350943
47.136000 4159.500800 64.494192
47.140000 3917.049320 62.586335
47.144000 3913.398027 62.557158
47.148000 3988.260730 63.152678
47.152000 3918.604639 62.598759
47.156000 3964.311384 62.962778
47.160000 3847.197014 62.025777
47.164000 3755.167155 61.279419
47.168000 3808.110933 61.709893
47.172000 3885.730738 62.335630
47.176000 3722.334311 61.010936
47.180000 3719.881632 60.990832
47.184000 3729.773927 61.071875
47.188000 3741.972814 61.171667
47.192000 3821.599040 61.819083
47.196000 3691.877899 60.760825
47.200000 3696.376433 60.797832
47.204000 3622.395095 60.186336
47.208000 3614.000000 60.116553
47.212000 3677.980805 60.646359
47.216000 3737.981876 61.139037
47.220000 3792.786457 61.585603
47.224000 3676.444148 60.633688
47.228000 3607.282858 60.060660
47.232000 3577.020256 59.808196
47.236000 3546.276726 59.550623
47.240000 3691.760597 60.759860
47.244000 3694.416955 60.781716
47.248000 3651.278592 60.425811
47.252000 3813.862473 61.756477
47.256000 3710.486804 60.913765
47.260000 3562.000000 59.682493
47.264000 3582.667377 59.855387
47.268000 3623.183151 60.192883
47.272000 3607.270789 60.060559
47.276000 3651.447614 60.427209
47.280000 3570.469083 59.753402
47.284000 3697.048254 60.803357
47.288000 3702.668977 60.849560
47.292000 3605.840618 60.048652
47.296000 3834.740069 61.925278
47.300000 3777.748401 61.463391
47.304000 3848.991471 62.040241
47.308000 3669.780917 60.578717
47.312000 3757.619403 61.299424
47.316000 3734.988003 61.114548
47.320000 3768.208699 61.385737
47.324000 3744.324007 61.190882
47.328000 3856.715981 62.102464
47.332000 3818.295484 61.792358
47.336000 3855.505000 62.092713
47.340000 3773.820785 61.431432
47.344000 3807.051525 61.701309
47.348000 3805.199928 61.686303
47.352000 3840.034391 61.968011
47.356000 3855.773824 62.094878
47.360000 3796.319009 61.614276
47.364000 3843.700140 61.997582
47.368000 3828.300230 61.873259
47.372000 3865.505004 62.173186
47.376000 3886.775621 62.344010
47.380000 3844.304820 62.002458
47.384000 3842.443000 61.987442
47.388000 3742.025171 61.172095
47.392000 3755.076113 61.278676
47.396000 3901.171028 62.459355
47.400000 3822.391699 61.825494
47.404000 3794.596574 61.600297
47.408000 3722.227762 61.010063
47.412000 3795.243844 61.605550
47.416000 3887.907370 62.353086
47.420000 3792.658642 61.584565
47.424000 3813.295191 61.751884
47.428000 3706.104777 60.877786
47.432000 3731.701011 61.087650
47.436000 3673.021524 60.605458
47.440000 3665.091273 60.539997
47.444000 3799.152387 61.637265
47.448000 3735.570293 61.119312
47.452000 3688.013191 60.729014
47.456000 3649.389157 60.410174
47.460000 3649.475580 60.410890
47.464000 3681.665552 60.676730
47.468000 3657.232143 60.475054
47.472000 3639.683970 60.329793
47.476000 3647.314002 60.392996
47.480000 3620.285360 60.168807
47.484000 3639.604294 60.329133
47.488000 3623.343092 60.194211
47.492000 3509.127080 59.237886
47.496000 3519.159115 59.322501
47.500000 3524.097909 59.364113
47.504000 3501.576763 59.174122
47.508000 3501.648454 59.174728
47.512000 3575.704557 59.797195
47.516000 3456.813651 58.794674
47.520000 3429.004531 58.557703
47.524000 3479.368126 58.986169
47.528000 3528.825399 59.403917
47.532000 3442.468723 58.672555
47.536000 3378.419378 58.124172
47.540000 3370.654664 58.057339
47.544000 3409.076981 58.387302
47.548000 3268.358888 57.169563
47.552000 3330.200849 57.707892
47.556000 3362.865598 57.990220
47.560000 3327.570272 57.685096
47.564000 3321.809447 57.635141
47.568000 3371.324274 58.063106
47.572000 3366.873748 58.024768
47.576000 3241.199715 56.931535
47.580000 3289.572706 57.354797
47.584000 3234.586710 56.873427
47.588000 3294.122356 57.394445
47.592000 3333.510504 57.736561
47.596000 3292.215194 57.377828
47.600000 3327.470988 57.684235
47.604000 3337.240703 57.768856
47.608000 3306.109953 57.498782
47.612000 3302.220206 57.464948
47.616000 3372.821834 58.076001
47.620000 3346.080515 57.845315
47.624000 3341.567910 57.806296
47.628000 3222.563517 56.767627
47.632000 3259.930973 57.095805
47.636000 3381.990931 58.154887
47.640000 3312.106974 57.550908
47.644000 3208.122730 56.640292
47.648000 3207.011667 56.630484
47.652000 3331.478885 57.718965
47.656000 3321.350386 57.631158
47.660000 3293.807420 57.391702
47.664000 3210.238229 56.658964
47.668000 3311.173024 57.542793
47.672000 3328.806162 57.695807
47.676000 3297.684157 57.425466
47.680000 3339.602068 57.789290
47.684000 3302.781540 57.469832
47.688000 3333.300177 57.734740
47.692000 3262.456168 57.117915
47.696000 3276.844217 57.243726
47.700000 3416.281108 58.448962
47.704000 3378.267410 58.122865
47.708000 3413.999104 58.429437
47.712000 3386.092992 58.190145
47.716000 3357.177512 57.941156
47.720000 3374.743672 58.092544
47.724000 3359.676492 57.962716
47.728000 3396.922020 58.283120
47.732000 3346.379473 57.847899
47.736000 3372.566397 58.073801
47.740000 3443.120841 58.678112
47.744000 3428.218492 58.550991
47.748000 3403.688550 58.341139
47.752000 3402.777511 58.333331
47.756000 3393.943691 58.257563
47.760000 3407.647586 58.375060
47.764000 3444.625988 58.690936
47.768000 3520.366741 59.332679
47.772000 3547.768391 59.563146
47.776000 3552.354940 59.601635
47.780000 3391.483613 58.236446
47.784000 3382.076264 58.155621
47.788000 3524.405836 59.366706
47.792000 3513.204252 59.272289
47.796000 3538.313981 59.483729
47.800000 3514.903487 59.286621
47.804000 3549.168653 59.574900
47.808000 3551.770500 59.596732
47.812000 3571.144588 59.759054
47.816000 3488.113341 59.060252
47.820000 3597.881961 59.982347
47.824000 3658.913528 60.488954
47.828000 3734.914565 61.113947
47.832000 3804.984158 61.684554
47.836000 3644.784048 60.372047
47.840000 3630.514660 60.253752
47.844000 3653.602023 60.445033
47.848000 3677.337859 60.641058
47.852000 3749.517134 61.233301
47.856000 3826.672346 61.860103
47.860000 3742.818474 61.178579
47.864000 3698.111686 60.812101
47.868000 3735.145367 61.115836
47.872000 3755.791397 61.284512
47.876000 3711.433456 60.921535
47.880000 3729.462573 61.069326
47.884000 3744.641982 61.193480
47.888000 3713.447129 60.938060
47.892000 3629.848808 60.248227
47.896000 3686.927918 60.720078
47.900000 3727.467458 61.052989
47.904000 3640.064451 60.332947
47.908000 3618.634798 60.155090
47.912000 3651.077824 60.424149
47.916000 3614.999816 60.124869
47.920000 3691.730954 60.759616
47.924000 3633.898829 60.281828
47.928000 3629.107059 60.242071
47.932000 3610.967047 60.091323
47.936000 3631.014807 60.257902
47.940000 3623.995615 60.199631
47.944000 3541.579236 59.511169
47.948000 3568.024507 59.732943
47.952000 3631.343660 60.260631
47.956000 3586.783910 59.889765
47.960000 3590.577493 59.921428
47.964000 3508.925815 59.236187
47.968000 3469.107229 58.899128
47.972000 3530.675117 59.419484
47.976000 3530.755370 59.420160
47.980000 3511.055505 59.254160
47.984000 3580.700077 59.838951
47.988000 3569.630762 59.746387
47.992000 3552.210800 59.600426
47.996000 3519.036413 59.321467
48.000000 3641.846564 60.347714
48.004000 3536.252960 59.466402
48.008000 3550.613188 59.587022
48.012000 3562.110976 59.683423
48.016000 3579.748081 59.830996
48.020000 3643.431007 60.360840
48.024000 3585.997286 59.883197
48.028000 3624.527333 60.204047
48.032000 3707.028633 60.885373
48.036000 3628.532765 60.237304
48.040000 3597.386010 59.978213
48.044000 3635.580823 60.295778
48.048000 3648.862833 60.405818
48.052000 3598.435535 59.986961
48.056000 3539.909752 59.497141
48.060000 3678.734344 60.652571
48.064000 3583.200053 59.859837
48.068000 3538.501323 59.485303
48.072000 3521.464089 59.341925
48.076000 3584.681427 59.872209
48.080000 3537.779427 59.479235
48.084000 3595.856953 59.965465
48.088000 3610.146356 60.084493
48.092000 3552.210648 59.600425
48.096000 3549.083867 59.574188
48.100000 3592.526142 59.937685
48.104000 3550.546617 59.586463
48.108000 3555.228081 59.625733
48.112000 3496.961947 59.135116
48.116000 3504.114863 59.195565
48.120000 3543.630243 59.528399
48.124000 3475.834944 58.956212
48.128000 3425.395053 58.526875
48.132000 3529.203728 59.407102
48.136000 3460.539799 58.826353
48.140000 3419.382429 58.475486
48.144000 3508.359378 59.231405
48.148000 3398.787934 58.299125
48.152000 3497.514307 59.139786
48.156000 3413.764314 58.427428
48.160000 3469.454981 58.902080
48.164000 3448.816823 58.726628
48.168000 3404.115030 58.344794
48.172000 3473.189081 58.933769
48.176000 3521.487990 59.342127
48.180000 3440.839352 58.658668
48.184000 3484.899175 59.033035
48.188000 3485.698493 59.039804
48.192000 3436.395227 58.620775
48.196000 3416.303063 58.449149
48.200000 3490.113046 59.077179
48.204000 3494.088415 59.110815
48.208000 3419.894229 58.479862
48.212000 3348.364888 57.865058
48.216000 3348.605326 57.867135
48.220000 3500.004013 59.160832
48.224000 3386.854176 58.196685
48.228000 3361.129234 57.975247
48.232000 3399.715579 58.307080
48.236000 3415.260678 58.440232
48.240000 3336.308490 57.760787
48.244000 3389.202617 58.216859
48.248000 3426.181616 58.533594
48.252000 3483.897470 59.024550
48.256000 3370.284271 58.054149
48.260000 3291.796804 57.374182
48.264000 3433.008504 58.591881
48.268000 3381.592955 58.151466
48.272000 3363.743542 57.997789
48.276000 3382.586857 58.160011
48.280000 3356.579760 57.935997
48.284000 3308.454974 57.519170
48.288000 3367.930419 58.033873
48.292000 3286.082883 57.324366
48.296000 3352.720107 57.902678
48.300000 3349.192484 57.872208
48.304000 3455.953381 58.787357
48.308000 3428.331167 58.551953
48.312000 3456.110786 58.788696
48.316000 3465.001332 58.864262
48.320000 3376.380064 58.106627
48.324000 3362.067909 57.983342
48.328000 3400.211825 58.311335
48.332000 3292.309188 57.378647
48.336000 3345.199218 57.837697
48.340000 3325.408468 57.666355
48.344000 3398.904394 58.300123
48.348000 3363.256959 57.993594
48.352000 3404.834778 58.350962
48.356000 3402.488415 58.330853
48.360000 3390.496994 58.227974
48.364000 3462.638083 58.844185
48.368000 3456.518692 58.792165
48.372000 3406.033902 58.361236
48.376000 3471.953129 58.923282
48.380000 3479.001185 58.983058
48.384000 3373.371397 58.080732
48.388000 3415.642876 58.443502
48.392000 3524.054461 59.363747
48.396000 3464.155699 58.857079
48.400000 3458.260346 58.806975
48.404000 3567.179659 59.725871
48.408000 3414.165646 58.430862
48.412000 3520.935432 59.337471
48.416000 3509.885851 59.244290
48.420000 3530.496139 59.417978
48.424000 3485.562184 59.038650
48.428000 3532.424818 59.434206
48.432000 3609.200997 60.076626
48.436000 3595.850522 59.965411
48.440000 3540.780351 59.504457
48.444000 3589.152330 59.909535
48.448000 3506.426142 59.215084
48.452000 3514.438584 59.282701
48.456000 3590.421970 59.920130
48.460000 3464.595367 58.860814
48.464000 3535.758253 59.462242
48.468000 3632.559103 60.270715
48.472000 3576.024905 59.799874
48.476000 3518.873147 59.320091
48.480000 3624.944622 60.207513
48.484000 3654.176372 60.449784
48.488000 3649.289621 60.409350
48.492000 3603.137913 60.026144
48.496000 3621.044474 60.175115
48.500000 3684.793713 60.702502
48.504000 3669.192492 60.573860
48.508000 3657.438136 60.476757
48.512000 3592.685881 59.939018
48.516000 3706.781683 60.883345
48.520000 3720.250688 60.993858
48.524000 3712.018758 60.926339
48.528000 3648.071619 60.399268
48.532000 3534.805236 59.454228
48.536000 3616.775912 60.139637
48.540000 3725.261715 61.034922
48.544000 3674.487051 60.617547
48.548000 3712.139776 60.927332
48.552000 3666.382854 60.550664
48.556000 3840.581701 61.972427
48.560000 3780.291534 61.484075
48.564000 3763.338695 61.346057
48.568000 3828.892439 61.878045
48.572000 3716.562537 60.963616
48.576000 3700.805112 60.834243
48.580000 3858.791742 62.119174
48.584000 3823.878062 61.837513
48.588000 3850.336685 62.051081
48.592000 3792.824814 61.585914
48.596000 3668.598147 60.568954
48.600000 3767.260383 61.378012
48.604000 3811.196768 61.734891
48.608000 3712.621140 60.931282
48.612000 3779.989617 61.481620
48.616000 3731.815229 61.088585
48.620000 3691.124709 60.754627
48.624000 3663.566028 60.527399
48.628000 3710.665484 60.915232
48.632000 3725.157376 61.034067
48.636000 3734.710863 61.112281
48.640000 3718.455804 60.979142
48.644000 3649.695171 60.412707
48.648000 3685.626997 60.709365
48.652000 3641.851171 60.347752
48.656000 3693.654420 60.775443
48.660000 3655.431712 60.460166
48.664000 3707.819489 60.891867
48.668000 3662.449947 60.518179
48.672000 3669.471978 60.576167
48.676000 3589.939742 59.916106
48.680000 3602.216454 60.018468
48.684000 3659.617146 60.494770
48.688000 3674.420806 60.617001
48.692000 3631.707135 60.263647
48.696000 3612.207668 60.101644
48.700000 3555.963444 59.631900
48.704000 3610.378328 60.086424
48.708000 3525.593665 59.376710
48.712000 3592.861289 59.940481
48.716000 3601.556976 60.012973
48.720000 3627.144308 60.225778
48.724000 3608.719116 60.072615
48.728000 3665.532481 60.543641
48.732000 3574.257165 59.785091
48.736000 3689.695421 60.742863
48.740000 3633.457210 60.278165
48.744000 3650.377796 60.418356
48.748000 3584.041800 59.866867
48.752000 3612.091844 60.100681
48.756000 3641.964856 60.348694
48.760000 3641.884270 60.348026
48.764000 3531.924388 59.429996
48.768000 3662.077125 60.515098
48.772000 3633.085197 60.275079
48.776000 3602.941986 60.024512
48.780000 3692.743610 60.767949
48.784000 3678.811868 60.653210
48.788000 3674.974441 60.621567
48.792000 3613.721380 60.114236
48.796000 3757.541800 61.298791
48.800000 3638.593048 60.320751
48.804000 3629.038339 60.241500
48.808000 3652.702191 60.437589
48.812000 3663.343983 60.525565
48.816000 3710.444942 60.913422
48.820000 3615.615548 60.129989
48.824000 3691.031517 60.753860
48.828000 3629.147484 60.242406
48.832000 3598.716454 59.989303
48.836000 3661.974334 60.514249
48.840000 3618.446486 60.153524
48.844000 3561.633490 59.679423
48.848000 3603.191634 60.026591
48.852000 3561.133387 59.675233
48.856000 3545.676920 59.545587
48.860000 3496.365815 59.130075
48.864000 3509.795080 59.243524
48.868000 3585.425851 59.878426
48.872000 3497.390309 59.138738
48.876000 3542.488686 59.518810
48.880000 3575.591022 59.796246
48.884000 3589.908254 59.915843
48.888000 3563.905997 59.698459
48.892000 3548.164537 59.566472
48.896000 3445.178082 58.695639
48.900000 3438.875078 58.641923
48.904000 3447.288827 58.713617
48.908000 3437.152290 58.627232
48.912000 3507.702566 59.225861
48.916000 3545.268565 59.542158
48.920000 3564.239350 59.701251
48.924000 3512.451690 59.265940
48.928000 3517.579370 59.309185
48.932000 3445.011182 58.694218
48.936000 3484.580710 59.030337
48.940000 3424.790258 58.521708
48.944000 3401.528754 58.322626
48.948000 3347.885404 57.860914
48.952000 3471.927868 58.923067
48.956000 3467.000133 58.881238
48.960000 3442.417833 58.672121
48.964000 3453.328405 58.765027
48.968000 3481.984736 59.008345
48.972000 3472.085371 58.924404
48.976000 3516.650253 59.301351
48.980000 3348.205538 57.863681
48.984000 3384.613715 58.177433
48.988000 3483.767571 59.023449
48.992000 3380.663029 58.143469
48.996000 3293.521832 57.389214
49.000000 3354.890338 57.921415
49.004000 3400.344524 58.312473
49.008000 3431.948198 58.582832
49.012000 3414.449217 58.433289
49.016000 3470.381268 58.909942
49.020000 3435.828054 58.615937
49.024000 3390.763578 58.230263
49.028000 3325.352675 57.665871
49.032000 3367.776478 58.032547
49.036000 3507.935321 59.227826
49.040000 3477.409878 58.969567
49.044000 3457.797125 58.803037
49.048000 3520.010381 59.329675
49.052000 3440.792058 58.658265
49.056000 3480.709875 58.997541
49.060000 3425.347665 58.526470
49.064000 3551.557840 59.594948
49.068000 3532.031401 59.430896
49.072000 3479.257919 58.985235
49.076000 3607.918863 60.065954
49.080000 3499.582113 59.157266
49.084000 3542.079606 59.515373
49.088000 3557.089699 59.641342
49.092000 3661.414450 60.509623
49.096000 3672.126164 60.598071
49.100000 3664.128996 60.532049
49.104000 3619.790524 60.164695
49.108000 3673.016241 60.605414
49.112000 3733.235294 61.100207
49.116000 3719.482839 60.987563
49.120000 3631.124035 60.258809
49.124000 3707.402386 60.888442
49.128000 3727.428267 61.052668
49.132000 3686.284536 60.714780
49.136000 3699.038605 60.819722
49.140000 3795.156774 61.604844
49.144000 3732.153314 61.091352
49.148000 3786.844912 61.537346
49.152000 3817.870908 61.788922
49.156000 3828.088472 61.871548
49.160000 3762.830982 61.341919
49.164000 3758.466063 61.306330
49.168000 3772.460098 61.420356
49.172000 3769.069470 61.392748
49.176000 3866.194320 62.178729
49.180000 3856.912962 62.104049
49.184000 3908.157040 62.515254
49.188000 3914.474782 62.565764
49.192000 3900.616715 62.454917
49.196000 3815.889007 61.772882
49.200000 3849.784556 62.046632
49.204000 3904.151184 62.483207
49.208000 3846.261536 62.018236
49.212000 3928.712537 62.679443
49.216000 3961.700736 62.942043
49.220000 3970.632686 63.012956
49.224000 3903.745275 62.479959
49.228000 3908.206301 62.515648
49.232000 3858.037796 62.113105
49.236000 3876.012510 62.257630
49.240000 3768.301826 61.386495
49.244000 3780.878627 61.488850
49.248000 3816.123237 61.774778
49.252000 3809.704818 61.722806
49.256000 3794.120897 61.596436
49.260000 3770.498536 61.404385
49.264000 3821.529678 61.818522
49.268000 3738.873968 61.146332
49.272000 3725.636012 61.037988
49.276000 3710.575193 60.914491
49.280000 3681.965930 60.679205
49.284000 3601.221187 60.010176
49.288000 3561.056694 59.674590
49.292000 3575.970987 59.799423
49.296000 3588.109662 59.900832
49.300000 3587.402715 59.894931
49.304000 3655.938515 60.464357
49.308000 3608.409062 60.070035
49.312000 3594.994410 59.958272
49.316000 3552.100612 59.599502
49.320000 3539.788927 59.496125
49.324000 3573.452223 59.778359
49.328000 3561.087206 59.674846
49.332000 3582.198829 59.851473
49.336000 3487.381421 59.054055
49.340000 3527.738355 59.394767
49.344000 3521.633484 59.343352
49.348000 3449.357466 58.731231
49.352000 3468.626031 58.895043
49.356000 3525.500133 59.375922
49.360000 3594.311153 59.952574
49.364000 3446.287463 58.705089
49.368000 3454.929731 58.778650
49.372000 3486.804099 59.049167
49.376000 3447.534203 58.715707
49.380000 3560.826311 59.672660
49.384000 3505.522758 59.207455
49.388000 3527.563482 59.393295
49.392000 3583.903647 59.865713
49.396000 3539.925472 59.497273
49.400000 3420.701624 58.486765
49.404000 3493.436518 59.105300
49.408000 3509.241416 59.238851
49.412000 3457.919545 58.804078
49.416000 3421.107533 58.490235
49.420000 3433.389140 58.595129
49.424000 3427.797977 58.547399
49.428000 3470.843226 58.913863
49.432000 3501.607400 59.174381
49.436000 3385.086505 58.181496
49.440000 3467.285068 58.883657
49.444000 3514.846686 59.286142
49.448000 3510.605350 59.250362
49.452000 3503.813149 59.193016
49.456000 3500.911365 59.168500
49.460000 3493.887676 59.109117
49.464000 3526.097950 59.380956
49.468000 3423.204152 58.508155
49.472000 3403.208145 58.337022
49.476000 3296.068938 57.411401
49.480000 3415.708544 58.444063
49.484000 3408.781475 58.384771
49.488000 3305.837636 57.496414
49.492000 3443.243279 58.679155
49.496000 3434.733298 58.606598
49.500000 3320.761246 57.626047
49.504000 3382.318164 58.157701
49.508000 3370.180995 58.053260
49.512000 3287.389939 57.335765
49.516000 3339.424009 57.787750
49.520000 3329.502795 57.701844
49.524000 3315.776417 57.582779
49.528000 3317.639340 57.598953
49.532000 3314.019430 57.567521
49.536000 3327.194570 57.681839
49.540000 3349.979239 57.879005
49.544000 3316.109662 57.585672
49.548000 3302.886612 57.470746
49.552000 3351.534735 57.892441
49.556000 3325.563482 57.667699
49.560000 3326.927868 57.679527
49.564000 3336.302369 57.760734
49.568000 3271.452755 57.196615
49.572000 3294.183391 57.394977
49.576000 3270.307089 57.186599
49.580000 3273.364919 57.213328
49.584000 3377.256322 58.114166
49.588000 3380.369976 58.140949
49.592000 3343.021027 57.818864
49.596000 3372.223050 58.070845
49.600000 3349.773756 57.877230
49.604000 3351.609795 57.893089
49.608000 3321.591163 57.633247
49.612000 3262.331115 57.116820
49.616000 3341.332712 57.804262
49.620000 3365.728773 58.014901
49.624000 3303.240618 57.473825
49.628000 3396.679532 58.281039
49.632000 3357.113388 57.940602
49.636000 3404.224381 58.345731
49.640000 3401.186851 58.319695
49.644000 3244.945169 56.964420
49.648000 3356.431994 57.934722
49.652000 3428.541656 58.553750
49.656000 3368.764972 58.041063
49.660000 3422.059090 58.498368
49.664000 3471.895928 58.922796
49.668000 3430.937716 58.574207
49.672000 3461.202643 58.831987
49.676000 3364.856534 58.007383
49.680000 3358.143998 57.949495
49.684000 3327.940910 57.688308
49.688000 3397.946234 58.291905
49.692000 3444.650833 58.691148
49.696000 3460.582912 58.826719
49.700000 3451.317274 58.747913
49.704000 3516.893000 59.303398
49.708000 3506.735693 59.217697
49.712000 3465.828587 58.871288
49.716000 3465.497738 58.868478
49.720000 3593.852808 59.948752
49.724000 3592.531275 59.937728
49.728000 3552.351876 59.601610
49.732000 3558.646260 59.654390
49.736000 3511.329252 59.256470
49.740000 3602.639181 60.021989
49.744000 3644.764972 60.371889
49.748000 3587.473250 59.895519
49.752000 3536.713601 59.470275
49.756000 3613.665158 60.113768
49.760000 3682.446367 60.683164
49.764000 3582.612723 59.854931
49.768000 3610.014373 60.083395
49.772000 3583.119510 59.859164
49.776000 3690.786798 60.751846
49.780000 3689.917578 60.744692
49.784000 3611.734363 60.097707
49.788000 3616.864786 60.140376
49.792000 3650.481235 60.419212
49.796000 3691.306894 60.756126
49.800000 3651.451424 60.427241
49.804000 3620.982433 60.174600
49.808000 3700.231302 60.829527
49.812000 3668.338353 60.566809
49.816000 3644.969390 60.373582
49.820000 3611.863987 60.098785
49.824000 3737.528879 61.135332
49.828000 3781.882353 61.497011
49.832000 3747.168237 61.214118
49.836000 3633.570136 60.279102
49.840000 3664.728507 60.537001
49.844000 3661.300506 60.508681
49.848000 3653.162630 60.441398
49.852000 3629.361459 60.244182
49.856000 3565.334047 59.710418
49.860000 3698.082246 60.811859
49.864000 3695.904711 60.793953
49.868000 3666.692574 60.553221
49.872000 3721.170083 61.001394
49.876000 3640.590365 60.337305
49.880000 3633.247795 60.276428
49.884000 3623.542454 60.195867
49.888000 3533.898855 59.446605
49.892000 3518.306894 59.315318
49.896000 3569.426265 59.744676
49.900000 3573.283471 59.776948
49.904000 3585.860527 59.882055
49.908000 3564.622837 59.704462
49.912000 3581.286015 59.843847
49.916000 3544.065478 59.532054
49.920000 3570.894331 59.756961
49.924000 3516.487388 59.299978
49.928000 3592.695502 59.939098
49.932000 3632.804869 60.272754
49.936000 3535.176737 59.457352
49.940000 3509.491349 59.240960
49.944000 3526.715955 59.386160
49.948000 3468.007719 58.889793
49.952000 3533.221986 59.440912
49.956000 3558.646706 59.654394
49.960000 3556.456481 59.636033
49.964000 3547.120575 59.557708
49.968000 3537.574661 59.477514
49.972000 3535.888183 59.463335
49.976000 3473.405643 58.935606
49.980000 3492.582084 59.098072
49.984000 3498.632672 59.149241
49.988000 3477.048709 58.966505
49.992000 3461.455150 58.834133
49.996000 3488.128611 59.060381
50.000000 3508.500399 59.232596
50.004000 3489.167155 59.069173
50.008000 3538.073197 59.481705
50.012000 3523.835507 59.361903
50.016000 3551.260800 59.592456
50.020000 3530.142933 59.415006
50.024000 3541.652195 59.511782
50.028000 3596.413190 59.970102
50.032000 3566.685653 59.721735
50.036000 3447.683790 58.716980
50.040000 3536.710637 59.470250
50.044000 3564.443439 59.702960
50.048000 3532.278739 59.432977
50.052000 3434.853035 58.607619
50.056000 3526.490817 59.384264
50.060000 3533.994526 59.447410
50.064000 3493.504924 59.105879
50.068000 3533.489486 59.443162
50.072000 3562.157040 59.683809
50.076000 3497.519930 59.139834
50.080000 3453.781782 58.768884
50.084000 3426.535393 58.536616
50.088000 3484.001863 59.025434
50.092000 3444.503886 58.689896
50.096000 3461.174341 58.831746
50.100000 3410.334132 58.398066
50.104000 3422.411765 58.501383
50.108000 3468.089699 58.890489
50.112000 3391.837010 58.239480
50.116000 3354.549375 57.918472
50.120000 3400.321806 58.312278
50.124000 3349.670100 57.876335
50.128000 3364.375521 58.003237
50.132000 3368.706827 58.040562
50.136000 3352.700559 57.902509
50.140000 3354.595351 57.918869
50.144000 3326.650510 57.677123
50.148000 3377.798807 58.118833
50.152000 3440.010634 58.651604
50.156000 3399.458078 58.304872
50.160000 3435.453671 58.612743
50.164000 3478.015438 58.974702
50.168000 3502.463158 59.181612
50.172000 3432.828587 58.590346
50.176000 3416.579073 58.451510
50.180000 3380.713601 58.143904
50.184000 3421.393856 58.492682
50.188000 3466.809136 58.879616
50.192000 3444.890043 58.693186
50.196000 3494.933191 59.117960
50.200000 3409.211488 58.388453
50.204000 3435.887380 58.616443
50.208000 3511.172478 59.255147
50.212000 3508.455299 59.232215
50.216000 3398.269009 58.294674
50.220000 3518.706681 59.318687
50.224000 3529.390536 59.408674
50.228000 3519.835996 59.328206
50.232000 3612.225978 60.101797
50.236000 3474.467332 58.944612
50.240000 3548.272787 59.567380
50.244000 3420.404090 58.484221
50.248000 3522.890966 59.353947
50.252000 3639.112324 60.325056
50.256000 3598.769702 59.989747
50.260000 3467.459290 58.885136
50.264000 3543.374586 59.526251
50.268000 3555.374037 59.626957
50.272000 3547.055409 59.557161
50.276000 3491.543131 59.089281
50.280000 3548.681588 59.570812
50.284000 3491.078711 59.085351
50.288000 3542.143237 59.515907
50.292000 3528.902848 59.404569
50.296000 3478.361555 58.977636
50.300000 3550.319670 59.584559
50.304000 3446.815761 58.709588
50.308000 3455.633749 58.784639
50.312000 3462.129067 58.839860
50.316000 3432.157348 58.584617
50.320000 3393.168485 58.250910
50.324000 3424.113951 58.515929
50.328000 3392.367216 58.244032
50.332000 3405.395134 58.355764
50.336000 3442.169329 58.670004
50.340000 3374.070039 58.086746
50.344000 3399.131193 58.302069
50.348000 3400.179378 58.311057
50.352000 3395.978695 58.275026
50.356000 3434.335996 58.603208
50.360000 3459.127533 58.814348
50.364000 3356.619276 57.936338
50.368000 3343.848321 57.826018
50.372000 3419.932641 58.480190
50.376000 3431.501611 58.579020
50.380000 3345.586794 57.841048
50.384000 3388.063047 58.207070
50.388000 3360.603568 57.970713
50.392000 3381.093593 58.147172
50.396000 3349.404153 57.874037
50.400000 3388.755461 58.213018
50.404000 3368.927615 58.042464
50.408000 3485.048988 59.034303
50.412000 3446.536817 58.707213
50.416000 3470.683174 58.912504
50.420000 3379.909744 58.136991
50.424000 3402.175727 58.328173
50.428000 3430.955804 58.574361
50.432000 3544.851933 59.538659
50.436000 3368.420394 58.038094
50.440000 3437.694069 58.631852
50.444000 3347.894569 57.860993
50.448000 3442.621938 58.673861
50.452000 3439.293273 58.645488
50.456000 3480.924654 58.999361
50.460000 3444.159212 58.686959
50.464000 3327.680683 57.686053
50.468000 3482.382114 59.011712
50.472000 3464.350106 58.858730
50.476000 3443.876198 58.684548
50.480000 3434.118559 58.601353
50.484000 3536.085729 59.464996
50.488000 3522.864217 59.353721
50.492000 3445.422790 58.697724
50.496000 3394.096907 58.258878
50.500000 3522.607827 59.351561
50.504000 3485.257455 59.036069
50.508000 3510.177931 59.246755
50.512000 3517.318869 59.306988
50.516000 3540.750799 59.504208
50.520000 3445.077742 58.694785
50.524000 3568.521998 59.737107
50.528000 3582.681089 59.855502
50.532000 3595.819223 59.965150
50.536000 3531.948982 59.430203
50.540000 3658.500783 60.485542
50.544000 3633.840788 60.281347
50.548000 3696.026092 60.794951
50.552000 3748.216219 61.222677
50.556000 3706.476571 60.880839
50.560000 3685.107827 60.705089
50.564000 3636.569755 60.303978
50.568000 3631.391374 60.261027
50.572000 3761.599946 61.331884
50.576000 3750.326518 61.239910
50.580000 3636.388819 60.302478
50.584000 3666.080937 60.548170
50.588000 3602.791712 60.023260
50.592000 3628.069755 60.233460
50.596000 3663.415069 60.526152
50.600000 3728.267296 61.059539
50.604000 3676.515779 60.634279
50.608000 3624.963386 60.207669
50.612000 3571.089191 59.758591
50.616000 3595.159150 59.959646
50.620000 3544.785942 59.538105
50.624000 3529.104568 59.406267
50.628000 3594.716454 59.955954
50.632000 3561.513885 59.678421
50.636000 3440.423056 58.655120
50.640000 3494.828245 59.117072
50.644000 3492.150160 59.094417
50.648000 3505.223072 59.204924
50.652000 3559.020247 59.657525
50.656000 3448.533546 58.724216
50.660000 3461.919461 58.838078
50.664000 3519.029819 59.321411
50.668000 3394.894031 58.265719
50.672000 3445.243448 58.696196
50.676000 3372.016507 58.069067
50.680000 3415.893337 58.445644
50.684000 3378.928381 58.128550
50.688000 3484.207232 59.027174
50.692000 3379.978078 58.137579
50.696000 3480.313715 58.994184
50.700000 3494.148030 59.111319
50.704000 3441.781001 58.666694
50.708000 3460.510570 58.826104
50.712000 3478.084227 58.975285
50.716000 3442.653621 58.674131
50.720000 3491.835640 59.091756
50.724000 3585.179228 59.876366
50.728000 3545.216924 59.541724
50.732000 3593.783937 59.948177
50.736000 3547.527206 59.561122
50.740000 3462.958999 58.846912
50.744000 3482.083089 59.009178
50.748000 3425.781476 58.530176
50.752000 3491.991792 59.093077
50.756000 3613.421644 60.111743
50.760000 3609.907057 60.082502
50.764000 3560.249975 59.667830
50.768000 3504.163285 59.195974
50.772000 3503.742166 59.192416
50.776000 3526.328556 59.382898
50.780000 3533.321254 59.441747
50.784000 3581.247631 59.843526
50.788000 3550.671105 59.587508
50.792000 3637.693322 60.313293
50.796000 3607.942579 60.066152
50.800000 3641.814913 60.347452
50.804000 3689.000521 60.737143
50.808000 3552.557124 59.603331
50.812000 3542.607029 59.519804
50.816000 3561.871859 59.681420
50.820000 3621.766977 60.181118
50.824000 3633.025407 60.274583
50.828000 3677.759290 60.644532
50.832000 3717.994674 60.975361
50.836000 3710.984554 60.917851
50.840000 3743.350234 61.182924
50.844000 3752.336618 61.256319
50.848000 3730.903680 61.081124
50.852000 3689.435153 60.740721
50.856000 3767.118216 61.376854
50.860000 3754.379581 61.272992
50.864000 3738.018492 61.139337
50.868000 3741.315579 61.166294
50.872000 3660.558288 60.502548
50.876000 3676.955526 60.637905
50.880000 3685.714388 60.710085
50.884000 3689.904128 60.744581
50.888000 3618.814505 60.156583
50.892000 3554.325433 59.618164
50.896000 3620.686277 60.172139
50.900000 3680.481783 60.666974
50.904000 3649.381167 60.410108
50.908000 3603.876663 60.032297
50.912000 3563.211185 59.692639
50.916000 3545.183526 59.541444
50.920000 3529.267369 59.407637
50.924000 3565.568575 59.712382
50.928000 3538.889530 59.488566
50.932000 3598.484011 59.987365
50.936000 3509.478828 59.240854
50.940000 3537.244862 59.474741
50.944000 3491.659551 59.090266
50.948000 3554.165113 59.616819
50.952000 3554.492900 59.619568
50.956000 3515.031687 59.287703
50.960000 3533.394407 59.442362
50.964000 3560.339759 59.668583
50.968000 3557.614137 59.645739
50.972000 3495.316739 59.121204
50.976000 3445.060453 58.694637
50.980000 3564.541287 59.703780
50.984000 3531.172398 59.423669
50.988000 3465.968842 58.872479
50.992000 3570.512728 59.753767
50.996000 3480.966977 58.999720
51.000000 3554.734810 59.621597
51.004000 3494.209925 59.111843
51.008000 3556.932889 59.640028
51.012000 3532.070436 59.431224
51.016000 3500.190206 59.162405
51.020000 3591.716814 59.930934
51.024000 3472.324368 58.926432
51.028000 3487.770078 59.057346
51.032000 3489.507494 59.072053
51.036000 3470.351306 58.909688
51.040000 3490.175732 59.077709
51.044000 3523.819786 59.361770
51.048000 3584.998136 59.874854
51.052000 3485.309119 59.036507
51.056000 3488.642307 59.064730
51.060000 3392.668170 58.246615
51.064000 3499.182204 59.153886
51.068000 3512.086881 59.262863
51.072000 3594.176389 59.951450
51.076000 3553.356126 59.610034
51.080000 3451.992009 58.753655
51.084000 3461.877405 58.837721
51.088000 3527.855044 59.395749
51.092000 3539.519944 59.493865
51.096000 3494.107041 59.110972
51.100000 3435.711157 58.614940
51.104000 3408.169952 58.379534
51.108000 3501.620769 59.174494
51.112000 3510.808719 59.252078
51.116000 3432.923564 58.591156
51.120000 3384.251731 58.174322
51.124000 3392.963262 58.249148
51.128000 3455.636882 58.784665
51.132000 3393.451985 58.253343
51.136000 3465.776505 58.870846
51.140000 3477.968418 58.974303
51.144000 3415.159584 58.439367
51.148000 3405.212656 58.354200
51.152000 3362.643552 57.988305
51.156000 3416.537560 58.451155
51.160000 3434.276651 58.602702
51.164000 3352.538892 57.901113
51.168000 3372.415356 58.072501
51.172000 3459.111846 58.814215
51.176000 3368.480820 58.038615
51.180000 3344.528879 57.831902
51.184000 3317.170485 57.594882
51.188000 3380.738029 58.144114
51.192000 3339.616199 57.789413
51.196000 3343.779236 57.825420
51.200000 3428.811217 58.556052
51.204000 3287.063399 57.332917
51.208000 3418.226306 58.465599
51.212000 3373.780741 58.084256
51.216000 3355.000891 57.922370
51.220000 3370.831916 58.058866
51.224000 3348.876132 57.869475
51.228000 3388.951044 58.214698
51.232000 3313.159407 57.560050
51.236000 3288.189899 57.342741
51.240000 3356.130527 57.932120
51.244000 3293.735446 57.391075
51.248000 3340.079745 57.793423
51.252000 3387.183494 58.199515
51.256000 3199.300541 56.562360
51.260000 3222.313396 56.765424
51.264000 3287.902238 57.340232
51.268000 3361.941312 57.982250
51.272000 3374.984629 58.094618
51.276000 3251.248668 57.019722
51.280000 3284.588057 57.311326
51.284000 3368.731521 58.040775
51.288000 3324.858407 57.661585
51.292000 3276.931017 57.244485
51.296000 3234.434676 56.872090
51.300000 3273.972998 57.218642
51.304000 3280.712557 57.277505
51.308000 3367.040886 58.026209
51.312000 3329.278673 57.699902
51.316000 3322.563643 57.641683
51.320000 3374.524012 58.090653
51.324000 3308.242776 57.517326
51.328000 3360.921038 57.973451
51.332000 3339.949107 57.792293
51.336000 3311.572436 57.546263
51.340000 3438.662502 58.640110
51.344000 3325.730085 57.669143
51.348000 3326.084512 57.672216
51.352000 3282.418654 57.292396
51.356000 3369.659154 58.048765
51.360000 3341.634223 57.806870
51.364000 3368.495619 58.038742
51.368000 3390.267764 58.226006
51.372000 3315.999201 57.584713
51.376000 3305.052654 57.489587
51.380000 3214.832664 56.699494
51.384000 3277.372256 57.248338
51.388000 3450.686803 58.742547
51.392000 3385.209432 58.182553
51.396000 3347.910435 57.861131
51.400000 3313.768234 57.565339
51.404000 3269.558781 57.180056
51.408000 3368.713030 58.040615
51.412000 3376.807681 58.110306
51.416000 3359.898172 57.964629
51.420000 3335.338396 57.752389
51.424000 3345.774818 57.842673
51.428000 3288.657665 57.346819
51.432000 3396.668532 58.280945
51.436000 3332.748228 57.729960
51.440000 3331.189981 57.716462
51.444000 3392.397016 58.244287
51.448000 3288.510439 57.345535
51.452000 3344.806241 57.834300
51.456000 3241.782945 56.936657
51.460000 3270.286692 57.186421
51.464000 3227.913136 56.814726
51.468000 3299.097214 57.437768
51.472000 3309.978151 57.532410
51.476000 3246.306924 56.976372
51.480000 3363.561151 57.996217
51.484000 3330.063997 57.706707
51.488000 3322.264588 57.639089
51.492000 3358.086198 57.948997
51.496000 3423.522033 58.510871
51.500000 3370.934278 58.059747
51.504000 3259.333275 57.090571
51.508000 3337.537424 57.771424
51.512000 3328.665603 57.694589
51.516000 3351.504340 57.892179
51.520000 3324.798288 57.661064
51.524000 3384.306422 58.174792
51.528000 3349.492398 57.874799
51.532000 3476.258273 58.959802
51.536000 3261.899963 57.113045
51.540000 3398.475689 58.296447
51.544000 3269.306285 57.177848
51.548000 3383.433268 58.167287
51.552000 3409.178783 58.388173
51.556000 3471.313876 58.917857
51.560000 3524.817007 59.370169
51.564000 3454.279584 58.773120
51.568000 3529.243191 59.407434
51.572000 3544.250966 59.533612
51.576000 3453.668200 58.767918
51.580000 3534.675999 59.453141
51.584000 3594.659763 59.955482
51.588000 3589.083140 59.908957
51.592000 3550.275479 59.584188
51.596000 3659.005018 60.489710
51.600000 3600.851289 60.007094
51.604000 3552.584578 59.603562
51.608000 3495.333886 59.121349
51.612000 3529.053424 59.405837
51.616000 3550.762617 59.588276
51.620000 3541.815059 59.513150
51.624000 3548.325359 59.567822
51.628000 3589.265914 59.910483
51.632000 3608.430400 60.070212
51.636000 3530.259523 59.415987
51.640000 3628.514126 60.237149
51.644000 3603.595164 60.029952
51.648000 3557.456066 59.644414
51.652000 3608.227013 60.068519
51.656000 3667.545043 60.560260
51.660000 3605.156600 60.042956
51.664000 3619.630187 60.163362
51.668000 3595.348081 59.961221
51.672000 3568.993804 59.741056
51.676000 3514.868729 59.286328
51.680000 3581.593388 59.846415
51.684000 3480.410439 58.995004
51.688000 3546.930437 59.556112
51.692000 3544.076351 59.532146
51.696000 3508.741589 59.234632
51.700000 3511.939232 59.261617
51.704000 3589.165141 59.909641
51.708000 3594.251054 59.952073
51.712000 3581.096858 59.842266
51.716000 3503.137905 59.187312
51.720000 3509.142922 59.238019
51.724000 3510.269384 59.247526
51.728000 3551.512258 59.594566
51.732000 3499.755761 59.158734
51.736000 3467.994770 58.889683
51.740000 3441.948730 58.668124
51.744000 3532.389374 59.433908
51.748000 3468.204159 58.891461
51.752000 3498.562902 59.148651
51.756000 3515.353266 59.290415
51.760000 3570.409140 59.752901
51.764000 3605.520960 60.045990
51.768000 3607.941140 60.066140
51.772000 3483.122214 59.017982
51.776000 3627.823097 60.231413
51.780000 3636.462937 60.303092
51.784000 3591.235891 59.926921
51.788000 3621.935163 60.182515
51.792000 3582.346610 59.852708
51.796000 3556.456346 59.636032
51.800000 3527.283393 59.390937
51.804000 3491.119860 59.085699
51.808000 3617.497131 60.145633
51.812000 3557.274271 59.642890
51.816000 3667.649814 60.561125
51.820000 3611.497841 60.095739
51.824000 3677.302171 60.640763
51.828000 3596.079246 59.967318
51.832000 3643.220592 60.359097
51.836000 3555.250067 59.625918
51.840000 3588.131762 59.901016
51.844000 3645.079480 60.374494
51.848000 3628.301237 60.235382
51.852000 3487.768005 59.057328
51.856000 3620.423354 60.169954
51.860000 3598.622811 59.988522
51.864000 3598.317658 59.985979
51.868000 3648.007463 60.398737
51.872000 3698.335821 60.813944
51.876000 3729.021855 61.065718
51.880000 3676.493735 60.634097
51.884000 3720.931770 60.999441
51.888000 3709.343284 60.904378
51.892000 3721.425220 61.003485
51.896000 3689.574094 60.741864
51.900000 3688.076780 60.729538
51.904000 3684.646055 60.701285
51.908000 3729.313783 61.068108
51.912000 3692.346482 60.764681
51.916000 3602.134364 60.017784
51.920000 3643.914712 60.364847
51.924000 3672.182351 60.598534
51.928000 3649.656183 60.412384
51.932000 3701.765396 60.842135
51.936000 3614.138060 60.117702
51.940000 3611.674753 60.097211
51.944000 3577.147427 59.809259
51.948000 3569.285714 59.743499
51.952000 3603.961610 60.033004
51.956000 3586.419621 59.886723
51.960000 3595.327646 59.961051
51.964000 3580.396588 59.836415
51.968000 3526.069315 59.380715
51.972000 3632.451613 60.269823
51.976000 3659.147427 60.490887
51.980000 3560.557718 59.670409
51.984000 3733.723274 61.104200
51.988000 3583.391791 59.861438
51.992000 3520.133298 59.330711
51.996000 3697.656625 60.808360
52.000000 3693.898694 60.777452
52.004000 3517.395894 59.307638
52.008000 3540.342309 59.500776
52.012000 3523.386830 59.358124
52.016000 3609.757398 60.081257
52.020000 3642.517195 60.353270
52.024000 3599.236267 59.993635
52.028000 3615.867769 60.132086
52.032000 3658.928819 60.489080
52.036000 3436.758731 58.623875
52.040000 3331.409224 57.718361
52.044000 3597.661424 59.980509
52.048000 3706.886697 60.884207
52.052000 3413.920000 58.428760
52.056000 3480.759264 58.997960
52.060000 3514.899200 59.286585
52.064000 3454.316182 58.773431
52.068000 3461.994668 58.838717
52.072000 3472.451364 58.927509
52.076000 3516.212743 59.297662
52.080000 3638.148227 60.317064
52.084000 3520.728654 59.335728
52.088000 3479.110904 58.983989
52.092000 3509.671977 59.242485
52.096000 3567.280459 59.726715
52.100000 3587.630900 59.896835
52.104000 3463.447614 58.851063
52.108000 3475.003154 58.949157
52.112000 3428.725135 58.555317
52.116000 3449.982938 58.736555
52.120000 3409.276460 58.389010
52.124000 3552.967209 59.606772
52.128000 3357.908849 57.947466
52.132000 3394.801386 58.264924
52.136000 3292.028792 57.376204
52.140000 3638.098107 60.316649
52.144000 3502.469083 59.181662
52.148000 3389.256198 58.217319
52.152000 3532.174354 59.432099
52.156000 3502.412580 59.181184
52.160000 3518.799254 59.319468
52.164000 3377.308635 58.114616
52.168000 3436.896294 58.625048
52.172000 3481.637527 59.005403
52.176000 3436.675553 58.623166
52.180000 3485.531983 59.038394
52.184000 3497.643923 59.140882
52.188000 3449.514796 58.732570
52.192000 3495.764392 59.124990
52.196000 3422.540512 58.502483
52.200000 3465.488806 58.868402
52.204000 3551.361407 59.593300
52.208000 3394.922421 58.265963
52.212000 3669.232409 60.574189
52.216000 3544.848614 59.538631
52.220000 3434.780384 58.606999
52.224000 3519.066915 59.321724
52.228000 3596.048507 59.967062
52.232000 3624.277719 60.201974
52.236000 3483.809701 59.023806
52.240000 3541.957356 59.514346
52.244000 3549.628998 59.578763
52.248000 3566.713220 59.721966
52.252000 3397.343817 58.286738
52.256000 3462.797974 58.845543
52.260000 3528.308635 59.399568
52.264000 3546.458955 59.552153
52.268000 3602.538380 60.021149
52.272000 3429.506930 58.561992
52.276000 3438.424840 58.638084
52.280000 3446.529851 58.707153
52.284000 3448.709488 58.725714
52.288000 3524.067697 59.363859
52.292000 3504.764925 59.201055
52.296000 3484.277112 59.027766
52.300000 3485.091684 59.034665
52.304000 3504.452026 59.198412
52.308000 3626.208955 60.218012
52.312000 3522.358209 59.349458
52.316000 3467.301560 58.883797
52.320000 3501.335217 59.172081
52.324000 3439.691116 58.648880
52.328000 3394.365429 58.261183
52.332000 3470.130712 58.907815
52.336000 3490.216518 59.078054
52.340000 3427.758703 58.547064
52.344000 3451.623667 58.750521
52.348000 3429.173851 58.559148
52.352000 3404.646259 58.349347
52.356000 3411.259887 58.405992
52.360000 3354.874830 57.921281
52.364000 3468.916394 58.897508
52.368000 3415.047698 58.438409
52.372000 3471.623246 58.920482
52.376000 3382.578358 58.159938
52.380000 3397.599572 58.288932
52.384000 3375.452239 58.098642
52.388000 3331.633148 57.720301
52.392000 3356.827163 57.938132
52.396000 3345.603802 57.841195
52.400000 3384.065633 58.172722
52.404000 3459.761002 58.819733
52.408000 3406.389050 58.364279
52.412000 3342.186351 57.811645
52.416000 3348.255668 57.864114
52.420000 3433.227079 58.593746
52.424000 3358.934166 57.956313
52.428000 3509.673362 59.242496
52.432000 3481.958050 59.008119
52.436000 3422.888689 58.505459
52.440000 3421.718817 58.495460
52.444000 3440.653265 58.657082
52.448000 3387.416336 58.201515
52.452000 3506.931739 59.219353
52.456000 3525.783510 59.378308
52.460000 3550.437469 59.585547
52.464000 3458.013162 58.804874
52.468000 3489.503679 59.072021
52.472000 3548.676077 59.570765
52.476000 3492.513137 59.097488
52.480000 3577.588285 59.812944
52.484000 3566.339280 59.718835
52.488000 3568.558777 59.737415
52.492000 3541.536762 59.510812
52.496000 3554.303451 59.617979
52.500000 3576.011087 59.799758
52.504000 3613.698285 60.114044
52.508000 3592.796469 59.939941
52.512000 3545.885290 59.547337
52.516000 3630.760523 60.255792
52.520000 3583.148696 59.859408
52.524000 3619.053580 60.158570
52.528000 3590.913727 59.924233
52.532000 3550.802990 59.588615
52.536000 3576.019390 59.799828
52.540000 3514.424168 59.282579
52.544000 3486.126672 59.043430
52.548000 3569.844747 59.748178
52.552000 3530.654777 59.419313
52.556000 3621.533753 60.179180
52.560000 3488.294633 59.061787
52.564000 3554.352464 59.618390
52.568000 3494.219291 59.111922
52.572000 3500.707081 59.166773
52.576000 3478.615193 58.979786
52.580000 3539.371504 59.492617
52.584000 3507.547213 59.224549
52.588000 3534.179911 59.448969
52.592000 3442.375824 58.671763
52.596000 3516.219666 59.297721
52.600000 3363.082127 57.992087
52.604000 3402.554181 58.331417
52.608000 3459.148912 58.814530
52.612000 3393.716493 58.255613
52.616000 3440.371981 58.654684
52.620000 3470.831720 58.913765
52.624000 3430.488753 58.570374
52.628000 3448.712224 58.725737
52.632000 3434.571930 58.605221
52.636000 3436.395588 58.620778
52.640000 3398.002227 58.292386
52.644000 3391.962011 58.240553
52.648000 3464.648548 58.861265
52.652000 3415.245225 58.440099
52.656000 3357.776992 57.946329
52.660000 3439.859851 58.650318
52.664000 3442.608102 58.673743
52.668000 3466.850520 58.879967
52.672000 3417.832298 58.462230
52.676000 3415.727858 58.444229
52.680000 3400.395393 58.312909
52.684000 3388.429004 58.210214
52.688000 3469.923384 58.906056
52.692000 3404.818030 58.350819
52.696000 3381.250416 58.148520
52.700000 3418.406096 58.467137
52.704000 3380.531308 58.142337
52.708000 3417.188243 58.456721
52.712000 3350.582281 57.884214
52.716000 3353.986729 57.913614
52.720000 3321.718516 57.634352
52.724000 3385.854295 58.188094
52.728000 3406.635423 58.366390
52.732000 3334.183803 57.742392
52.736000 3358.348812 57.951262
52.740000 3446.018926 58.702802
52.744000 3405.183320 58.353949
52.748000 3248.059056 56.991746
52.752000 3364.245072 58.002113
52.756000 3360.821438 57.972592
52.760000 3392.980836 58.249299
52.764000 3308.207350 57.517018
52.768000 3340.189325 57.794371
52.772000 3430.296513 58.568733
52.776000 3420.708551 58.486824
52.780000 3500.748897 59.167127
52.784000 3453.800915 58.769047
52.788000 3439.492213 58.647184
52.792000 3397.305452 58.286409
52.796000 3451.536077 58.749775
52.800000 3376.677463 58.109186
52.804000 3355.249112 57.924512
52.808000 3432.590836 58.588317
52.812000 3387.684552 58.203819
52.816000 3417.498668 58.459376
52.820000 3404.448871 58.347655
52.824000 3474.229089 58.942591
52.828000 3402.888175 58.334280
52.832000 3395.193976 58.268293
52.836000 3529.312117 59.408014
52.840000 3454.110913 58.771685
52.844000 3398.803968 58.299262
52.848000 3484.211558 59.027210
52.852000 3561.039011 59.674442
52.856000 3441.896403 58.667678
52.860000 3442.812628 58.675486
52.864000 3423.531439 58.510951
52.868000 3484.405537 59.028853
52.872000 3335.035738 57.749768
52.876000 3475.970165 58.957359
52.880000 3463.763469 58.853746
52.884000 3441.058684 58.660538
52.888000 3482.665424 59.014112
52.892000 3559.976516 59.665539
52.896000 3430.625383 58.571541
52.900000 3499.675044 59.158051
52.904000 3420.305541 58.483378
52.908000 3382.061305 58.155492
52.912000 3442.478894 58.672642
52.916000 3510.040700 59.245596
52.920000 3458.407205 58.808224
52.924000 3411.995411 58.412288
52.928000 3499.082058 59.153039
52.932000 3389.272640 58.217460
52.936000 3421.931805 58.497280
52.940000 3354.434907 57.917484
52.944000 3376.708605 58.109454
52.948000 3482.828082 59.015490
52.952000 3434.775680 58.606959
52.956000 3483.603576 59.022060
52.960000 3434.661432 58.605985
52.964000 3498.437690 59.147592
52.968000 3477.176601 58.967589
52.972000 3450.973421 58.744986
52.976000 3480.088065 58.992271
52.980000 3445.897549 58.701768
52.984000 3426.809113 58.538954
52.988000 3417.909987 58.462894
52.992000 3362.474093 57.986844
52.996000 3385.916954 58.188633
53.000000 3437.604821 58.631091
53.004000 3364.520082 58.004483
53.008000 3420.665039 58.486452
53.012000 3426.021578 58.532227
53.016000 3432.547441 58.587946
53.020000 3354.979228 57.922183
53.024000 3337.723753 57.773037
53.028000 3457.144691 58.797489
53.032000 3452.541330 58.758330
53.036000 3474.109334 58.941576
53.040000 3348.240886 57.863986
53.044000 3379.842017 58.136409
53.048000 3431.299068 58.577291
53.052000 3390.321450 58.226467
53.056000 3402.395473 58.330056
53.060000 3441.610638 58.665242
53.064000 3405.929161 58.360339
53.068000 3464.052062 58.856198
53.072000 3424.400611 58.518378
53.076000 3447.531025 58.715680
53.080000 3539.382157 59.492707
53.084000 3455.123825 58.780301
53.088000 3432.453262 58.587142
53.092000 3457.161119 58.797629
53.096000 3436.553199 58.622122
53.100000 3601.046338 60.008719
53.104000 3519.566408 59.325934
53.108000 3541.808788 59.513098
53.112000 3538.766445 59.487532
53.116000 3563.956403 59.698881
53.120000 3630.498802 60.253621
53.124000 3542.095927 59.515510
53.128000 3603.456724 60.028799
53.132000 3491.301228 59.087234
53.136000 3537.888682 59.480154
53.140000 3536.079179 59.464941
53.144000 3606.176298 60.051447
53.148000 3536.224026 59.466159
53.152000 3563.556591 59.695532
53.156000 3561.026043 59.674333
53.160000 3489.843783 59.074900
53.164000 3616.977630 60.141314
53.168000 3645.759154 60.380122
53.172000 3581.740305 59.847642
53.176000 3535.827274 59.462823
53.180000 3474.127350 58.941728
53.184000 3586.348336 59.886128
53.188000 3621.998403 60.183041
53.192000 3515.451977 59.291247
53.196000 3514.588016 59.283961
53.200000 3498.559047 59.148618
53.204000 3407.885727 58.377099
53.208000 3479.155579 58.984367
53.212000 3430.350200 58.569192
53.216000 3461.425686 58.833882
53.220000 3393.480993 58.253592
53.224000 3420.823132 58.487803
53.228000 3335.507153 57.753850
53.232000 3406.484154 58.365094
53.236000 3424.864750 58.522344
53.240000 3390.385955 58.227021
53.244000 3426.636212 58.537477
53.248000 3374.735900 58.092477
53.252000 3413.032224 58.421162
53.256000 3403.877175 58.342756
53.260000 3384.557862 58.176953
53.264000 3308.759045 57.521814
53.268000 3345.166134 57.837411
53.272000 3343.656137 57.824356
53.276000 3382.390931 58.158326
53.280000 3387.633292 58.203379
53.284000 3388.505983 58.210875
53.288000 3380.897764 58.145488
53.292000 3247.240162 56.984561
53.296000 3319.524980 57.615319
53.300000 3318.859408 57.609543
53.304000 3380.576677 58.142727
53.308000 3337.564130 57.771655
53.312000 3322.009992 57.636880
53.316000 3370.845048 58.058979
53.320000 3397.063377 58.284332
53.324000 3392.211690 58.242696
53.328000 3396.017473 58.275359
53.332000 3353.312092 57.907790
53.336000 3364.457135 58.003941
53.340000 3391.057937 58.232791
53.344000 3374.505591 58.090495
53.348000 3456.103557 58.788635
53.352000 3395.210253 58.268433
53.356000 3457.046060 58.796650
53.360000 3409.642950 58.392148
53.364000 3452.534076 58.758268
53.368000 3483.906000 59.024622
53.372000 3481.257721 59.002184
53.376000 3495.467479 59.122479
53.380000 3481.871140 59.007382
53.384000 3375.017746 58.094903
53.388000 3391.710330 58.238392
53.392000 3349.963676 57.878871
53.396000 3518.865016 59.320022
53.400000 3551.938021 59.598138
53.404000 3481.444089 59.003763
53.408000 3436.010274 58.617491
53.412000 3508.663403 59.233972
53.416000 3536.747338 59.470559
53.420000 3437.541448 58.630550
53.424000 3447.458577 58.715063
53.428000 3500.217785 59.162638
53.432000 3536.564883 59.469025
53.436000 3424.739019 58.521270
53.440000 3471.758520 58.921630
53.444000 3442.934468 58.676524
53.448000 3513.504792 59.274824
53.452000 3474.031949 58.940919
53.456000 3458.544818 58.809394
53.460000 3465.394569 58.867602
53.464000 3392.144351 58.242118
53.468000 3421.539137 58.493924
53.472000 3405.974175 58.360725
53.476000 3462.071871 58.839373
53.480000 3365.691693 58.014582
53.484000 3407.732162 58.375784
53.488000 3422.562362 58.502670
53.492000 3490.109159 59.077146
53.496000 3347.915820 57.861177
53.500000 3396.315572 58.277917
53.504000 3375.344820 58.097718
53.508000 3357.053781 57.940088
53.512000 3364.419574 58.003617
53.516000 3352.701278 57.902515
53.520000 3319.600522 57.615975
53.524000 3335.086528 57.750208
53.528000 3438.419289 58.638036
53.532000 3386.822417 58.196412
53.536000 3335.642384 57.755020
53.540000 3407.189274 58.371134
53.544000 3381.326892 58.149178
53.548000 3426.864750 58.539429
53.552000 3408.172154 58.379553
53.556000 3416.077054 58.447216
53.560000 3444.610224 58.690802
53.564000 3432.156247 58.584608
53.568000 3485.118408 59.034891
53.572000 3529.476038 59.409394
53.576000 3483.036724 59.017258
53.580000 3254.196117 57.045562
53.584000 3302.050852 57.463474
53.588000 3419.796206 58.479024
53.592000 3420.053876 58.481227
53.596000 3466.253947 58.874901
53.600000 3425.864365 58.530884
53.604000 3391.937966 58.240347
53.608000 3310.619057 57.537979
53.612000 3425.750851 58.529914
53.616000 3399.069665 58.301541
53.620000 3371.761519 58.066871
53.624000 3358.947335 57.956426
53.628000 3385.710584 58.186859
53.632000 3351.408022 57.891347
53.636000 3303.115844 57.472740
53.640000 3362.710228 57.988880
53.644000 3356.814111 57.938020
53.648000 3397.072857 58.284414
53.652000 3446.771360 58.709210
53.656000 3364.191693 58.001653
53.660000 3427.556341 58.545336
53.664000 3324.022891 57.654340
53.668000 3312.614257 57.555315
53.672000 3299.696650 57.442986
53.676000 3354.426367 57.917410
53.680000 3297.584743 57.424601
53.684000 3330.477296 57.710288
53.688000 3394.013308 58.258161
53.692000 3380.999736 58.146365
53.696000 3361.751664 57.980615
53.700000 3372.847437 58.076221
53.704000 3369.552302 58.047845
53.708000 3430.947179 58.574288
53.712000 3304.137913 57.481631
53.716000 3370.995209 58.060272
53.720000 3341.029011 57.801635
53.724000 3319.030610 57.611029
53.728000 3352.864689 57.903926
53.732000 3375.424275 58.098402
53.736000 3252.846069 57.033727
53.740000 3288.140152 57.342307
53.744000 3294.964333 57.401780
53.748000 3311.705000 57.547415
53.752000 3325.741017 57.669238
53.756000 3331.824062 57.721955
53.760000 3339.397125 57.787517
53.764000 3234.332151 56.871189
53.768000 3284.498004 57.310540
53.772000 3262.900380 57.121803
53.776000 3287.384615 57.335718
53.780000 3286.296831 57.326232
53.784000 3292.001065 57.375962
53.788000 3282.137240 57.289940
53.792000 3338.404578 57.778928
53.796000 3395.056162 58.267110
53.800000 3318.325633 57.604910
53.804000 3195.828054 56.531655
53.808000 3366.220394 58.019138
53.812000 3290.304016 57.361172
53.816000 3267.344424 57.160689
53.820000 3360.876763 57.973069
53.824000 3407.250998 58.371663
53.828000 3379.023293 58.129367
53.832000 3306.970721 57.506267
53.836000 3346.787863 57.851429
53.840000 3428.527793 58.553632
53.844000 3417.920681 58.462986
53.848000 3442.184018 58.670129
53.852000 3468.002831 58.889751
53.856000 3432.717860 58.589401
53.860000 3438.222518 58.636358
53.864000 3473.824328 58.939158
53.868000 3369.694356 58.049069
53.872000 3476.409951 58.961088
53.876000 3559.075858 59.657991
53.880000 3457.760702 58.802727
53.884000 3450.336172 58.739562
53.888000 3497.660900 59.141026
53.892000 3520.276550 59.331918
53.896000 3413.443768 58.424685
53.900000 3465.323436 58.866998
53.904000 3410.287996 58.397671
53.908000 3405.350279 58.355379
53.912000 3479.115440 58.984027
53.916000 3439.593559 58.648048
53.920000 3482.283205 59.010874
53.924000 3442.722448 58.674717
53.928000 3371.253564 58.062497
53.932000 3322.500133 57.641132
53.936000 3351.138142 57.889016
53.940000 3405.276817 58.354750
53.944000 3426.442239 58.535820
53.948000 3314.900719 57.575174
53.952000 3410.424326 58.398838
53.956000 3370.388342 58.055046
53.960000 3447.259221 58.713365
53.964000 3389.562949 58.219953
53.968000 3411.523822 58.408251
53.972000 3387.668785 58.203684
53.976000 3391.609795 58.237529
53.980000 3392.045515 58.241270
53.984000 3378.880227 58.128136
53.988000 3329.249933 57.699653
53.992000 3527.676870 59.394249
53.996000 3311.959344 57.549625
54.000000 3424.810221 58.521878
54.004000 3451.244078 58.747290
54.008000 3437.256265 58.628118
54.012000 3473.943040 58.940165
54.016000 3487.985361 59.059168
54.020000 3510.067869 59.245826
54.024000 3579.938515 59.832587
54.028000 3469.350279 58.901191
54.032000 3549.170637 59.574916
54.036000 3529.213468 59.407184
54.040000 3595.653542 59.963769
54.044000 3575.846420 59.798381
54.048000 3638.390986 60.319076
54.052000 3626.683524 60.221952
54.056000 3604.383551 60.036518
54.060000 3658.434140 60.484991
54.064000 3612.692840 60.105681
54.068000 3687.316387 60.723277
54.072000 3641.231074 60.342614
54.076000 3725.389406 61.035968
54.080000 3715.599172 60.955715
54.084000 3695.963002 60.794432
54.088000 3669.993346 60.580470
54.092000 3565.912459 59.715262
54.096000 3585.051371 59.875299
54.100000 3628.754059 60.239141
54.104000 3672.117350 60.597998
54.108000 3674.823796 60.620325
54.112000 3626.461805 60.220111
54.116000 3573.707008 59.780490
54.120000 3593.469524 59.945555
54.124000 3704.920959 60.868062
54.128000 3610.192707 60.084879
54.132000 3677.289726 60.640661
54.136000 3684.144530 60.697154
54.140000 3665.559489 60.543864
54.144000 3673.105540 60.606151
54.148000 3628.700544 60.238696
54.152000 3554.191614 59.617041
54.156000 3503.888741 59.193655
54.160000 3612.713402 60.105852
54.164000 3582.658861 59.855316
54.168000 3671.918286 60.596355
54.172000 3598.385441 59.986544
54.176000 3545.817141 59.546764
54.180000 3569.698771 59.746956
54.184000 3557.832858 59.647572
54.188000 3483.551125 59.021616
54.192000 3549.602608 59.578542
54.196000 3546.926823 59.556081
54.200000 3600.001863 60.000016
54.204000 3524.605803 59.368391
54.208000 3566.546833 59.720573
54.212000 3562.223583 59.684366
54.216000 3574.039129 59.783268
54.220000 3540.861326 59.505137
54.224000 3549.663162 59.579050
54.228000 3563.341004 59.693727
54.232000 3562.965982 59.690585
54.236000 3514.715195 59.285033
54.240000 3650.489673 60.419282
54.244000 3540.959276 59.505960
54.248000 3541.178552 59.507802
54.252000 3562.469790 59.686429
54.256000 3598.157398 59.984643
54.260000 3559.725307 59.663434
54.264000 3599.020096 59.991834
54.268000 3567.162630 59.725728
54.272000 3497.087177 59.136175
54.276000 3537.974980 59.480879
54.280000 3545.435338 59.543558
54.284000 3456.713069 58.793818
54.288000 3427.378227 58.543815
54.292000 3442.085152 58.669286
54.296000 3388.760713 58.213063
54.300000 3455.159088 58.780601
54.304000 3549.187866 59.575061
54.308000 3451.932925 58.753152
54.312000 3484.514680 59.029778
54.316000 3530.597285 59.418829
54.320000 3520.690793 59.335409
54.324000 3483.326857 59.019716
54.328000 3417.723742 58.461301
54.332000 3470.735472 58.912948
54.336000 3430.672531 58.571943
54.340000 3402.554788 58.331422
54.344000 3395.107507 58.267551
54.348000 3573.858900 59.781761
54.352000 3450.232513 58.738680
54.356000 3474.651584 58.946175
54.360000 3501.956626 59.177332
54.364000 3458.861059 58.812083
54.368000 3496.529005 59.131455
54.372000 3434.792920 58.607106
54.376000 3429.330258 58.560484
54.380000 3468.538851 58.894302
54.384000 3402.658725 58.332313
54.388000 3415.474925 58.442065
54.392000 3441.489105 58.664206
54.396000 3431.172430 58.576210
54.400000 3490.431201 59.079871
54.404000 3460.251377 58.823901
54.408000 3492.593401 59.098167
54.412000 3462.861777 58.846085
54.416000 3360.439979 57.969302
54.420000 3434.417775 58.603906
54.424000 3443.175938 58.678582
54.428000 3477.204364 58.967825
54.432000 3416.831922 58.453673
54.436000 3453.539526 58.766823
54.440000 3496.076903 59.127632
54.444000 3377.553899 58.116727
54.448000 3378.062001 58.121098
54.452000 3457.957679 58.804402
54.456000 3402.377328 58.329901
54.460000 3413.650918 58.426457
54.464000 3358.541937 57.952929
54.468000 3417.678505 58.460914
54.472000 3356.731506 57.937307
54.476000 3359.741283 57.963275
54.480000 3331.040713 57.715169
54.484000 3367.828912 58.032998
54.488000 3457.272629 58.798577
54.492000 3351.757948 57.894369
54.496000 3368.159262 58.035845
54.500000 3299.308675 57.439609
54.504000 3300.606867 57.450908
54.508000 3349.783928 57.877318
54.512000 3304.149195 57.481729
54.516000 3294.983616 57.401948
54.520000 3331.595796 57.719977
54.524000 3330.088368 57.706918
54.528000 3353.495476 57.909373
54.532000 3222.096886 56.763517
54.536000 3199.266365 56.562058
54.540000 3254.966995 57.052318
54.544000 3339.784460 57.790868
54.548000 3221.684323 56.759883
54.552000 3253.294039 57.037655
54.556000 3290.530210 57.363143
54.560000 3278.441704 57.257678
54.564000 3248.137021 56.992430
54.568000 3274.803596 57.225900
54.572000 3280.704364 57.277433
54.576000 3263.393435 57.126119
54.580000 3216.332169 56.712716
54.584000 3188.301103 56.465043
54.588000 3286.880882 57.331325
54.592000 3191.013021 56.489052
54.596000 3241.311951 56.932521
54.600000 3232.598989 56.855949
54.604000 3250.078294 57.009458
54.608000 3206.418269 56.625244
54.612000 3227.199042 56.808442
54.616000 3264.729838 57.137814
54.620000 3276.706759 57.242526
54.624000 3211.789043 56.672648
54.628000 3288.096978 57.341930
54.632000 3193.212835 56.508520
54.636000 3202.189995 56.587896
54.640000 3233.231035 56.861508
54.644000 3301.071315 57.454950
54.648000 3294.323376 57.396197
54.652000 3284.044378 57.306582
54.656000 3251.178445 57.019106
54.660000 3273.412986 57.213748
54.664000 3136.864520 56.007718
54.668000 3240.348590 56.924060
54.672000 3257.265522 57.072459
54.676000 3231.655347 56.847650
54.680000 3309.017813 57.524063
54.684000 3194.309739 56.518225
54.688000 3251.265637 57.019871
54.692000 3303.652475 57.477408
54.696000 3247.733720 56.988891
54.700000 3258.634966 57.084455
54.704000 3247.472418 56.986599
54.708000 3218.480923 56.731657
54.712000 3226.798428 56.804916
54.716000 3287.932624 57.340497
54.720000 3346.568121 57.849530
54.724000 3305.102828 57.490024
54.728000 3253.310908 57.037802
54.732000 3223.026412 56.771704
54.736000 3326.880893 57.679120
54.740000 3424.011565 58.515054
54.744000 3292.467214 57.380025
54.748000 3308.231898 57.517231
54.752000 3357.163275 57.941033
54.756000 3333.299030 57.734730
54.760000 3427.806320 58.547471
54.764000 3364.249693 58.002152
54.768000 3406.927032 58.368888
54.772000 3416.718635 58.452704
54.776000 3338.911921 57.783319
54.780000 3476.495874 58.961817
54.784000 3498.293304 59.146372
54.788000 3358.011978 57.948356
54.792000 3348.307078 57.864558
54.796000 3429.926803 58.565577
54.800000 3442.040713 58.668908
54.804000 3479.673106 58.988754
54.808000 3550.947845 59.589830
54.812000 3343.688581 57.824636
54.816000 3453.611762 58.767438
54.820000 3428.640405 58.554593
54.824000 3439.372114 58.646160
54.828000 3556.837881 59.639231
54.832000 3405.713631 58.358492
54.836000 3366.398084 58.020669
54.840000 3429.334842 58.560523
54.844000 3496.197978 59.128656
54.848000 3436.104339 58.618294
54.852000 3474.122139 58.941684
54.856000 3463.453021 58.851109
54.860000 3384.441516 58.175953
54.864000 3402.769393 58.333261
54.868000 3459.040261 58.813606
54.872000 3367.393780 58.029249
54.876000 3480.300259 58.994070
54.880000 3461.741549 58.836566
54.884000 3422.944651 58.505937
54.888000 3454.681129 58.776536
54.892000 3400.153007 58.310831
54.896000 3369.093426 58.043892
54.900000 3340.756063 57.799274
54.904000 3285.268330 57.317260
54.908000 3440.932115 58.659459
54.912000 3427.494874 58.544811
54.916000 3409.068473 58.387229
54.920000 3402.615834 58.331945
54.924000 3358.508520 57.952640
54.928000 3399.936158 58.308972
54.932000 3328.579624 57.693844
54.936000 3398.277266 58.294745
54.940000 3390.745957 58.230112
54.944000 3390.943572 58.231809
54.948000 3384.876264 58.179689
54.952000 3434.367581 58.603478
54.956000 3378.114423 58.121549
54.960000 3272.101411 57.202285
54.964000 3384.023417 58.172360
54.968000 3326.348682 57.674506
54.972000 3410.438265 58.398958
54.976000 3459.788129 58.819964
54.980000 3371.082688 58.061026
54.984000 3369.774554 58.049759
54.988000 3418.727515 58.469886
54.992000 3423.329784 58.509228
54.996000 3408.167421 58.379512
55.000000 3352.377832 57.899722
55.004000 3461.964633 58.838462
55.008000 3446.687399 58.708495
55.012000 3416.901251 58.454266
55.016000 3353.443705 57.908926
55.020000 3382.275146 58.157331
55.024000 3421.857865 58.496648
55.028000 3431.636172 58.580169
55.032000 3324.745808 57.660609
55.036000 3398.089675 58.293136
55.040000 3346.612989 57.849918
55.044000 3352.287833 57.898945
55.048000 3357.208145 57.941420
55.052000 3293.367369 57.387868
55.056000 3316.807354 57.591730
55.060000 3356.786242 57.937779
55.064000 3413.310088 58.423541
55.068000 3385.343345 58.183703
55.072000 3436.014107 58.617524
55.076000 3424.862241 58.522323
55.080000 3364.875434 58.007546
55.084000 3362.512909 57.987179
55.088000 3398.497711 58.296636
55.092000 3339.286665 57.786561
55.096000 3312.301781 57.552600
55.100000 3283.156242 57.298833
55.104000 3274.955017 57.227223
55.108000 3370.984300 58.060178
55.112000 3399.132020 58.302076
55.116000 3414.470323 58.433469
55.120000 3422.935853 58.505862
55.124000 3257.152859 57.071471
55.128000 3316.595422 57.589890
55.132000 3312.587413 57.555082
55.136000 3315.335906 57.578954
55.140000 3272.272292 57.203779
55.144000 3315.056560 57.576528
55.148000 3324.134948 57.655312
55.152000 3366.881821 58.024838
55.156000 3228.281933 56.817972
55.160000 3277.355337 57.248191
55.164000 3345.532606 57.840579
55.168000 3179.572557 56.387699
55.172000 3299.202821 57.438687
55.176000 3231.302901 56.844550
55.180000 3337.158105 57.768141
55.184000 3244.664094 56.961953
55.188000 3207.858149 56.637957
55.192000 3229.082513 56.825017
55.196000 3306.925739 57.505876
55.200000 3337.149568 57.768067
55.204000 3303.838701 57.479028
55.208000 3266.816609 57.156072
55.212000 3266.878059 57.156610
55.216000 3222.594890 56.767904
55.220000 3238.642800 56.909075
55.224000 3335.421081 57.753105
55.228000 3321.862842 57.635604
55.232000 3335.313548 57.752174
55.236000 3252.603745 57.031603
55.240000 3187.149854 56.454848
55.244000 3198.483364 56.555136
55.248000 3304.524355 57.484992
55.252000 3317.080649 57.594103
55.256000 3369.055821 58.043568
55.260000 3250.370508 57.012021
55.264000 3248.579718 56.996313
55.268000 3248.496685 56.995585
55.272000 3233.556124 56.864366
55.276000 3164.230237 56.251491
55.280000 3248.681129 56.997203
55.284000 3179.091562 56.383433
55.288000 3229.320443 56.827110
55.292000 3218.012298 56.727527
55.296000 3361.562151 57.978980
55.300000 3295.223583 57.404038
55.304000 3252.525131 57.030914
55.308000 3293.496381 57.388992
55.312000 3295.715731 57.408325
55.316000 3238.690445 56.909493
55.320000 3258.464397 57.082961
55.324000 3312.941975 57.558162
55.328000 3317.438648 57.597210
55.332000 3340.135480 57.793905
55.336000 3248.948132 56.999545
55.340000 3235.942241 56.885343
55.344000 3251.889035 57.025337
55.348000 3287.367847 57.335572
55.352000 3336.110993 57.759077
55.356000 3320.918562 57.627412
55.360000 3317.231834 57.595415
55.364000 3374.905510 58.093937
55.368000 3436.442285 58.621176
55.372000 3415.689912 58.443904
55.376000 3461.854937 58.837530
55.380000 3429.943065 58.565716
55.384000 3371.170881 58.061785
55.388000 3374.635880 58.091616
55.392000 3429.777489 58.564302
55.396000 3482.944903 59.016480
55.400000 3356.648390 57.936589
55.404000 3437.878464 58.633424
55.408000 3499.672079 59.158026
55.412000 3513.787064 59.277205
55.416000 3463.115078 58.848238
55.420000 3474.001863 58.940664
55.424000 3511.746974 59.259995
55.428000 3487.093692 59.051619
55.432000 3471.367687 58.918314
55.436000 3534.699228 59.453337
55.440000 3513.673163 59.276245
55.444000 3637.579718 60.312351
55.448000 3521.699164 59.343906
55.452000 3492.792388 59.099851
55.456000 3503.069780 59.186737
55.460000 3599.809689 59.998414
55.464000 3527.251278 59.390667
55.468000 3578.475379 59.820359
55.472000 3523.324140 59.357595
55.476000 3480.815012 58.998432
55.480000 3494.637114 59.115456
55.484000 3498.002422 59.143913
55.488000 3471.555763 58.919910
55.492000 3468.734198 58.895961
55.496000 3509.052169 59.237253
55.500000 3443.813669 58.684015
55.504000 3486.092516 59.043141
55.508000 3453.336705 58.765098
55.512000 3369.164537 58.044505
55.516000 3487.587052 59.055796
55.520000 3478.436252 58.978269
55.524000 3479.025718 58.983266
55.528000 3422.339692 58.500767
55.532000 3413.211073 58.422693
55.536000 3408.482428 58.382210
55.540000 3429.610574 58.562877
55.544000 3396.626238 58.280582
55.548000 3468.189247 58.891334
55.552000 3504.972133 59.202805
55.556000 3516.505046 59.300127
55.560000 3512.342072 59.265016
55.564000 3555.173543 59.625276
55.568000 3528.588392 59.401922
55.572000 3449.773656 58.734774
55.576000 3508.061400 59.228890
55.580000 3551.970447 59.598410
55.584000 3514.924437 59.286798
55.588000 3503.487435 59.190265
55.592000 3510.761296 59.251678
55.596000 3405.604100 58.357554
55.600000 3375.568268 58.099641
55.604000 3516.498860 59.300075
55.608000 3531.816028 59.429084
55.612000 3503.398115 59.189510
55.616000 3474.724707 58.946796
55.620000 3445.744939 58.700468
55.624000 3509.815128 59.243693
55.628000 3500.612620 59.165975
55.632000 3496.554047 59.131667
55.636000 3580.434040 59.836728
55.640000 3631.729115 60.263829
55.644000 3544.148798 59.532754
55.648000 3636.920394 60.306885
55.652000 3593.994232 59.949931
55.656000 3570.899095 59.757000
55.660000 3607.706059 60.064183
55.664000 3527.954739 59.396589
55.668000 3449.030274 58.728445
55.672000 3519.605698 59.326265
55.676000 3520.014643 59.329711
55.680000 3483.326186 59.019710
55.684000 3455.057197 58.779735
55.688000 3486.355431 59.045368
55.692000 3547.662612 59.562258
55.696000 3572.251565 59.768316
55.700000 3595.870607 59.965579
55.704000 3547.456569 59.560529
55.708000 3485.507987 59.038191
55.712000 3564.822068 59.706131
55.716000 3512.903088 59.269749
55.720000 3583.754504 59.864468
55.724000 3533.437167 59.442722
55.728000 3421.131789 58.490442
55.732000 3499.214044 59.154155
55.736000 3513.136813 59.271720
55.740000 3573.518903 59.778917
55.744000 3454.743718 58.777068
55.748000 3454.652853 58.776295
55.752000 3508.248136 59.230466
55.756000 3515.553401 59.292102
55.760000 3517.242812 59.306347
55.764000 3549.847977 59.580601
55.768000 3505.065794 59.203596
55.772000 3484.993806 59.033836
55.776000 3486.578354 59.047255
55.780000 3472.852503 58.930913
55.784000 3420.991663 58.489244
55.788000 3361.392654 57.977519
55.792000 3440.475772 58.655569
55.796000 3452.805489 58.760578
55.800000 3468.164537 58.891124
55.804000 3414.034911 58.429743
55.808000 3480.624601 58.996819
55.812000 3341.697344 57.807416
55.816000 3343.121514 57.819733
55.820000 3354.121117 57.914775
55.824000 3404.596113 58.348917
55.828000 3414.762173 58.435966
55.832000 3401.639596 58.323577
55.836000 3420.481097 58.484879
55.840000 3316.748855 57.591222
55.844000 3367.959802 58.034126
55.848000 3361.306709 57.976777
55.852000 3403.366395 58.338378
55.856000 3389.523676 58.219616
55.860000 3339.183972 57.785673
55.864000 3238.453110 56.907408
55.868000 3301.371916 57.457566
55.872000 3248.850639 56.998690
55.876000 3463.121313 58.848291
55.880000 3479.063367 58.983586
55.884000 3410.621672 58.400528
55.888000 3340.249419 57.794891
55.892000 3270.468923 57.188014
55.896000 3389.483493 58.219271
55.900000 3364.732088 58.006311
55.904000 3320.680884 57.625349
55.908000 3324.530435 57.658741
55.912000 3383.731629 58.169852
55.916000 3414.955193 58.437618
55.920000 3351.583301 57.892861
55.924000 3341.143490 57.802625
55.928000 3289.853633 57.357246
55.932000 3313.178809 57.560219
55.936000 3396.531292 58.279767
55.940000 3324.463289 57.658159
55.944000 3303.833333 57.478982
55.948000 3269.669854 57.181027
55.952000 3289.461994 57.353832
55.956000 3279.253402 57.264766
55.960000 3316.988016 57.593298
55.964000 3337.016848 57.766918
55.968000 3367.595571 58.030988
55.972000 3367.751794 58.032334
55.976000 3372.315792 58.071644
55.980000 3402.304927 58.329280
55.984000 3278.827781 57.261049
55.988000 3322.021434 57.636980
55.992000 3262.445381 57.117820
55.996000 3292.944535 57.384184
56.000000 3241.334071 56.932715
56.004000 3324.053795 57.654608
56.008000 3358.983660 57.956740
56.012000 3303.210857 57.473567
56.016000 3309.785353 57.530734
56.020000 3284.381052 57.309520
56.024000 3259.937273 57.095860
56.028000 3276.542210 57.241088
56.032000 3252.897649 57.034180
56.036000 3289.308709 57.352495
56.040000 3271.429687 57.196413
56.044000 3283.039643 57.297815
56.048000 3297.731049 57.425874
56.052000 3294.608735 57.398682
56.056000 3305.307431 57.491803
56.060000 3259.733955 57.094080
56.064000 3175.722289 56.353547
56.068000 3282.938216 57.296930
56.072000 3319.130348 57.611894
56.076000 3408.228762 58.380037
56.080000 3389.905131 58.222892
56.084000 3401.904401 58.325847
56.088000 3373.972037 58.085902
56.092000 3320.352745 57.622502
56.096000 3341.325166 57.804197
56.100000 3306.072633 57.498458
56.104000 3385.041012 58.181105
56.108000 3406.515817 58.365365
56.112000 3406.199201 58.362652
56.116000 3393.057877 58.249960
56.120000 3309.393249 57.527326
56.124000 3397.685548 58.289669
56.128000 3336.523781 57.762650
56.132000 3345.958305 57.844259
56.136000 3425.746155 58.529874
56.140000 3346.764075 57.851224
56.144000 3367.397870 58.029285
56.148000 3403.098101 58.336079
56.152000 3365.908156 58.016447
56.156000 3344.375183 57.830573
56.160000 3312.812783 57.557039
56.164000 3402.959628 58.334892
56.168000 3402.139809 58.327865
56.172000 3350.765140 57.885794
56.176000 3463.032224 58.847534
56.180000 3433.184438 58.593382
56.184000 3387.926263 58.205895
56.188000 3427.015765 58.540719
56.192000 3400.447496 58.313356
56.196000 3389.650866 58.220708
56.200000 3388.087915 58.207284
56.204000 3395.561653 58.271448
56.208000 3348.844643 57.869203
56.212000 3358.233062 57.950264
56.216000 3334.132359 57.741946
56.220000 3340.849748 57.800084
56.224000 3441.588374 58.665052
56.228000 3381.738412 58.152716
56.232000 3428.533056 58.553677
56.236000 3471.564609 58.919985
56.240000 3325.907087 57.670678
56.244000 3400.949154 58.317657
56.248000 3480.832226 58.998578
56.252000 3372.375680 58.072159
56.256000 3299.923675 57.444962
56.260000 3370.949481 58.059878
56.264000 3471.276505 58.917540
56.268000 3313.413609 57.562259
56.272000 3306.407094 57.501366
56.276000 3332.563456 57.728359
56.280000 3321.387979 57.631484
56.284000 3363.434204 57.995122
56.288000 3293.637558 57.390222
56.292000 3293.258012 57.386915
56.296000 3359.281544 57.959309
56.300000 3289.581568 57.354874
56.304000 3292.853262 57.383388
56.308000 3319.232404 57.612780
56.312000 3384.865442 58.179596
56.316000 3329.493720 57.701765
56.320000 3319.905972 57.618625
56.324000 3382.306943 58.157604
56.328000 3299.928352 57.445003
56.332000 3275.361747 57.230776
56.336000 3249.300576 57.002637
56.340000 3392.446759 58.244714
56.344000 3327.239792 57.682231
56.348000 3389.248833 58.217255
56.352000 3284.593346 57.311372
56.356000 3364.245033 58.002112
56.360000 3402.576185 58.331605
56.364000 3352.137238 57.897644
56.368000 3271.440597 57.196509
56.372000 3243.377741 56.950661
56.376000 3394.507696 58.262404
56.380000 3337.386307 57.770116
56.384000 3407.897709 58.377202
56.388000 3332.011650 57.723580
56.392000 3267.474891 57.161831
56.396000 3306.372403 57.501064
56.400000 3320.131229 57.620580
56.404000 3348.115413 57.862902
56.408000 3369.551885 58.047841
56.412000 3399.444696 58.304757
56.416000 3324.613534 57.659462
56.420000 3324.001942 57.654158
56.424000 3332.467493 57.727528
56.428000 3288.906552 57.348989
56.432000 3404.574321 58.348730
56.436000 3335.860394 57.756908
56.440000 3324.179088 57.655694
56.444000 3303.854882 57.479169
56.448000 3414.302111 58.432030
56.452000 3358.431946 57.951980
56.456000 3349.638982 57.876066
56.460000 3403.246508 58.337351
56.464000 3391.106850 58.233211
56.468000 3426.262224 58.534282
56.472000 3309.186625 57.525530
56.476000 3329.296550 57.700057
56.480000 3302.746404 57.469526
56.484000 3400.876782 58.317037
56.488000 3396.968566 58.283519
56.492000 3352.263476 57.898735
56.496000 3258.414247 57.082521
56.500000 3282.600600 57.293984
56.504000 3271.734704 57.199080
56.508000 3322.446043 57.640663
56.512000 3360.195556 57.967194
56.516000 3319.251637 57.612947
56.520000 3398.634099 58.297805
56.524000 3406.732214 58.367219
56.528000 3291.004432 57.367277
56.532000 3331.151483 57.716128
56.536000 3376.202494 58.105099
56.540000 3369.979483 58.051524
56.544000 3343.750919 57.825175
56.548000 3256.881664 57.069096
56.552000 3288.565991 57.346020
56.556000 3291.027754 57.367480
56.560000 3240.549639 56.925826
56.564000 3294.366692 57.396574
56.568000 3216.307487 56.712499
56.572000 3269.239635 57.177265
56.576000 3322.196227 57.638496
56.580000 3352.923684 57.904436
56.584000 3314.467630 57.571413
56.588000 3334.137224 57.741988
56.592000 3330.036634 57.706470
56.596000 3315.560983 57.580908
56.600000 3288.805197 57.348105
56.604000 3286.605495 57.328924
56.608000 3382.980016 58.163391
56.612000 3375.271118 58.097084
56.616000 3331.397471 57.718259
56.620000 3384.964410 58.180447
56.624000 3312.954397 57.558270
56.628000 3281.261308 57.282295
56.632000 3218.376232 56.730734
56.636000 3262.357849 57.117054
56.640000 3224.226052 56.782269
56.644000 3266.397805 57.152409
56.648000 3340.017479 57.792884
56.652000 3369.241799 58.045170
56.656000 3276.063718 57.236909
56.660000 3244.325073 56.958977
56.664000 3268.890164 57.174209
56.668000 3213.871405 56.691017
56.672000 3236.089481 56.886637
56.676000 3170.575817 56.307866
56.680000 3124.323645 55.895650
56.684000 3192.297476 56.500420
56.688000 3194.742731 56.522055
56.692000 3195.868706 56.532015
56.696000 3285.579242 57.319972
56.700000 3192.434504 56.501633
56.704000 3205.924319 56.620882
56.708000 3215.557324 56.705884
56.712000 3237.870783 56.902292
56.716000 3188.727743 56.468821
56.720000 3190.891507 56.487977
56.724000 3155.851977 56.176970
56.728000 3241.749820 56.936366
56.732000 3133.714419 55.979589
56.736000 3173.622725 56.334916
56.740000 3173.538359 56.334167
56.744000 3213.714394 56.689632
56.748000 3152.045576 56.143081
56.752000 3131.313347 55.958139
56.756000 3216.082046 56.710511
56.760000 3233.027706 56.859720
56.764000 3133.977565 55.981940
56.768000 3195.855682 56.531900
56.772000 3168.415932 56.288684
56.776000 3151.461019 56.137875
56.780000 3192.297441 56.500420
56.784000 3157.768115 56.194022
56.788000 3219.798216 56.743266
56.792000 3143.069823 56.063088
56.796000 3146.780240 56.096170
56.800000 3132.894061 55.972262
56.804000 3224.181876 56.781880
56.808000 3167.276800 56.278564
56.812000 3117.571525 55.835218
56.816000 3219.585988 56.741396
56.820000 3208.915245 56.647288
56.824000 3218.477411 56.731626
56.828000 3228.124949 56.816590
56.832000 3192.200843 56.499565
56.836000 3243.133504 56.948516
56.840000 3188.905384 56.470394
56.844000 3278.786976 57.260693
56.848000 3204.600246 56.609189
56.852000 3229.315378 56.827066
56.856000 3195.942780 56.532670
56.860000 3290.711129 57.364720
56.864000 3187.567035 56.458543
56.868000 3084.906716 55.541937
56.872000 3110.131628 55.768554
56.876000 3153.466951 56.155738
56.880000 3165.987207 56.267106
56.884000 3210.272921 56.659270
56.888000 3241.952038 56.938142
56.892000 3206.514925 56.626098
56.896000 3190.438166 56.483964
56.900000 3249.704158 57.006176
56.904000 3233.110874 56.860451
56.908000 3167.352878 56.279240
56.912000 3210.487207 56.661161
56.916000 3347.421642 57.856907
56.920000 3295.839552 57.409403
56.924000 3244.268657 56.958482
56.928000 3368.047441 58.034881
56.932000 3371.037846 58.060639
56.936000 3215.004264 56.701008
56.940000 3336.301706 57.760728
56.944000 3155.921109 56.177585
56.948000 3275.817164 57.234755
56.952000 3182.893390 56.417137
56.956000 3188.918977 56.470514
56.960000 3245.137297 56.966107
56.964000 3278.767591 57.260524
56.968000 3112.695096 55.791532
56.972000 3293.019190 57.384834
56.976000 3287.142857 57.333610
56.980000 3304.545455 57.485176
56.984000 3266.799041 57.155919
56.988000 3311.295842 57.543860
56.992000 3244.808318 56.963219
56.996000 3266.801706 57.155942
57.000000 3184.500000 56.431374
57.004000 3248.376966 56.994535
57.008000 3275.847015 57.235016
57.012000 3266.946947 57.157213
57.016000 3364.567164 58.004889
57.020000 3282.276652 57.291157
57.024000 3181.258864 56.402649
57.028000 3383.236674 58.165597
57.032000 3283.360704 57.300617
57.036000 3336.975480 57.766560
57.040000 3312.808851 57.557005
57.044000 3200.343908 56.571582
57.048000 3223.663646 56.777316
57.052000 3322.067182 57.637377
57.056000 3345.648283 57.841579
57.060000 3239.339019 56.915191
57.064000 3203.474274 56.599243
57.068000 3243.045699 56.947745
57.072000 3249.473267 57.004151
57.076000 3252.057476 57.026814
57.080000 3060.561120 55.322338
57.084000 3136.008509 56.000076
57.088000 3206.440746 56.625443
57.092000 3165.514529 56.262905
57.096000 3260.543977 57.101173
57.100000 3193.314020 56.509415
57.104000 3129.108633 55.938436
57.108000 3169.186531 56.295529
57.112000 3144.573730 56.076499
57.116000 3088.591623 55.575099
57.120000 3078.990405 55.488651
57.124000 3155.145522 56.170682
57.128000 3148.839019 56.114517
57.132000 3031.051173 55.054983
57.136000 3042.885394 55.162355
57.140000 3221.897655 56.761762
57.144000 3174.517058 56.342853
57.148000 3092.413113 55.609470
57.152000 3156.473881 56.182505
57.156000 3187.444563 56.457458
57.160000 3180.311751 56.394253
57.164000 3164.916844 56.257594
57.168000 3108.098081 55.750319
57.172000 3069.701493 55.404887
57.176000 3150.303757 56.127567
57.180000 3136.558635 56.004988
57.184000 3146.404051 56.092816
57.188000 3178.687100 56.379847
57.192000 3092.844125 55.613345
57.196000 3105.540512 55.727377
57.200000 3232.167866 56.852158
57.204000 3132.697761 55.970508
57.208000 3054.205224 55.264864
57.212000 3196.187633 56.534836
57.216000 3058.253664 55.301480
57.220000 3093.737740 55.621378
57.224000 3038.694378 55.124354
57.228000 3155.289979 56.171968
57.232000 3210.718892 56.663206
57.236000 3188.586887 56.467574
57.240000 3181.408473 56.403976
57.244000 3114.496669 55.807676
57.248000 3065.496802 55.366929
57.252000 3086.004796 55.551821
57.256000 3081.812950 55.514079
57.260000 3119.002132 55.848027
57.264000 3017.432454 54.931161
57.268000 3183.486278 56.422392
57.272000 3211.299760 56.668331
57.276000 3282.090061 57.289528
57.280000 3078.453504 55.483813
57.284000 3072.412470 55.429347
57.288000 3109.481343 55.762724
57.292000 3048.086331 55.209477
57.296000 3146.770051 56.096079
57.300000 3127.292299 55.922199
57.304000 3122.611153 55.880329
57.308000 3099.218198 55.670622
57.312000 3209.418936 56.651734
57.316000 3169.097529 56.294738
57.320000 3120.889123 55.864919
57.324000 3138.421761 56.021619
57.328000 3113.776316 55.801221
57.332000 3148.732785 56.113570
57.336000 3164.327109 56.252352
57.340000 3056.839537 55.288693
57.344000 3052.774513 55.251919
57.348000 3170.863666 56.310422
57.352000 3105.148776 55.723862
57.356000 3147.997286 56.107016
57.360000 3182.128066 56.410354
57.364000 3194.061702 56.516030
57.368000 3167.205153 56.277928
57.372000 3191.718337 56.495295
57.376000 3220.863595 56.752653
57.380000 3209.005063 56.648081
57.384000 3224.519782 56.784855
57.388000 3193.939021 56.514945
57.392000 3099.672143 55.674699
57.396000 3184.594110 56.432208
57.400000 3234.494113 56.872613
57.404000 3230.333808 56.836026
57.408000 3227.761998 56.813396
57.412000 3185.425129 56.439571
57.416000 3161.287687 56.225330
57.420000 3226.353961 56.801003
57.424000 3217.139235 56.719831
57.428000 3272.368239 57.204617
57.432000 3300.509159 57.450058
57.436000 3213.330477 56.686246
57.440000 3240.704960 56.927190
57.444000 3197.892406 56.549911
57.448000 3151.984045 56.142533
57.452000 3216.206993 56.711613
57.456000 3214.871372 56.699836
57.460000 3222.954436 56.771070
57.464000 3224.004691 56.780320
57.468000 3141.435310 56.048509
57.472000 3264.007185 57.131490
57.476000 3272.639655 57.206990
57.480000 3289.473607 57.353933
57.484000 3355.494108 57.926627
57.488000 3326.563549 57.676369
57.492000 3327.102079 57.681037
57.496000 3233.715147 56.865764
57.500000 3242.933724 56.946762
57.504000 3305.066258 57.489706
57.508000 3268.603975 57.171706
57.512000 3267.719688 57.163972
57.516000 3282.450880 57.292677
57.520000 3351.915179 57.895727
57.524000 3346.364979 57.847774
57.528000 3339.959550 57.792383
57.532000 3287.816038 57.339481
57.536000 3325.441733 57.666643
57.540000 3267.216870 57.159574
57.544000 3285.549154 57.319710
57.548000 3302.418346 57.466672
57.552000 3299.340895 57.439889
57.556000 3295.931712 57.410206
57.560000 3287.931699 57.340489
57.564000 3236.164533 56.887297
57.568000 3393.981491 58.257888
57.572000 3386.653693 58.194963
57.576000 3334.674625 57.746642
57.580000 3380.049689 58.138195
57.584000 3392.199733 58.242594
57.588000 3317.936114 57.601529
57.592000 3309.079072 57.524595
57.596000 3328.609032 57.694099
57.600000 3371.258660 58.062541
57.604000 3377.810124 58.118931
57.608000 3350.346830 57.882181
57.612000 3330.799366 57.713078
57.616000 3322.535941 57.641443
57.620000 3338.078538 57.776107
57.624000 3329.649707 57.703117
57.628000 3261.550197 57.109983
57.632000 3351.212882 57.889661
57.636000 3225.326025 56.791954
57.640000 3335.714438 57.755644
57.644000 3273.616506 57.215527
57.648000 3224.285703 56.782794
57.652000 3281.452433 57.283963
57.656000 3244.549841 56.960950
57.660000 3230.646572 56.838777
57.664000 3286.637693 57.329205
57.668000 3281.240697 57.282115
57.672000 3226.264770 56.800218
57.676000 3259.437134 57.091480
57.680000 3310.483313 57.536800
57.684000 3316.656100 57.590417
57.688000 3337.992740 57.775364
57.692000 3284.249080 57.308368
57.696000 3179.591354 56.387865
57.700000 3178.070311 56.374376
57.704000 3243.049014 56.947774
57.708000 3273.078221 57.210823
57.712000 3231.505842 56.846335
57.716000 3206.025214 56.621773
57.720000 3217.291422 56.721173
57.724000 3130.629584 55.952029
57.728000 3165.517445 56.262931
57.732000 3243.111983 56.948327
57.736000 3239.679491 56.918182
57.740000 3158.692016 56.202242
57.744000 3215.653280 56.706730
57.748000 3223.721828 56.777829
57.752000 3244.277273 56.958558
57.756000 3163.655861 56.246385
57.760000 3223.664435 56.777323
57.764000 3161.087786 56.223552
57.768000 3189.883327 56.479052
57.772000 3255.101758 57.053499
57.776000 3253.974146 57.043616
57.780000 3199.460758 56.563776
57.784000 3301.895092 57.462119
57.788000 3196.137394 56.534391
57.792000 3215.832093 56.708307
57.796000 3185.779870 56.442713
57.800000 3151.894555 56.141736
57.804000 3171.570747 56.316700
57.808000 3237.669730 56.900525
57.812000 3175.724264 56.353565
57.816000 3219.329099 56.739132
57.820000 3244.609854 56.961477
57.824000 3207.043977 56.630769
57.828000 3228.037586 56.815822
57.832000 3218.043430 56.727801
57.836000 3142.482179 56.057847
57.840000 3163.449800 56.244554
57.844000 3190.215346 56.481991
57.848000 3261.667636 57.111012
57.852000 3275.787750 57.234498
57.856000 3296.618566 57.416187
57.860000 3236.035364 56.886161
57.864000 3224.886818 56.788087
57.868000 3192.451710 56.501785
57.872000 3290.314470 57.361263
57.876000 3205.443675 56.616638
57.880000 3278.488864 57.258090
57.884000 3347.392448 57.856654
57.888000 3202.269241 56.588596
57.892000 3292.383013 57.379291
57.896000 3260.924368 57.104504
57.900000 3243.840443 56.954723
57.904000 3267.303595 57.160332
57.908000 3296.370189 57.414024
57.912000 3197.677611 56.548012
57.916000 3266.264528 57.151243
57.920000 3274.677399 57.224797
57.924000 3313.486130 57.562888
57.928000 3317.347803 57.596422
57.932000 3279.716781 57.268812
57.936000 3216.789348 56.716747
57.940000 3206.170705 56.623058
57.944000 3154.901381 56.168509
57.948000 3173.989382 56.338170
57.952000 3302.951652 57.471312
57.956000 3288.169997 57.342567
57.960000 3194.127183 56.516610
57.964000 3208.060186 56.639740
57.968000 3281.556428 57.284871
57.972000 3237.903469 56.902579
57.976000 3270.839414 57.191253
57.980000 3253.964305 57.043530
57.984000 3172.312370 56.323284
57.988000 3225.557923 56.793995
57.992000 3178.382034 56.377141
57.996000 3181.805844 56.407498
58.000000 3115.289373 55.814777
58.004000 3171.361119 56.314839
58.008000 3175.021996 56.347334
58.012000 3128.768228 55.935393
58.016000 3155.855249 56.176999
58.020000 3142.198483 56.055316
58.024000 3194.828420 56.522813
58.028000 3108.909188 55.757593
58.032000 3130.588628 55.951663
58.036000 3133.386270 55.976658
58.040000 3178.013373 56.373871
58.044000 3100.795404 55.684786
58.048000 3186.465982 56.448791
58.052000 3149.566560 56.120999
58.056000 3175.142271 56.348401
58.060000 3199.304159 56.562392
58.064000 3162.109711 56.232639
58.068000 3190.884455 56.487914
58.072000 3152.821924 56.149995
58.076000 3083.552476 55.529744
58.080000 3181.635517 56.405988
58.084000 3122.891863 55.882841
58.088000 3143.337374 56.065474
58.092000 3184.198860 56.428706
58.096000 3172.719915 56.326902
58.100000 3097.320904 55.653579
58.104000 3188.606428 56.467747
58.108000 3160.617667 56.219371
58.112000 3175.914803 56.355255
58.116000 3097.981333 55.659513
58.120000 3129.937004 55.945840
58.124000 3213.354100 56.686454
58.128000 3028.802137 55.034554
58.132000 3145.138338 56.081533
58.136000 3108.239084 55.751584
58.140000 3264.618787 57.136843
58.144000 3118.676518 55.845112
58.148000 3227.960227 56.815141
58.152000 3121.346113 55.869009
58.156000 3201.104581 56.578305
58.160000 3135.018349 55.991235
58.164000 3180.691558 56.397620
58.168000 3211.505059 56.670143
58.172000 3235.177805 56.878623
58.176000 3089.440189 55.582733
58.180000 3164.920660 56.257628
58.184000 3140.780674 56.042668
58.188000 3163.322151 56.243419
58.192000 3129.801971 55.944633
58.196000 3177.605964 56.370258
58.200000 3216.702246 56.715979
58.204000 3171.907603 56.319691
58.208000 3152.949148 56.151128
58.212000 3167.043664 56.276493
58.216000 3170.388179 56.306200
58.220000 3080.059696 55.498286
58.224000 3200.058307 56.569058
58.228000 3213.057508 56.683838
58.232000 3183.685636 56.424158
58.236000 3182.725613 56.415650
58.240000 3251.836812 57.024879
58.244000 3248.846267 56.998651
58.248000 3206.460064 56.625613
58.252000 3163.933383 56.248852
58.256000 3178.562784 56.378744
58.260000 3216.044196 56.710177
58.264000 3105.698730 55.728796
58.268000 3132.017572 55.964431
58.272000 3251.836466 57.024876
58.276000 3223.493829 56.775821
58.280000 3171.644302 56.317353
58.284000 3192.477589 56.502014
58.288000 3208.977146 56.647834
58.292000 3228.332801 56.818420
58.296000 3249.258961 57.002272
58.300000 3218.317673 56.730218
58.304000 3217.668530 56.724497
58.308000 3184.148789 56.428262
58.312000 3161.447551 56.226751
58.316000 3165.989326 56.267125
58.320000 3289.383388 57.353146
58.324000 3174.950869 56.346702
58.328000 3105.656550 55.728418
58.332000 3207.473022 56.634557
58.336000 3290.552087 57.363334
58.340000 3181.911105 56.408431
58.344000 3195.893237 56.532232
58.348000 3164.325226 56.252335
58.352000 3116.376974 55.824519
58.356000 3119.660908 55.853925
58.360000 3134.879029 55.989990
58.364000 3174.951037 56.346704
58.368000 3158.218539 56.198030
58.372000 3180.960169 56.400002
58.376000 3204.025234 56.604110
58.380000 3137.011306 56.009029
58.384000 3196.455949 56.537209
58.388000 3171.544530 56.316468
58.392000 3178.387737 56.377192
58.396000 3332.787274 57.730298
58.400000 3250.907529 57.016730
58.404000 3231.832901 56.849212
58.408000 3169.141241 56.295126
58.412000 3192.504126 56.502249
58.416000 3235.905735 56.885022
58.420000 3173.122533 56.330476
58.424000 3151.072132 56.134411
58.428000 3080.424183 55.501569
58.432000 3041.770625 55.152250
58.436000 3088.232899 55.571871
58.440000 3175.428211 56.350938
58.444000 3124.001698 55.892770
58.448000 3216.035134 56.710097
58.452000 3157.895216 56.195153
58.456000 3112.208411 55.787171
58.460000 3101.600701 55.692016
58.464000 3129.054733 55.937954
58.468000 3108.398707 55.753015
58.472000 3107.037264 55.740804
58.476000 3108.430336 55.753299
58.480000 3088.501996 55.574293
58.484000 3160.221263 56.215845
58.488000 3077.474847 55.474993
58.492000 3096.017059 55.641864
58.496000 3017.248495 54.929487
58.500000 3092.874992 55.613622
58.504000 3080.257652 55.500069
58.508000 3127.346366 55.922682
58.512000 3143.405377 56.066080
58.516000 3132.415977 55.967991
58.520000 3019.085669 54.946207
58.524000 3012.683560 54.887918
58.528000 3065.718925 55.368935
58.532000 3037.696833 55.115305
58.536000 3067.301271 55.383222
58.540000 3122.935055 55.883227
58.544000 3099.741815 55.675325
58.548000 3071.153006 55.417984
58.552000 3089.681677 55.584905
58.556000 3158.088368 56.196872
58.560000 3010.405914 54.867166
58.564000 3008.312750 54.848088
58.568000 3048.336705 55.211744
58.572000 3042.516902 55.159015
58.576000 3120.054953 55.857452
58.580000 3106.275486 55.733971
58.584000 2977.368379 54.565267
58.588000 3120.791514 55.864045
58.592000 3019.101145 54.946348
58.596000 3059.498004 55.312729
58.600000 3024.697756 54.997252
58.604000 3084.900985 55.541885
58.608000 3097.502278 55.655209
58.612000 3031.821932 55.061983
58.616000 3069.733032 55.405172
58.620000 3144.742099 56.078000
58.624000 3089.008919 55.578853
58.628000 3132.113921 55.965292
58.632000 3143.675007 56.068485
58.636000 3159.641994 56.210693
58.640000 3181.991779 56.409146
58.644000 3106.412187 55.735197
58.648000 3145.326058 56.083207
58.652000 3089.734737 55.585382
58.656000 3142.366250 56.056813
58.660000 3082.069383 55.516388
58.664000 3039.186585 55.128818
58.668000 3089.339731 55.581829
58.672000 3172.150918 56.321851
58.676000 3127.997015 55.928499
58.680000 3180.590631 56.396725
58.684000 3156.936385 56.186621
58.688000 3154.355653 56.163651
58.692000 3131.538195 55.960148
58.696000 3198.169597 56.552362
58.700000 3149.715464 56.122326
58.704000 3236.493513 56.890188
58.708000 3166.507852 56.271732
58.712000 3220.021602 56.745234
58.716000 3135.172035 55.992607
58.720000 3055.195486 55.273823
58.724000 3068.479973 55.393862
58.728000 3212.217727 56.676430
58.732000 3244.520398 56.960692
58.736000 3150.163589 56.126318
58.740000 3208.531541 56.643901
58.744000 3217.450091 56.722571
58.748000 3234.918372 56.876343
58.752000 3245.878127 56.972609
58.756000 3292.654245 57.381654
58.760000 3248.245099 56.993378
58.764000 3191.395688 56.492439
58.768000 3133.009848 55.973296
58.772000 3234.220282 56.870206
58.776000 3225.756795 56.795746
58.780000 3257.973915 57.078664
58.784000 3240.226815 56.922990
58.788000 3302.499734 57.467380
58.792000 3318.568539 57.607018
58.796000 3258.154973 57.080250
58.800000 3238.877380 56.911136
58.804000 3304.379723 57.483734
58.808000 3236.565535 56.890821
58.812000 3186.305558 56.447370
58.816000 3218.277009 56.729860
58.820000 3225.775353 56.795910
58.824000 3236.922433 56.893958
58.828000 3266.994146 57.157625
58.832000 3198.140900 56.552108
58.836000 3312.926302 57.558026
58.840000 3295.290604 57.404622
58.844000 3272.588025 57.206538
58.848000 3240.555349 56.925876
58.852000 3276.465797 57.240421
58.856000 3242.038813 56.938904
58.860000 3324.854710 57.661553
58.864000 3294.695583 57.399439
58.868000 3254.810538 57.050947
58.872000 3268.012714 57.166535
58.876000 3251.133286 57.018710
58.880000 3258.930814 57.087046
58.884000 3201.085293 56.578134
58.888000 3170.790580 56.309773
58.892000 3220.128826 56.746179
58.896000 3314.641554 57.572924
58.900000 3224.175093 56.781820
58.904000 3161.021965 56.222967
58.908000 3278.078653 57.254508
58.912000 3266.825971 57.156154
58.916000 3248.865312 56.998819
58.920000 3204.659539 56.609712
58.924000 3332.121774 57.724534
58.928000 3312.778073 57.556738
58.932000 3288.894682 57.348886
58.936000 3309.393827 57.527331
58.940000 3306.599787 57.503042
58.944000 3339.177111 57.785613
58.948000 3225.301756 56.791740
58.952000 3242.714666 56.944839
58.956000 3303.444918 57.475603
58.960000 3310.327036 57.535442
58.964000 3290.017822 57.358677
58.968000 3242.005854 56.938615
58.972000 3153.497605 56.156011
58.976000 3202.701028 56.592411
58.980000 3131.012773 55.955453
58.984000 3260.041144 57.096770
58.988000 3221.564130 56.758824
58.992000 3248.942523 56.999496
58.996000 3203.946458 56.603414
59.000000 3163.106972 56.241506
59.004000 3226.780734 56.804760
59.008000 3268.091871 57.167227
59.012000 3177.242682 56.367035
59.016000 3128.860564 55.936219
59.020000 3254.467536 57.047941
59.024000 3106.181480 55.733127
59.028000 3161.857610 56.230398
59.032000 3110.139436 55.768624
59.036000 3150.760511 56.131636
59.040000 3199.980680 56.568372
59.044000 3125.876264 55.909536
59.048000 3078.146354 55.481045
59.052000 3102.305767 55.698346
59.056000 3077.359766 55.473956
59.060000 3089.506652 55.583331
59.064000 3082.585418 55.521036
59.068000 3118.398473 55.842622
59.072000 3211.551623 56.670553
59.076000 3125.640234 55.907426
59.080000 3124.624268 55.898339
59.084000 3127.906333 55.927688
59.088000 3111.319851 55.779206
59.092000 3140.074508 56.036368
59.096000 3122.458259 55.878961
59.100000 2974.411655 54.538167
59.104000 3065.338478 55.365499
59.108000 3125.380255 55.905100
59.112000 3036.908462 55.108152
59.116000 3053.250481 55.256226
59.120000 3011.288893 54.875212
59.124000 3018.907930 54.944590
59.128000 3066.495210 55.375944
59.132000 3089.470729 55.583008
59.136000 3047.591804 55.204998
59.140000 3085.593310 55.548117
59.144000 3043.122672 55.164506
59.148000 3045.466205 55.185743
59.152000 3015.116817 54.910079
59.156000 3046.691857 55.196846
59.160000 3011.895980 54.880743
59.164000 3058.165892 55.300686
59.168000 3073.043108 55.435035
59.172000 3088.180947 55.571404
59.176000 3097.015966 55.650840
59.180000 3002.853646 54.798300
59.184000 3083.361362 55.528023
59.188000 2997.294305 54.747551
59.192000 3034.262379 55.084139
59.196000 3062.776764 55.342360
59.200000 3073.058542 55.435174
59.204000 3033.633848 55.078434
59.208000 3109.957158 55.766990
59.212000 3147.949175 56.106588
59.216000 3196.015966 56.533317
59.220000 3096.910591 55.649893
59.224000 3192.202998 56.499584
59.228000 3081.296966 55.509431
59.232000 3059.525279 55.312976
59.236000 3113.983768 55.803080
59.240000 3139.149814 56.028116
59.244000 3087.949707 55.569323
59.248000 3094.058488 55.624262
59.252000 3091.461948 55.600917
59.256000 3113.166578 55.795758
59.260000 3087.278033 55.563280
59.264000 3074.748004 55.450410
59.268000 3043.439329 55.167376
59.272000 3051.726202 55.242431
59.276000 3155.605109 56.174773
59.280000 3126.489622 55.915021
59.284000 3056.085152 55.281870
59.288000 3108.566791 55.754523
59.292000 3048.822246 55.216141
59.296000 3002.591564 54.795908
59.300000 3087.545769 55.565689
59.304000 3078.366418 55.483028
59.308000 3054.069452 55.263636
59.312000 2991.590158 54.695431
59.316000 3074.785991 55.450753
59.320000 3170.489888 56.307103
59.324000 3129.629590 55.943092
59.328000 3122.031400 55.875141
59.332000 2997.926024 54.753320
59.336000 3096.494297 55.646153
59.340000 3060.819053 55.324669
59.344000 3090.039649 55.588125
59.348000 3029.175359 55.037945
59.352000 3053.592336 55.259319
59.356000 3143.943788 56.070882
59.360000 3095.079031 55.633434
59.364000 3069.431346 55.402449
59.368000 3062.418308 55.339121
59.372000 3086.791378 55.558900
59.376000 3102.737958 55.702226
59.380000 3089.873713 55.586633
59.384000 2916.406333 54.003762
59.388000 3084.695051 55.540031
59.392000 3028.028739 55.027527
59.396000 3032.071769 55.064251
59.400000 3070.606173 55.413051
59.404000 3027.785524 55.025317
59.408000 3031.666312 55.060569
59.412000 3010.356040 54.866712
59.416000 3031.173277 55.056092
59.420000 2973.231628 54.527348
59.424000 3021.569452 54.968804
59.428000 3063.811868 55.351711
59.432000 3030.679621 55.051609
59.436000 3020.563864 54.959657
59.440000 3026.794838 55.016314
59.444000 3061.313731 55.329140
59.448000 3022.594199 54.978125
59.452000 2959.136472 54.397945
59.456000 2965.574774 54.457091
59.460000 2991.282331 54.692617
59.464000 2959.976583 54.405667
59.468000 3002.052155 54.790986
59.472000 3089.342541 55.581854
59.476000 3001.470062 54.785674
59.480000 2998.460085 54.758197
59.484000 3047.641831 55.205451
59.488000 3025.571847 55.005198
59.492000 2988.098723 54.663504
59.496000 3000.922831 54.780679
59.500000 3039.717403 55.133632
59.504000 3043.150701 55.164760
59.508000 2998.788941 54.761199
59.512000 2992.161256 54.700651
59.516000 3100.922299 55.685926
59.520000 3025.235764 55.002143
59.524000 2977.275220 54.564413
59.528000 2978.926609 54.579544
59.532000 2988.898350 54.670818
59.536000 2994.158063 54.718900
59.540000 3017.180947 54.928872
59.544000 3077.687068 55.476906
59.548000 3006.111732 54.828020
59.552000 2952.093135 54.333168
59.556000 2930.873337 54.137541
59.560000 2992.173497 54.700763
59.564000 2978.492757 54.575569
59.568000 2956.321181 54.372063
59.572000 2980.414926 54.593177
59.576000 3062.793773 55.342513
59.580000 2965.705961 54.458296
59.584000 2961.062606 54.415647
59.588000 2895.420992 53.809116
59.592000 2915.725386 53.997457
59.596000 2936.635977 54.190737
59.600000 2997.745077 54.751667
59.604000 3019.675891 54.951578
59.608000 3046.762969 55.197491
59.612000 3002.574774 54.795755
59.616000 2984.201703 54.627847
59.620000 3050.974987 55.235631
59.624000 2960.865886 54.413839
59.628000 2978.638357 54.576903
59.632000 2984.171322 54.627569
59.636000 3007.772751 54.843165
59.640000 3021.773816 54.970663
59.644000 3080.848324 55.505390
59.648000 3055.294761 55.274721
59.652000 3067.135522 55.381726
59.656000 3043.037520 55.163734
59.660000 2925.499202 54.087884
59.664000 3004.567855 54.813939
59.668000 2968.599781 54.484858
59.672000 2953.782065 54.348708
59.676000 2989.349116 54.674940
59.680000 3017.303885 54.929991
59.684000 3015.317722 54.911909
59.688000 2957.439591 54.382346
59.692000 2975.816658 54.551046
59.696000 3049.180149 55.219382
59.700000 3112.387706 55.788778
59.704000 3021.107209 54.964600
59.708000 3024.849122 54.998628
59.712000 3029.314795 55.039211
59.716000 3011.986163 54.881565
59.720000 3013.536722 54.895689
59.724000 2968.052310 54.479834
59.728000 2972.799095 54.523381
59.732000 3010.659659 54.869478
59.736000 3042.976021 55.163176
59.740000 3085.633582 55.548480
59.744000 3021.701539 54.970006
59.748000 2952.463544 54.336576
59.752000 3030.912720 55.053726
59.756000 2963.224588 54.435509
59.760000 2993.865886 54.716231
59.764000 3078.231112 55.481809
59.768000 3042.372805 55.157708
59.772000 3054.723766 55.269556
59.776000 3015.014369 54.909146
59.780000 3033.167977 55.074204
59.784000 2980.521554 54.594153
59.788000 2961.768228 54.422130
59.792000 2991.675359 54.696210
59.796000 3028.696115 55.033591
59.800000 3068.748309 55.396284
59.804000 2981.493880 54.603057
59.808000 3008.352847 54.848453
59.812000 2979.244013 54.582452
59.816000 3031.653273 55.060451
59.820000 2987.387689 54.657000
59.824000 2938.088079 54.204133
59.828000 3008.642895 54.851097
59.832000 2909.996816 53.944386
59.836000 2911.358110 53.957002
59.840000 2963.304683 54.436244
59.844000 3048.349920 55.211864
59.848000 3005.881586 54.825921
59.852000 3055.785790 55.279162
59.856000 2969.448643 54.492648
59.860000 3001.625586 54.787093
59.864000 3035.221927 55.092848
59.868000 3011.227781 54.874655
59.872000 3006.291112 54.829655
59.876000 2990.653539 54.686868
59.880000 2908.852581 53.933780
59.884000 2878.822287 53.654658
59.888000 3020.959819 54.963259
59.892000 2960.524215 54.410699
59.896000 2956.258914 54.371490
59.900000 2997.526876 54.749675
59.904000 2933.994118 54.166356
59.908000 2963.437467 54.437464
59.912000 2946.649282 54.283048
59.916000 3002.135973 54.791751
59.920000 2945.298031 54.270600
59.924000 2963.445716 54.437540
59.928000 2953.856839 54.349396
59.932000 2990.485412 54.685331
59.936000 2913.376796 53.975706
59.940000 2954.219798 54.352735
59.944000 3005.943055 54.826481
59.948000 3000.627728 54.777986
59.952000 2983.189462 54.618582
59.956000 2951.375274 54.326561
59.960000 3043.614156 55.168960
59.964000 3000.783928 54.779412
59.968000 3080.539164 55.502605
59.972000 3004.799894 54.816055
59.976000 2982.469931 54.611994
59.980000 2973.099521 54.526136
59.984000 2968.301756 54.482123
59.988000 2967.071847 54.470835
59.992000 3021.420376 54.967448
59.996000 2976.148483 54.554088
60.000000 3048.541880 55.213602
60.004000 3012.434274 54.885647
60.008000 3051.589409 55.241193
60.012000 3064.851783 55.361104
60.016000 2972.849122 54.523840
60.020000 3050.115221 55.227848
60.024000 3007.535218 54.840999
60.028000 3024.849162 54.998629
60.032000 3046.908462 55.198809
60.036000 3072.936668 55.434075
60.040000 3076.577435 55.466904
60.044000 2978.646088 54.576974
60.048000 2971.777167 54.514009
60.052000 2991.980043 54.698995
60.056000 2973.723523 54.531858
60.060000 3013.325162 54.893763
60.064000 3029.506652 55.040954
60.068000 2976.494944 54.557263
60.072000 2999.266631 54.765561
60.076000 3040.251197 55.138473
60.080000 3105.024124 55.722743
60.084000 3031.110165 55.055519
60.088000 3096.578765 55.646912
60.092000 3020.618680 54.960155
60.096000 2998.178335 54.755624
60.100000 3029.526876 55.041138
60.104000 2972.283129 54.518649
60.108000 3051.122052 55.236963
60.112000 2988.553220 54.667662
60.116000 3022.934806 54.981222
60.120000 3040.129247 55.137367
60.124000 3025.527940 55.004799
60.128000 2955.546567 54.364939
60.132000 3028.693959 55.033571
60.136000 3063.827036 55.351848
60.140000 3084.243773 55.535968
60.144000 3122.098563 55.875742
60.148000 3060.509313 55.321870
60.152000 3024.565194 54.996047
60.156000 3043.971572 55.172199
60.160000 3036.790580 55.107083
60.164000 3116.234547 55.823244
60.168000 3112.664715 55.791260
60.172000 3104.208622 55.715425
60.176000 3118.963278 55.847679
60.180000 3075.587280 55.457978
60.184000 3131.642460 55.961080
60.188000 3103.571581 55.709708
60.192000 3076.535631 55.466527
60.196000 3003.145024 54.800958
60.200000 3152.924449 56.150908
60.204000 3163.517829 56.245158
60.208000 3132.191554 55.965986
60.212000 3160.425699 56.217664
60.216000 3163.732837 56.247070
60.220000 3149.473924 56.120174
60.224000 3087.543906 55.565672
60.228000 3167.300947 56.278779
60.232000 3164.594997 56.254733
60.236000 3155.395157 56.172904
60.240000 3158.880970 56.203923
60.244000 3206.341829 56.624569
60.248000 3134.466889 55.986310
60.252000 3247.118680 56.983495
60.256000 3183.901021 56.426067
60.260000 3259.704630 57.093823
60.264000 3115.296780 55.814844
60.268000 3129.479372 55.941750
60.272000 3128.703832 55.934818
60.276000 3242.148567 56.939868
60.280000 3254.901011 57.051740
60.284000 3208.467696 56.643338
60.288000 3233.173763 56.861004
60.292000 3171.185520 56.313280
60.296000 3230.428444 56.836858
60.300000 3159.125270 56.206096
60.304000 3164.678020 56.255471
60.308000 3224.065233 56.780853
60.312000 3220.949694 56.753411
60.316000 3077.125599 55.471845
60.320000 3225.269478 56.791456
60.324000 3171.429864 56.315450
60.328000 3129.023949 55.937679
60.332000 3181.576440 56.405465
60.336000 3209.707267 56.654278
60.340000 3179.564287 56.387625
60.344000 3125.780317 55.908678
60.348000 3138.364008 56.021103
60.352000 3173.648459 56.335144
60.356000 3244.634884 56.961697
60.360000 3153.344430 56.154647
60.364000 3122.991428 55.883731
60.368000 3146.319589 56.092064
60.372000 3192.127093 56.498912
60.376000 3176.626620 56.361570
60.380000 3178.913495 56.381854
60.384000 3152.401011 56.146247
60.388000 3179.748736 56.389261
60.392000 3174.480162 56.342525
60.396000 3143.003473 56.062496
60.400000 3108.248603 55.751669
60.404000 3115.732837 55.818750
60.408000 3097.838350 55.658228
60.412000 3057.240884 55.292322
60.416000 3101.178796 55.688229
60.420000 3082.405594 55.519416
60.424000 3170.812883 56.309971
60.428000 3078.441571 55.483705
60.432000 3091.735328 55.603375
60.436000 3157.313599 56.189978
60.440000 3076.992805 55.470648
60.444000 3062.476178 55.339644
60.448000 3015.199095 54.910829
60.452000 3043.473293 55.167683
60.456000 3013.106734 54.891773
60.460000 2984.618630 54.631663
60.464000 3008.586638 54.850585
60.468000 3064.229179 55.355480
60.472000 3088.737823 55.576414
60.476000 3065.628490 55.368118
60.480000 3001.139291 54.782655
60.484000 3019.933724 54.953924
60.488000 3059.046010 55.308643
60.492000 3075.728507 55.459251
60.496000 3055.092893 55.272895
60.500000 3013.851717 54.898558
60.504000 3088.149587 55.571122
60.508000 3079.924655 55.497069
60.512000 3029.296410 55.039044
60.516000 3095.654512 55.638606
60.520000 3125.129204 55.902855
60.524000 3087.364919 55.564061
60.528000 2993.170125 54.709872
60.532000 2987.431727 54.657403
60.536000 3078.264307 55.482108
60.540000 3067.545292 55.385425
60.544000 2975.182060 54.545229
60.548000 3052.753176 55.251726
60.552000 3010.812523 54.870871
60.556000 2998.527549 54.758813
60.560000 2954.687686 54.357039
60.564000 2955.175672 54.361527
60.568000 3046.504658 55.195151
60.572000 3067.786930 55.387606
60.576000 3126.519031 55.915284
60.580000 3028.912234 55.035554
60.584000 2969.710940 54.495054
60.588000 3036.125394 55.101047
60.592000 3022.062286 54.973287
60.596000 3012.794251 54.888926
60.600000 3004.422026 54.812608
60.604000 3004.200958 54.810592
60.608000 2992.677723 54.705372
60.612000 3044.064147 55.173038
60.616000 3026.932393 55.017564
60.620000 3013.783823 54.897940
60.624000 2999.211457 54.765057
60.628000 3091.356135 55.599965
60.632000 3014.216721 54.901883
60.636000 3166.873989 56.274985
60.640000 3041.974528 55.154098
60.644000 3066.433058 55.375383
60.648000 3069.147192 55.399884
60.652000 3053.519941 55.258664
60.656000 3055.267767 55.274477
60.660000 3060.714543 55.323725
60.664000 3038.412829 55.121800
60.668000 3029.413362 55.040107
60.672000 3051.322790 55.238780
60.676000 3057.884482 55.298142
60.680000 3076.720823 55.468196
60.684000 3130.047112 55.946824
60.688000 3208.878180 56.646961
60.692000 3191.010913 56.489034
60.696000 3009.704230 54.860771
60.700000 3082.056694 55.516274
60.704000 2998.865506 54.761898
60.708000 3087.434335 55.564686
60.712000 3087.009848 55.560866
60.716000 3038.605074 55.123544
60.720000 3066.932393 55.379892
60.724000 3120.614947 55.862465
60.728000 3114.109232 55.804204
60.732000 3200.773210 56.575376
60.736000 3134.411359 55.985814
60.740000 2998.776950 54.761090
60.744000 3090.693199 55.594003
60.748000 3072.151603 55.426993
60.752000 3084.253811 55.536059
60.756000 3099.705882 55.675002
60.760000 3070.623880 55.413210
60.764000 2972.592980 54.521491
60.768000 3007.309105 54.838938
60.772000 3060.055629 55.317770
60.776000 2939.557250 54.217684
60.780000 3019.000303 54.945430
60.784000 3038.783253 55.125160
60.788000 2955.136441 54.361167
60.792000 3013.619077 54.896440
60.796000 2928.521299 54.115814
60.800000 3074.852789 55.451355
60.804000 3081.989522 55.515669
60.808000 3011.154501 54.873987
60.812000 3001.475675 54.785725
60.816000 3018.810778 54.943706
60.820000 3051.449099 55.239923
60.824000 3028.882395 55.035283
60.828000 2987.724726 54.660083
60.832000 2971.236175 54.509047
60.836000 3047.663605 55.205648
60.840000 3038.789584 55.125217
60.844000 2971.320117 54.509817
60.848000 3009.764909 54.861324
60.852000 3093.196344 55.616511
60.856000 3028.283245 55.029840
60.860000 3065.058040 55.362966
60.864000 3007.153126 54.837516
60.868000 3034.531676 55.086583
60.872000 3031.380192 55.057971
60.876000 3082.995172 55.524726
60.880000 2997.256124 54.747202
60.884000 3005.186526 54.819582
60.888000 2982.879925 54.615748
60.892000 2929.172329 54.121829
60.896000 3040.264909 55.138597
60.900000 2996.811632 54.743142
60.904000 2923.361442 54.068119
60.908000 3022.269436 54.975171
60.912000 3075.603324 55.458122
60.916000 3054.873802 55.270913
60.920000 3082.841503 55.523342
60.924000 3047.308310 55.202430
60.928000 2980.085341 54.590158
60.932000 3022.214058 54.974667
60.936000 3075.023255 55.452892
60.940000 3046.048988 55.191023
60.944000 3084.054047 55.534260
60.948000 3064.773570 55.360397
60.952000 3133.670909 55.979201
60.956000 3103.122471 55.705677
60.960000 3078.729567 55.486301
60.964000 3171.646965 56.317377
60.968000 3119.748697 55.854711
60.972000 3154.641293 56.166194
60.976000 2980.540829 54.594330
60.980000 3053.571885 55.259134
60.984000 3039.831140 55.134664
60.988000 3064.298190 55.356103
60.992000 3062.049797 55.335791
60.996000 3100.183167 55.679288
61.000000 3095.327873 55.635671



;
_cod_data_source_file            K2ZrF6-form-VI-327K.cif
_cod_data_source_block           K2ZrF6-form-VI-327K
_cod_depositor_comments
;
The following automatic conversions were performed:

'_symmetry_cell_setting' value 'Orthorhombic' changed to
'orthorhombic' according to the built-in table from CIF Core
dictionary named 'cif_core.dic' version 2.4.1 from 2010-06-29.

Automatic conversion script
Id: cif_fix_values 4624 2016-04-14 12:54:50Z antanas 
;
_cod_database_code               3500046
_pd_proc_ls_prof_cr_factor       14.8546
_pd_proc_ls_prof_cwr_factor      13.7194
_pd_proc_ls_prof_cwr_expected    3.9796
_pd_proc_ls_prof_chi2            11.8845
_pd_proc_ls_prof_echi2           12.3535
loop_
_publ_manuscript_incl_extra_item
_publ_manuscript_incl_extra_info
_publ_manuscript_incl_extra_defn
'_pd_proc_ls_prof_cR_factor' 'Prof. R-factor CORRECTED for background' no
'_pd_proc_ls_prof_cwR_factor' 'wProf.R-factor CORRECTED for background' no
'_pd_proc_ls_prof_cwR_expected' 'wProf.Expected CORRECTED for background' no
'_pd_proc_ls_prof_chi2' 'Chi-square for all considered points' no
'_pd_proc_ls_prof_echi2' 'Chi-2 for points with Bragg contribution' no
loop_
_symmetry_equiv_pos_as_xyz
x,y,z
x,-y,-z
-x,y,-z+1/2
-x,-y,z+1/2
-x,-y,-z
-x,y,z
x,-y,z+1/2
x,y,-z+1/2
x+1/2,y+1/2,z
x+1/2,-y+1/2,-z
-x+1/2,y+1/2,-z+1/2
-x+1/2,-y+1/2,z+1/2
-x+1/2,-y+1/2,-z
-x+1/2,y+1/2,z
x+1/2,-y+1/2,z+1/2
x+1/2,y+1/2,-z+1/2
loop_
_atom_site_label
_atom_site_fract_x
_atom_site_fract_y
_atom_site_fract_z
_atom_site_U_iso_or_equiv
_atom_site_occupancy
_atom_site_adp_type
_atom_site_type_symbol
ZR1 0.50000 0.87239(9) 0.03589(10) 0.0255(7) 1.00000 Uiso Zr
ZR2 0.50000 0.30631(12) 0.75000 0.0141(9) 1.00000 Uiso Zr
ZR3 0.50000 0.50675(17) 0.75000 0.0750(15) 1.00000 Uiso Zr
K1 0.00000 0.77150(18) 0.3445(2) 0.0410(16) 1.00000 Uiso K
K2 0.00000 0.18648(20) 0.0543(2) 0.0447(18) 1.00000 Uiso K
K3 0.50000 0.0662(2) 0.3513(2) 0.0671(18) 1.00000 Uiso K
K4 0.00000 0.00000 0.00000 0.121(4) 1.00000 Uiso K
K5 0.50000 0.1141(3) 0.75000 0.086(3) 1.00000 Uiso K
F1 0.3009(11) 0.8246(4) 0.4149(3) 0.128(4) 1.00000 Uiso F
F2 0.2239(9) 0.5888(3) 0.0241(3) 0.063(3) 1.00000 Uiso F
F3 0.2033(7) 0.8255(3) 0.8290(2) 0.027(2) 1.00000 Uiso F
F4 0.3021(13) 0.2214(4) 0.75000 0.050(4) 1.00000 Uiso F
F5 0.00000 0.5580(5) 0.9027(5) 0.088(4) 1.00000 Uiso F
F6 0.50000 0.8054(6) -0.0308(6) 0.142(6) 1.00000 Uiso F
F7 0.775(2) 0.5056(8) 0.75000 0.413(14) 1.00000 Uiso F
F8 0.50000 0.5046(5) 0.6483(7) 0.154(6) 1.00000 Uiso F
F9 0.50000 0.5994(8) 0.75000 0.160(10) 1.00000 Uiso F
F10 0.50000 0.4056(6) 0.75000 0.052(5) 1.00000 Uiso F
loop_
_atom_type_symbol
_atom_type_scat_Cromer_Mann_a1
_atom_type_scat_Cromer_Mann_b1
_atom_type_scat_Cromer_Mann_a2
_atom_type_scat_Cromer_Mann_b2
_atom_type_scat_Cromer_Mann_a3
_atom_type_scat_Cromer_Mann_b3
_atom_type_scat_Cromer_Mann_a4
_atom_type_scat_Cromer_Mann_b4
_atom_type_scat_Cromer_Mann_c
_atom_type_scat_dispersion_real
_atom_type_scat_dispersion_imag
_atom_type_scat_source
F 3.63220 5.27756 3.51057 14.73530 1.26064 0.44226 0.94071 47.34370 0.65340
0.02400 0.01000
International_Tables_for_Crystallography_Vol.C(1991)_Tables_6.1.1.4_and_6.1.1.5
Zr 18.16680 1.21480 10.05620 10.14830 1.01118 21.60540 -2.64790 -0.10276
9.41454 -1.44700 0.74000
International_Tables_for_Crystallography_Vol.C(1991)_Tables_6.1.1.4_and_6.1.1.5
K 7.95780 12.63310 7.49170 0.76740 6.35900 -0.00200 1.19150 31.91280 -4.99780
0.24600 0.33500
International_Tables_for_Crystallography_Vol.C(1991)_Tables_6.1.1.4_and_6.1.1.5
loop_
_geom_angle_atom_site_label_1
_geom_angle_atom_site_label_2
_geom_angle_atom_site_label_3
_geom_angle
_geom_angle_site_symmetry_1
_geom_angle_site_symmetry_3
F1 ZR1 F1 85.2(5) 3_655 8_555
F1 ZR1 F2 91.8(5) 3_655 10_565
F1 ZR1 F2 171.5(6) 3_655 13_565
F1 ZR1 F5 93.9(7) 3_655 10_566
F1 ZR1 F6 88.6(7) 3_655 1_555
F1 ZR1 F2 171.5(6) 8_555 10_565
F1 ZR1 F2 91.8(5) 8_555 13_565
F1 ZR1 F5 93.9(7) 8_555 10_566
F1 ZR1 F6 88.6(7) 8_555 1_555
F2 ZR1 F2 90.1(4) 10_565 13_565
F2 ZR1 F5 94.3(6) 10_565 10_566
F2 ZR1 F6 83.3(6) 10_565 1_555
F2 ZR1 F5 94.3(6) 13_565 10_566
F2 ZR1 F6 83.3(6) 13_565 1_555
F5 ZR1 F6 176.6(11) 10_566 1_555
F3 ZR2 F3 157.9(4) 9_545 11_546
F3 ZR2 F3 77.9(3) 9_545 14_545
F3 ZR2 F3 97.8(3) 9_545 16_546
F3 ZR2 F4 121.5(5) 9_545 1_555
F3 ZR2 F4 77.7(4) 9_545 3_656
F3 ZR2 F10 79.0(5) 9_545 1_555
F3 ZR2 F3 97.8(3) 11_546 14_545
F3 ZR2 F3 77.9(3) 11_546 16_546
F3 ZR2 F4 77.7(4) 11_546 1_555
F3 ZR2 F4 121.5(5) 11_546 3_656
F3 ZR2 F10 79.0(5) 11_546 1_555
F3 ZR2 F3 157.9(4) 14_545 16_546
F3 ZR2 F4 77.7(4) 14_545 1_555
F3 ZR2 F4 121.5(5) 14_545 3_656
F3 ZR2 F10 79.0(5) 14_545 1_555
F3 ZR2 F4 121.5(5) 16_546 1_555
F3 ZR2 F4 77.7(4) 16_546 3_656
F3 ZR2 F10 79.0(5) 16_546 1_555
F4 ZR2 F4 71.7(5) 1_555 3_656
F4 ZR2 F10 144.2(2) 1_555 1_555
F4 ZR2 F10 144.2(2) 3_656 1_555
F7 ZR3 F7 178.5(13) 1_555 3_656
F7 ZR3 F8 89.98(1) 1_555 1_555
F7 ZR3 F8 89.98(1) 1_555 3_656
F7 ZR3 F9 90.8(5) 1_555 1_555
F7 ZR3 F10 89.2(9) 1_555 1_555
F7 ZR3 F8 89.98(1) 3_656 1_555
F7 ZR3 F8 89.98(1) 3_656 3_656
F7 ZR3 F9 90.8(5) 3_656 1_555
F7 ZR3 F10 89.2(9) 3_656 1_555
F8 ZR3 F8 177.5(12) 1_555 3_656
F8 ZR3 F9 91.3(3) 1_555 1_555
F8 ZR3 F10 88.7(3) 1_555 1_555
F8 ZR3 F9 91.3(3) 3_656 1_555
F8 ZR3 F10 88.7(3) 3_656 1_555
F9 ZR3 F10 180.0(13) 1_555 1_555
F1 K1 F1 94.8(4) 1_555 6_555
F1 K1 F3 81.8(3) 1_555 12_564
F1 K1 F3 149.8(4) 1_555 15_464
F1 K1 F4 79.5(3) 1_555 2_566
F1 K1 F4 151.0(4) 1_555 4_564
F1 K1 F6 77.3(4) 1_555 12_565
F1 K1 F9 87.8(4) 1_555 10_466
F1 K1 F3 149.8(4) 6_555 12_564
F1 K1 F3 81.8(3) 6_555 15_464
F1 K1 F4 151.0(4) 6_555 2_566
F1 K1 F4 79.5(3) 6_555 4_564
F1 K1 F6 77.3(4) 6_555 12_565
F1 K1 F9 87.8(4) 6_555 10_466
F3 K1 F3 86.3(3) 12_564 15_464
F3 K1 F4 58.1(3) 12_564 2_566
F3 K1 F4 117.0(4) 12_564 4_564
F3 K1 F6 72.6(4) 12_564 12_565
F3 K1 F9 121.9(6) 12_564 10_466
F3 K1 F4 117.0(4) 15_464 2_566
F3 K1 F4 58.1(3) 15_464 4_564
F3 K1 F6 72.6(4) 15_464 12_565
F3 K1 F9 121.9(6) 15_464 10_466
F4 K1 F4 91.8(4) 2_566 4_564
F4 K1 F6 127.8(5) 2_566 12_565
F4 K1 F9 63.7(4) 2_566 10_466
F4 K1 F6 127.8(5) 4_564 12_565
F4 K1 F9 63.7(4) 4_564 10_466
F6 K1 F9 157.8(7) 12_565 10_466
F1 K2 F1 69.8(3) 4_564 7_564
F1 K2 F1 116.5(4) 4_564 11_545
F1 K2 F1 89.3(3) 4_564 16_445
F1 K2 F2 53.5(2) 4_564 9_445
F1 K2 F2 98.1(3) 4_564 14_545
F1 K2 F3 169.2(3) 4_564 2_566
F1 K2 F3 115.0(3) 4_564 5_566
F1 K2 F6 47.2(2) 4_564 2_465
F1 K2 F6 116.8(3) 4_564 2_565
F1 K2 F6 66.1(4) 4_564 9_445
F1 K2 F1 89.3(3) 7_564 11_545
F1 K2 F1 116.5(4) 7_564 16_445
F1 K2 F2 98.1(3) 7_564 9_445
F1 K2 F2 53.5(2) 7_564 14_545
F1 K2 F3 115.0(3) 7_564 2_566
F1 K2 F3 169.2(3) 7_564 5_566
F1 K2 F6 116.8(3) 7_564 2_465
F1 K2 F6 47.2(2) 7_564 2_565
F1 K2 F6 66.1(4) 7_564 9_445
F1 K2 F1 47.2(3) 11_545 16_445
F1 K2 F2 163.2(4) 11_545 9_445
F1 K2 F2 116.2(4) 11_545 14_545
F1 K2 F3 73.8(3) 11_545 2_566
F1 K2 F3 96.5(3) 11_545 5_566
F1 K2 F6 112.1(3) 11_545 2_465
F1 K2 F6 65.5(3) 11_545 2_565
F1 K2 F6 50.8(4) 11_545 9_445
F1 K2 F2 116.2(4) 16_445 9_445
F1 K2 F2 163.2(4) 16_445 14_545
F1 K2 F3 96.5(3) 16_445 2_566
F1 K2 F3 73.8(3) 16_445 5_566
F1 K2 F6 65.5(3) 16_445 2_465
F1 K2 F6 112.1(3) 16_445 2_565
F1 K2 F6 50.8(4) 16_445 9_445
F2 K2 F2 80.1(3) 9_445 14_545
F2 K2 F3 115.8(3) 9_445 2_566
F2 K2 F3 78.8(3) 9_445 5_566
F2 K2 F6 51.0(2) 9_445 2_465
F2 K2 F6 130.0(3) 9_445 2_565
F2 K2 F6 118.9(5) 9_445 9_445
F2 K2 F3 78.8(3) 14_545 2_566
F2 K2 F3 115.8(3) 14_545 5_566
F2 K2 F6 130.0(3) 14_545 2_465
F2 K2 F6 51.0(2) 14_545 2_565
F2 K2 F6 118.9(5) 14_545 9_445
F3 K2 F3 58.6(2) 2_566 5_566
F3 K2 F6 127.8(3) 2_566 2_465
F3 K2 F6 69.2(3) 2_566 2_565
F3 K2 F6 124.5(5) 2_566 9_445
F3 K2 F6 69.2(3) 5_566 2_465
F3 K2 F6 127.8(3) 5_566 2_565
F3 K2 F6 124.5(5) 5_566 9_445
F6 K2 F6 162.46(5) 2_465 2_565
F6 K2 F6 82.9(4) 2_465 9_445
F6 K2 F6 82.9(4) 2_565 9_445
F2 K3 F2 59.5(2) 11_545 16_545
F2 K3 F3 108.8(3) 11_545 4_664
F2 K3 F3 71.8(3) 11_545 7_564
F2 K3 F5 80.6(4) 11_545 12_554
F2 K3 F7 115.3(4) 11_545 10_456
F2 K3 F7 157.7(5) 11_545 12_654
F2 K3 F3 71.8(3) 16_545 4_664
F2 K3 F3 108.8(3) 16_545 7_564
F2 K3 F5 80.6(4) 16_545 12_554
F2 K3 F7 157.7(5) 16_545 10_456
F2 K3 F7 115.3(4) 16_545 12_654
F3 K3 F3 79.6(2) 4_664 7_564
F3 K3 F5 139.1(5) 4_664 12_554
F3 K3 F7 127.3(6) 4_664 10_456
F3 K3 F7 88.0(5) 4_664 12_654
F3 K3 F5 139.1(5) 7_564 12_554
F3 K3 F7 88.0(5) 7_564 10_456
F3 K3 F7 127.3(6) 7_564 12_654
F5 K3 F7 77.1(4) 12_554 10_456
F5 K3 F7 77.1(4) 12_554 12_654
F7 K3 F7 60.1(5) 10_456 12_654
F2 K4 F2 94.0(3) 9_445 10_455
F2 K4 F2 180.0(4) 9_445 13_555
F2 K4 F2 86.0(3) 9_445 14_545
F2 K4 F8 99.2(5) 9_445 11_545
F2 K4 F8 80.8(5) 9_445 12_554
F2 K4 F2 86.0(3) 10_455 13_555
F2 K4 F2 180.0(4) 10_455 14_545
F2 K4 F8 80.8(5) 10_455 11_545
F2 K4 F8 99.2(5) 10_455 12_554
F2 K4 F2 94.0(3) 13_555 14_545
F2 K4 F8 80.8(5) 13_555 11_545
F2 K4 F8 99.2(5) 13_555 12_554
F2 K4 F8 99.2(5) 14_545 11_545
F2 K4 F8 80.8(5) 14_545 12_554
F8 K4 F8 180.0(9) 11_545 12_554
F4 K5 F4 59.5(4) 1_555 3_656
F4 K5 F5 108.1(5) 1_555 9_545
F4 K5 F5 108.1(5) 1_555 11_546
F4 K5 F7 117.5(8) 1_555 9_445
F4 K5 F7 177.0(9) 1_555 11_646
F4 K5 F9 65.7(4) 1_555 9_445
F4 K5 F9 125.2(5) 1_555 9_545
F4 K5 F5 108.1(5) 3_656 9_545
F4 K5 F5 108.1(5) 3_656 11_546
F4 K5 F7 177.0(9) 3_656 9_445
F4 K5 F7 117.5(8) 3_656 11_646
F4 K5 F9 125.2(5) 3_656 9_445
F4 K5 F9 65.7(4) 3_656 9_545
F5 K5 F5 138.0(5) 9_545 11_546
F5 K5 F7 72.4(5) 9_545 9_445
F5 K5 F7 72.4(5) 9_545 11_646
F5 K5 F9 88.1(3) 9_545 9_445
F5 K5 F9 88.1(3) 9_545 9_545
F5 K5 F7 72.4(5) 11_546 9_445
F5 K5 F7 72.4(5) 11_546 11_646
F5 K5 F9 88.1(3) 11_546 9_445
F5 K5 F9 88.1(3) 11_546 9_545
F7 K5 F7 65.5(7) 9_445 11_646
F7 K5 F9 51.9(5) 9_445 9_445
F7 K5 F9 117.3(6) 9_445 9_545
F7 K5 F9 117.3(6) 11_646 9_445
F7 K5 F9 51.9(5) 11_646 9_545
F9 K5 F9 169.16(4) 9_445 9_545
ZR1 F1 K1 173.0(3) 3_655 1_555
ZR1 F1 K2 90.0(3) 3_655 4_565
ZR1 F1 K2 95.8(3) 3_655 11_555
ZR1 F1 F1 47.4(4) 3_655 6_655
ZR1 F1 F2 46.1(3) 3_655 12_565
ZR1 F1 F4 129.9(3) 3_655 2_566
ZR1 F1 F6 46.1(4) 3_655 3_655
ZR1 F1 F6 128.4(5) 3_655 12_565
K1 F1 K2 89.2(3) 1_555 4_565
K1 F1 K2 91.2(2) 1_555 11_555
K1 F1 F1 137.4(4) 1_555 6_655
K1 F1 F2 129.3(4) 1_555 12_565
K1 F1 F4 51.2(2) 1_555 2_566
K1 F1 F5 131.6(4) 1_555 12_564
K1 F1 F6 138.6(5) 1_555 3_655
K1 F1 F6 55.4(4) 1_555 12_565
K2 F1 K2 90.7(2) 4_565 11_555
K2 F1 F1 124.9(4) 4_565 6_655
K2 F1 F2 51.9(3) 4_565 12_565
K2 F1 F4 140.1(2) 4_565 2_566
K2 F1 F5 113.4(4) 4_565 12_564
K2 F1 F6 63.8(3) 4_565 3_655
K2 F1 F6 51.5(3) 4_565 12_565
K2 F1 F1 66.4(3) 11_555 6_655
K2 F1 F2 116.5(3) 11_555 12_565
K2 F1 F4 86.1(2) 11_555 2_566
K2 F1 F5 128.4(5) 11_555 12_564
K2 F1 F6 60.5(4) 11_555 3_655
K2 F1 F6 58.0(3) 11_555 12_565
F1 F1 F2 93.2(4) 6_655 12_565
F1 F1 F4 89.9(3) 6_655 2_566
F1 F1 F5 62.4(4) 6_655 12_564
F1 F1 F6 61.3(4) 6_655 3_655
F1 F1 F6 123.7(5) 6_655 12_565
F2 F1 F4 156.4(3) 12_565 2_566
F2 F1 F5 62.1(4) 12_565 12_564
F2 F1 F6 57.2(4) 12_565 3_655
F2 F1 F6 102.9(5) 12_565 12_565
F4 F1 F5 99.3(4) 2_566 12_564
F4 F1 F6 141.8(5) 2_566 3_655
F4 F1 F6 94.7(4) 2_566 12_565
F5 F1 F6 89.1(6) 12_564 3_655
F5 F1 F6 164.9(6) 12_564 12_565
F6 F1 F6 83.3(4) 3_655 12_565
ZR1 F2 K2 107.0(2) 10_465 9_555
ZR1 F2 K3 102.2(3) 10_465 11_555
ZR1 F2 K4 130.9(2) 10_465 9_555
ZR1 F2 F3 112.8(3) 10_465 13_566
ZR1 F2 F6 46.5(4) 10_465 10_465
K2 F2 K3 104.7(2) 9_555 11_555
K2 F2 K4 97.0(2) 9_555 9_555
K2 F2 F1 74.7(3) 9_555 12_564
K2 F2 F2 130.0(3) 9_555 6_555
K2 F2 F3 49.5(2) 9_555 13_566
K2 F2 F5 131.8(4) 9_555 1_554
K2 F2 F6 74.2(3) 9_555 10_465
K3 F2 K4 112.4(2) 11_555 9_555
K3 F2 F1 136.9(4) 11_555 12_564
K3 F2 F2 60.2(3) 11_555 6_555
K3 F2 F3 55.2(2) 11_555 13_566
K3 F2 F5 115.4(4) 11_555 1_554
K3 F2 F6 79.6(5) 11_555 10_465
K4 F2 F1 110.4(4) 9_555 12_564
K4 F2 F2 133.0(3) 9_555 6_555
K4 F2 F3 115.3(3) 9_555 13_566
K4 F2 F5 91.7(3) 9_555 1_554
K4 F2 F6 166.9(5) 9_555 10_465
F1 F2 F2 86.8(4) 12_564 6_555
F1 F2 F3 109.2(3) 12_564 13_566
F1 F2 F5 58.0(4) 12_564 1_554
F1 F2 F6 58.4(4) 12_564 10_465
F2 F2 F3 97.8(3) 6_555 13_566
F2 F2 F5 60.0(3) 6_555 1_554
F2 F2 F6 56.8(4) 6_555 10_465
F3 F2 F5 152.9(4) 13_566 1_554
F3 F2 F6 66.5(4) 13_566 10_465
F5 F2 F6 87.4(6) 1_554 10_465
ZR2 F3 K1 112.0(2) 9_455 12_565
ZR2 F3 K2 109.2(2) 9_455 2_566
ZR2 F3 K3 131.2(2) 9_455 4_665
ZR2 F3 F2 145.3(3) 9_455 13_566
ZR2 F3 F3 51.1(2) 9_455 6_555
ZR2 F3 F4 52.7(3) 9_455 11_556
ZR2 F3 F6 161.1(5) 9_455 1_556
ZR2 F3 F10 50.2(4) 9_455 9_455
K1 F3 K2 99.9(2) 12_565 2_566
K1 F3 K3 95.2(2) 12_565 4_665
K1 F3 F2 100.7(3) 12_565 13_566
K1 F3 F3 133.1(3) 12_565 6_555
K1 F3 F3 96.3(2) 12_565 8_556
K1 F3 F4 59.3(3) 12_565 11_556
K1 F3 F6 55.8(3) 12_565 1_556
K1 F3 F10 149.4(4) 12_565 9_455
K2 F3 K3 104.8(2) 2_566 4_665
K2 F3 F2 51.8(2) 2_566 13_566
K2 F3 F3 60.7(2) 2_566 6_555
K2 F3 F3 150.1(3) 2_566 8_556
K2 F3 F4 115.3(3) 2_566 11_556
K2 F3 F6 63.5(2) 2_566 1_556
K2 F3 F10 109.4(3) 2_566 9_455
K3 F3 F2 53.0(2) 4_665 13_566
K3 F3 F3 129.8(3) 4_665 6_555
K3 F3 F3 98.5(2) 4_665 8_556
K3 F3 F4 134.9(4) 4_665 11_556
K3 F3 F6 67.2(3) 4_665 1_556
K3 F3 F10 86.0(3) 4_665 9_455
F2 F3 F3 97.8(3) 13_566 6_555
F2 F3 F3 147.8(3) 13_566 8_556
F2 F3 F4 156.4(4) 13_566 11_556
F2 F3 F6 45.2(3) 13_566 1_556
F2 F3 F10 104.2(3) 13_566 9_455
F3 F3 F3 90.0(2) 6_555 8_556
F3 F3 F4 89.3(4) 6_555 11_556
F3 F3 F6 124.1(3) 6_555 1_556
F3 F3 F10 60.2(3) 6_555 9_455
F3 F3 F4 54.0(3) 8_556 11_556
F3 F3 F6 144.9(5) 8_556 1_556
F3 F3 F10 53.4(3) 8_556 9_455
F4 F3 F6 112.9(5) 11_556 1_556
F4 F3 F10 98.9(5) 11_556 9_455
F6 F3 F10 147.5(5) 1_556 9_455
ZR2 F4 K1 112.1(3) 1_555 2_566
ZR2 F4 K1 112.1(3) 1_555 4_565
ZR2 F4 K5 114.4(4) 1_555 1_555
ZR2 F4 F1 103.2(4) 1_555 2_566
ZR2 F4 F1 103.2(4) 1_555 7_565
ZR2 F4 F3 49.6(3) 1_555 11_546
ZR2 F4 F3 49.6(3) 1_555 14_545
ZR2 F4 F4 54.2(4) 1_555 3_656
ZR2 F4 F9 178.3(7) 1_555 9_445
K1 F4 K1 87.8(3) 2_566 4_565
K1 F4 K5 113.8(3) 2_566 1_555
K1 F4 F1 49.3(2) 2_566 2_566
K1 F4 F1 132.8(3) 2_566 7_565
K1 F4 F3 62.6(3) 2_566 11_546
K1 F4 F3 110.7(3) 2_566 14_545
K1 F4 F4 135.9(4) 2_566 3_656
K1 F4 F9 66.8(4) 2_566 9_445
K1 F4 K5 113.8(3) 4_565 1_555
K1 F4 F1 132.8(3) 4_565 2_566
K1 F4 F1 49.3(2) 4_565 7_565
K1 F4 F3 110.7(3) 4_565 11_546
K1 F4 F3 62.6(3) 4_565 14_545
K1 F4 F4 135.9(4) 4_565 3_656
K1 F4 F9 66.8(4) 4_565 9_445
K5 F4 F1 76.0(3) 1_555 2_566
K5 F4 F1 76.0(3) 1_555 7_565
K5 F4 F3 135.2(4) 1_555 11_546
K5 F4 F3 135.2(4) 1_555 14_545
K5 F4 F4 60.3(4) 1_555 3_656
K5 F4 F9 67.2(4) 1_555 9_445
F1 F4 F1 147.5(3) 2_566 7_565
F1 F4 F3 70.3(3) 2_566 11_546
F1 F4 F3 142.2(4) 2_566 14_545
F1 F4 F4 90.1(4) 2_566 3_656
F1 F4 F9 77.1(4) 2_566 9_445
F1 F4 F3 142.2(4) 7_565 11_546
F1 F4 F3 70.3(3) 7_565 14_545
F1 F4 F4 90.1(4) 7_565 3_656
F1 F4 F9 77.1(4) 7_565 9_445
F3 F4 F3 71.9(3) 11_546 14_545
F3 F4 F4 90.7(4) 11_546 3_656
F3 F4 F9 129.4(7) 11_546 9_445
F3 F4 F4 90.7(4) 14_545 3_656
F3 F4 F9 129.4(7) 14_545 9_445
F4 F4 F9 127.5(6) 3_656 9_445
ZR1 F5 K3 161.4(5) 10_466 12_555
ZR1 F5 K5 109.1(4) 10_466 9_455
ZR1 F5 F7 142.1(5) 10_466 1_455
ZR1 F5 F7 142.1(5) 10_466 3_656
K3 F5 K5 89.4(3) 12_555 9_455
K3 F5 F1 148.4(5) 12_555 12_565
K3 F5 F1 148.4(5) 12_555 15_465
K3 F5 F2 121.0(4) 12_555 1_556
K3 F5 F2 121.0(4) 12_555 6_556
K3 F5 F7 53.0(4) 12_555 1_455
K3 F5 F7 53.0(4) 12_555 3_656
K5 F5 F1 76.4(4) 9_455 12_565
K5 F5 F1 76.4(4) 9_455 15_465
K5 F5 F2 134.6(3) 9_455 1_556
K5 F5 F2 134.6(3) 9_455 6_556
K5 F5 F7 46.3(3) 9_455 1_455
K5 F5 F7 46.3(3) 9_455 3_656
F1 F5 F1 55.2(4) 12_565 15_465
F1 F5 F2 59.9(4) 12_565 1_556
F1 F5 F2 87.9(4) 12_565 6_556
F1 F5 F7 122.5(6) 12_565 1_455
F1 F5 F7 99.0(5) 12_565 3_656
F1 F5 F2 87.9(4) 15_465 1_556
F1 F5 F2 59.9(4) 15_465 6_556
F1 F5 F7 99.0(5) 15_465 1_455
F1 F5 F7 122.5(6) 15_465 3_656
F2 F5 F2 60.0(3) 1_556 6_556
F2 F5 F7 172.7(4) 1_556 1_455
F2 F5 F7 125.6(4) 1_556 3_656
F2 F5 F7 125.6(4) 6_556 1_455
F2 F5 F7 172.7(4) 6_556 3_656
F7 F5 F7 48.4(4) 1_455 3_656
ZR1 F6 K1 166.4(5) 1_555 12_564
ZR1 F6 K2 93.5(4) 1_555 2_565
ZR1 F6 K2 93.5(4) 1_555 2_665
ZR1 F6 K2 102.0(5) 1_555 9_555
ZR1 F6 F1 45.2(5) 1_555 3_655
ZR1 F6 F1 45.2(5) 1_555 8_555
ZR1 F6 F1 140.6(5) 1_555 12_564
ZR1 F6 F1 140.6(5) 1_555 15_564
ZR1 F6 F2 50.2(5) 1_555 10_565
ZR1 F6 F2 50.2(5) 1_555 13_565
ZR1 F6 F3 118.4(5) 1_555 1_554
ZR1 F6 F3 118.4(5) 1_555 6_654
K1 F6 K2 84.7(3) 12_564 2_565
K1 F6 K2 84.7(3) 12_564 2_665
K1 F6 K2 91.6(4) 12_564 9_555
K1 F6 F1 143.8(5) 12_564 3_655
K1 F6 F1 143.8(5) 12_564 8_555
K1 F6 F1 47.3(3) 12_564 12_564
K1 F6 F1 47.3(3) 12_564 15_564
K1 F6 F2 119.7(4) 12_564 10_565
K1 F6 F2 119.7(4) 12_564 13_565
K1 F6 F3 51.6(3) 12_564 1_554
K1 F6 F3 51.6(3) 12_564 6_654
K2 F6 K2 162.46(5) 2_565 2_665
K2 F6 K2 97.1(3) 2_565 9_555
K2 F6 F1 126.3(4) 2_565 3_655
K2 F6 F1 69.0(3) 2_565 8_555
K2 F6 F1 56.5(3) 2_565 12_564
K2 F6 F1 122.9(3) 2_565 15_564
K2 F6 F2 120.3(3) 2_565 10_565
K2 F6 F2 54.7(3) 2_565 13_565
K2 F6 F3 47.28(20) 2_565 1_554
K2 F6 F3 115.5(2) 2_565 6_654
K2 F6 K2 97.1(3) 2_665 9_555
K2 F6 F1 69.0(3) 2_665 3_655
K2 F6 F1 126.3(4) 2_665 8_555
K2 F6 F1 122.9(3) 2_665 12_564
K2 F6 F1 56.5(3) 2_665 15_564
K2 F6 F2 54.7(3) 2_665 10_565
K2 F6 F2 120.3(3) 2_665 13_565
K2 F6 F3 115.5(2) 2_665 1_554
K2 F6 F3 47.28(20) 2_665 6_654
K2 F6 F1 68.6(4) 9_555 3_655
K2 F6 F1 68.6(4) 9_555 8_555
K2 F6 F1 62.4(4) 9_555 12_564
K2 F6 F1 62.4(4) 9_555 15_564
K2 F6 F2 131.3(5) 9_555 10_565
K2 F6 F2 131.3(5) 9_555 13_565
K2 F6 F3 124.3(4) 9_555 1_554
K2 F6 F3 124.3(4) 9_555 6_654
F1 F6 F1 57.5(4) 3_655 8_555
F1 F6 F1 130.5(5) 3_655 12_564
F1 F6 F1 96.7(4) 3_655 15_564
F1 F6 F2 64.4(4) 3_655 10_565
F1 F6 F2 95.4(5) 3_655 13_565
F1 F6 F3 163.5(4) 3_655 1_554
F1 F6 F3 114.8(4) 3_655 6_654
F1 F6 F1 96.7(4) 8_555 12_564
F1 F6 F1 130.5(5) 8_555 15_564
F1 F6 F2 95.4(5) 8_555 10_565
F1 F6 F2 64.4(4) 8_555 13_565
F1 F6 F3 114.8(4) 8_555 1_554
F1 F6 F3 163.5(4) 8_555 6_654
F1 F6 F1 67.3(4) 12_564 15_564
F1 F6 F2 164.7(5) 12_564 10_565
F1 F6 F2 110.9(5) 12_564 13_565
F1 F6 F3 62.0(3) 12_564 1_554
F1 F6 F3 98.8(4) 12_564 6_654
F1 F6 F2 110.9(5) 15_564 10_565
F1 F6 F2 164.7(5) 15_564 13_565
F1 F6 F3 98.8(4) 15_564 1_554
F1 F6 F3 62.0(3) 15_564 6_654
F2 F6 F2 66.4(4) 10_565 13_565
F2 F6 F3 104.3(4) 10_565 1_554
F2 F6 F3 68.4(4) 10_565 6_654
F2 F6 F3 68.4(4) 13_565 1_554
F2 F6 F3 104.3(4) 13_565 6_654
F3 F6 F3 68.3(3) 1_554 6_654
ZR3 F7 K3 120.5(5) 1_555 10_556
ZR3 F7 K3 120.5(5) 1_555 12_655
ZR3 F7 K5 122.0(6) 1_555 9_555
ZR3 F7 F5 113.9(5) 1_555 1_655
ZR3 F7 F5 113.9(5) 1_555 3_656
ZR3 F7 F7 179.2(9) 1_555 3_756
ZR3 F7 F8 48.8(6) 1_555 1_555
ZR3 F7 F8 48.8(6) 1_555 3_656
ZR3 F7 F9 47.0(7) 1_555 1_555
ZR3 F7 F10 50.3(6) 1_555 1_555
K3 F7 K3 88.1(4) 10_556 12_655
K3 F7 K5 99.4(5) 10_556 9_555
K3 F7 F5 123.4(5) 10_556 1_655
K3 F7 F5 49.9(3) 10_556 3_656
K3 F7 F7 60.0(5) 10_556 3_756
K3 F7 F8 78.6(4) 10_556 1_555
K3 F7 F8 148.1(6) 10_556 3_656
K3 F7 F9 135.9(7) 10_556 1_555
K3 F7 F10 86.1(4) 10_556 1_555
K3 F7 K5 99.4(5) 12_655 9_555
K3 F7 F5 49.9(3) 12_655 1_655
K3 F7 F5 123.4(5) 12_655 3_656
K3 F7 F7 60.0(5) 12_655 3_756
K3 F7 F8 148.1(6) 12_655 1_555
K3 F7 F8 78.6(4) 12_655 3_656
K3 F7 F9 135.9(7) 12_655 1_555
K3 F7 F10 86.1(4) 12_655 1_555
K5 F7 F5 61.3(4) 9_555 1_655
K5 F7 F5 61.3(4) 9_555 3_656
K5 F7 F7 57.3(6) 9_555 3_756
K5 F7 F8 111.3(6) 9_555 1_555
K5 F7 F8 111.3(6) 9_555 3_656
K5 F7 F9 75.0(6) 9_555 1_555
K5 F7 F10 172.3(7) 9_555 1_555
F5 F7 F5 118.3(5) 1_655 3_656
F5 F7 F7 65.8(5) 1_655 3_756
F5 F7 F8 156.7(6) 1_655 1_555
F5 F7 F8 68.1(4) 1_655 3_656
F5 F7 F9 92.7(5) 1_655 1_555
F5 F7 F10 120.0(5) 1_655 1_555
F5 F7 F7 65.8(5) 3_656 3_756
F5 F7 F8 68.1(4) 3_656 1_555
F5 F7 F8 156.7(6) 3_656 3_656
F5 F7 F9 92.7(5) 3_656 1_555
F5 F7 F10 120.0(5) 3_656 1_555
F7 F7 F8 131.2(7) 3_756 1_555
F7 F7 F8 131.2(7) 3_756 3_656
F7 F7 F9 132.3(8) 3_756 1_555
F7 F7 F10 130.4(7) 3_756 1_555
F8 F7 F8 97.6(8) 1_555 3_656
F8 F7 F9 64.1(6) 1_555 1_555
F8 F7 F10 64.3(6) 1_555 1_555
F8 F7 F9 64.1(6) 3_656 1_555
F8 F7 F10 64.3(6) 3_656 1_555
F9 F7 F10 97.3(9) 1_555 1_555
ZR3 F8 K4 179.4(5) 1_555 11_555
ZR3 F8 F10 46.8(6) 1_555 1_555
K4 F8 F7 138.8(4) 11_555 1_555
K4 F8 F7 138.8(4) 11_555 3_656
K4 F8 F9 137.6(5) 11_555 1_555
K4 F8 F10 132.6(4) 11_555 1_555
F7 F8 F7 82.4(7) 1_555 3_656
F7 F8 F9 57.0(6) 1_555 1_555
F7 F8 F10 58.6(6) 1_555 1_555
F7 F8 F9 57.0(6) 3_656 1_555
F7 F8 F10 58.6(6) 3_656 1_555
F9 F8 F10 89.8(7) 1_555 1_555
ZR3 F9 K1 145.0(6) 1_555 10_566
ZR3 F9 K1 145.0(6) 1_555 12_565
ZR3 F9 K5 95.4(5) 1_555 9_455
ZR3 F9 K5 95.4(5) 1_555 9_555
ZR3 F9 F4 142.5(7) 1_555 9_555
ZR3 F9 F4 142.5(7) 1_555 11_556
ZR3 F9 F8 45.7(3) 1_555 1_555
ZR3 F9 F8 45.7(3) 1_555 3_656
K1 F9 K1 70.0(4) 10_566 12_565
K1 F9 K5 85.6(3) 10_566 9_455
K1 F9 K5 85.6(3) 10_566 9_555
K1 F9 F4 49.5(4) 10_566 9_555
K1 F9 F4 49.5(4) 10_566 11_556
K1 F9 F7 127.3(7) 10_566 1_555
K1 F9 F7 127.3(7) 10_566 3_656
K1 F9 F8 99.3(5) 10_566 1_555
K1 F9 F8 169.3(6) 10_566 3_656
K1 F9 K5 85.6(3) 12_565 9_455
K1 F9 K5 85.6(3) 12_565 9_555
K1 F9 F4 49.5(4) 12_565 9_555
K1 F9 F4 49.5(4) 12_565 11_556
K1 F9 F7 127.3(7) 12_565 1_555
K1 F9 F7 127.3(7) 12_565 3_656
K1 F9 F8 169.3(6) 12_565 1_555
K1 F9 F8 99.3(5) 12_565 3_656
K5 F9 K5 169.16(4) 9_455 9_555
K5 F9 F4 122.1(4) 9_455 9_555
K5 F9 F4 47.1(3) 9_455 11_556
K5 F9 F7 137.7(7) 9_455 1_555
K5 F9 F7 53.2(5) 9_455 3_656
K5 F9 F8 93.8(4) 9_455 1_555
K5 F9 F8 93.8(4) 9_455 3_656
K5 F9 F4 47.1(3) 9_555 9_555
K5 F9 F4 122.1(4) 9_555 11_556
K5 F9 F7 53.2(5) 9_555 1_555
K5 F9 F7 137.7(7) 9_555 3_656
K5 F9 F8 93.8(4) 9_555 1_555
K5 F9 F8 93.8(4) 9_555 3_656
F4 F9 F4 75.0(5) 9_555 11_556
F4 F9 F7 100.2(8) 9_555 1_555
F4 F9 F7 175.2(9) 9_555 3_656
F4 F9 F8 123.6(6) 9_555 1_555
F4 F9 F8 123.6(6) 9_555 3_656
F4 F9 F7 175.2(9) 11_556 1_555
F4 F9 F7 100.2(8) 11_556 3_656
F4 F9 F8 123.6(6) 11_556 1_555
F4 F9 F8 123.6(6) 11_556 3_656
F7 F9 F7 84.5(8) 1_555 3_656
F7 F9 F8 58.9(6) 1_555 1_555
F7 F9 F8 58.9(6) 1_555 3_656
F7 F9 F8 58.9(6) 3_656 1_555
F7 F9 F8 58.9(6) 3_656 3_656
F8 F9 F8 91.5(8) 1_555 3_656
ZR2 F10 ZR3 180.0(6) 1_555 1_555
ZR2 F10 F3 50.8(4) 1_555 9_545
ZR2 F10 F3 50.8(4) 1_555 11_546
ZR2 F10 F3 50.8(4) 1_555 14_545
ZR2 F10 F3 50.8(4) 1_555 16_546
ZR2 F10 F7 139.6(3) 1_555 1_555
ZR2 F10 F7 139.6(3) 1_555 3_656
ZR2 F10 F8 135.5(3) 1_555 1_555
ZR2 F10 F8 135.5(3) 1_555 3_656
ZR3 F10 F3 129.2(5) 1_555 9_545
ZR3 F10 F3 129.2(5) 1_555 11_546
ZR3 F10 F3 129.2(5) 1_555 14_545
ZR3 F10 F3 129.2(5) 1_555 16_546
F3 F10 F3 101.7(4) 9_545 11_546
F3 F10 F3 59.6(3) 9_545 14_545
F3 F10 F3 73.1(3) 9_545 16_546
F3 F10 F7 99.1(7) 9_545 1_555
F3 F10 F7 143.4(8) 9_545 3_656
F3 F10 F8 150.2(6) 9_545 1_555
F3 F10 F8 91.9(5) 9_545 3_656
F3 F10 F3 73.1(3) 11_546 14_545
F3 F10 F3 59.6(3) 11_546 16_546
F3 F10 F7 143.4(8) 11_546 1_555
F3 F10 F7 99.1(7) 11_546 3_656
F3 F10 F8 91.9(5) 11_546 1_555
F3 F10 F8 150.2(6) 11_546 3_656
F3 F10 F3 101.7(4) 14_545 16_546
F3 F10 F7 143.4(8) 14_545 1_555
F3 F10 F7 99.1(7) 14_545 3_656
F3 F10 F8 150.2(6) 14_545 1_555
F3 F10 F8 91.9(5) 14_545 3_656
F3 F10 F7 99.1(7) 16_546 1_555
F3 F10 F7 143.4(8) 16_546 3_656
F3 F10 F8 91.9(5) 16_546 1_555
F3 F10 F8 150.2(6) 16_546 3_656
F7 F10 F7 80.9(7) 1_555 3_656
F7 F10 F8 57.1(5) 1_555 1_555
F7 F10 F8 57.1(5) 1_555 3_656
F7 F10 F8 57.1(5) 3_656 1_555
F7 F10 F8 57.1(5) 3_656 3_656
F8 F10 F8 89.0(7) 1_555 3_656
loop_
_geom_bond_atom_site_label_1
_geom_bond_atom_site_label_2
_geom_bond_distance
_geom_bond_site_symmetry_2
ZR1 K2 3.842(2) 2_565
ZR1 K2 3.842(2) 2_665
ZR1 K2 3.839(5) 9_555
ZR1 K3 3.843(4) 4_664
ZR1 F1 1.874(7) 3_655
ZR1 F1 1.874(7) 8_555
ZR1 F2 2.016(6) 10_565
ZR1 F2 2.016(6) 13_565
ZR1 F5 1.873(10) 10_566
ZR1 F6 1.902(12) 1_555
ZR2 K2 3.851(4) 10_556
ZR2 K2 3.851(4) 12_555
ZR2 K5 3.952(7) 1_555
ZR2 F3 2.061(4) 9_545
ZR2 F3 2.061(4) 11_546
ZR2 F3 2.061(4) 14_545
ZR2 F3 2.061(4) 16_546
ZR2 F4 2.153(8) 1_555
ZR2 F4 2.153(8) 3_656
ZR2 F10 2.041(13) 1_555
ZR3 K5 3.876(4) 9_455
ZR3 K5 3.876(4) 9_555
ZR3 F7 1.752(13) 1_555
ZR3 F7 1.752(13) 3_656
ZR3 F8 2.000(14) 1_555
ZR3 F8 2.000(14) 3_656
ZR3 F9 1.905(17) 1_555
ZR3 F10 2.080(13) 1_555
K1 K1 3.717(6) 3_555
K1 F1 2.605(7) 1_555
K1 F1 2.605(7) 6_555
K1 F3 2.765(6) 12_564
K1 F3 2.765(6) 15_464
K1 F4 2.679(7) 2_566
K1 F4 2.679(7) 4_564
K1 F6 2.918(13) 12_565
K1 F9 3.240(14) 10_466
K2 ZR1 3.842(2) 2_465
K2 ZR1 3.842(2) 2_565
K2 ZR1 3.839(5) 9_445
K2 ZR2 3.851(4) 10_456
K2 K4 3.980(4) 1_555
K2 F1 3.353(7) 4_564
K2 F1 3.353(7) 7_564
K2 F1 3.169(9) 11_545
K2 F1 3.169(9) 16_445
K2 F2 2.735(7) 9_445
K2 F2 2.735(7) 14_545
K2 F3 2.647(5) 2_566
K2 F3 2.647(5) 5_566
K2 F6 3.2233(19) 2_465
K2 F6 3.2233(19) 2_565
K2 F6 2.963(13) 9_445
K3 ZR1 3.843(4) 4_665
K3 K3 3.984(6) 3_655
K3 F2 2.873(7) 11_545
K3 F2 2.873(7) 16_545
K3 F3 2.954(6) 4_664
K3 F3 2.954(6) 7_564
K3 F5 2.746(11) 12_554
K3 F6 3.513(13) 4_665
K3 F7 2.864(11) 10_456
K3 F7 2.864(11) 12_654
K3 F8 3.502(5) 10_456
K3 F8 3.502(5) 10_556
K3 F10 3.802(3) 10_456
K3 F10 3.802(3) 10_556
K4 K2 3.980(4) 1_555
K4 K2 3.980(4) 2_555
K4 F2 2.579(6) 9_445
K4 F2 2.579(6) 10_455
K4 F2 2.579(6) 13_555
K4 F2 2.579(6) 14_545
K4 F5 3.903(6) 9_444
K4 F5 3.903(6) 9_544
K4 F5 3.903(6) 10_456
K4 F5 3.903(6) 10_556
K4 F8 2.918(14) 11_545
K4 F8 2.918(14) 12_554
K5 ZR2 3.952(7) 1_555
K5 ZR3 3.876(4) 9_445
K5 ZR3 3.876(4) 9_545
K5 F1 3.703(7) 2_566
K5 F1 3.703(7) 4_665
K5 F1 3.703(7) 5_666
K5 F1 3.703(7) 7_565
K5 F4 2.541(10) 1_555
K5 F4 2.541(10) 3_656
K5 F5 3.217(10) 9_545
K5 F5 3.217(10) 11_546
K5 F7 2.652(16) 9_445
K5 F7 2.652(16) 11_646
K5 F9 3.1999(17) 9_445
K5 F9 3.1999(17) 9_545
F1 ZR1 1.874(7) 3_655
F1 K1 2.605(7) 1_555
F1 K2 3.353(7) 4_565
F1 K2 3.169(9) 11_555
F1 K5 3.703(7) 2_566
F1 F1 3.834(10) 6_555
F1 F1 2.537(10) 6_655
F1 F2 2.794(9) 12_565
F1 F2 3.879(9) 15_565
F1 F3 3.518(10) 12_564
F1 F4 3.378(7) 2_566
F1 F5 2.737(12) 12_564
F1 F6 2.638(12) 3_655
F1 F6 3.458(13) 12_565
F2 ZR1 2.016(6) 10_465
F2 K2 2.735(7) 9_555
F2 K3 2.873(7) 11_555
F2 K4 2.579(6) 9_555
F2 F1 2.794(9) 12_564
F2 F1 3.879(9) 15_464
F2 F2 3.773(9) 2_565
F2 F2 2.853(8) 6_555
F2 F2 3.518(8) 6_655
F2 F3 3.415(8) 13_566
F2 F5 2.852(10) 1_554
F2 F5 3.635(11) 2_566
F2 F6 2.605(12) 10_465
F2 F8 3.570(12) 4_664
F3 ZR2 2.061(4) 9_455
F3 K1 2.765(6) 12_565
F3 K2 2.647(5) 2_566
F3 K3 2.954(6) 4_665
F3 F1 3.518(10) 12_565
F3 F2 3.415(8) 13_566
F3 F3 2.591(6) 6_555
F3 F3 3.781(6) 6_655
F3 F3 3.107(6) 8_556
F3 F4 3.678(9) 9_455
F3 F4 2.645(9) 11_556
F3 F6 3.368(11) 1_556
F3 F8 3.929(11) 11_556
F3 F10 2.608(9) 9_455
F4 ZR2 2.153(8) 1_555
F4 K1 2.679(7) 2_566
F4 K1 2.679(7) 4_565
F4 K5 2.541(10) 1_555
F4 F1 3.378(7) 2_566
F4 F1 3.378(7) 7_565
F4 F3 3.678(9) 9_545
F4 F3 2.645(9) 11_546
F4 F3 2.645(9) 14_545
F4 F3 3.678(9) 16_546
F4 F4 3.849(12) 3_556
F4 F4 2.522(12) 3_656
F4 F9 3.162(15) 9_445
F4 F10 3.992(14) 1_555
F5 ZR1 1.873(10) 10_466
F5 K3 2.746(11) 12_555
F5 K4 3.903(6) 9_456
F5 K4 3.903(6) 9_556
F5 K5 3.217(10) 9_455
F5 F1 2.737(12) 12_565
F5 F1 2.737(12) 15_465
F5 F2 2.852(10) 1_556
F5 F2 3.635(11) 2_566
F5 F2 3.635(11) 5_566
F5 F2 2.852(10) 6_556
F5 F6 3.773(16) 10_466
F5 F7 3.497(12) 1_455
F5 F7 3.497(12) 3_656
F5 F8 3.516(7) 3_556
F5 F8 3.516(7) 3_656
F6 ZR1 1.902(12) 1_555
F6 K1 2.918(13) 12_564
F6 K2 3.2233(19) 2_565
F6 K2 3.2233(19) 2_665
F6 K2 2.963(13) 9_555
F6 K3 3.513(13) 4_664
F6 F1 2.638(12) 3_655
F6 F1 2.638(12) 8_555
F6 F1 3.458(13) 12_564
F6 F1 3.458(13) 15_564
F6 F2 2.605(12) 10_565
F6 F2 2.605(12) 13_565
F6 F3 3.368(11) 1_554
F6 F3 3.368(11) 6_654
F6 F5 3.773(16) 10_566
F7 ZR3 1.752(13) 1_555
F7 K3 2.864(11) 10_556
F7 K3 2.864(11) 12_655
F7 K5 2.652(16) 9_555
F7 F5 3.497(12) 1_655
F7 F5 3.497(12) 3_656
F7 F7 3.504(18) 3_656
F7 F7 2.867(18) 3_756
F7 F8 2.659(13) 1_555
F7 F8 2.659(13) 3_656
F7 F9 2.606(19) 1_555
F7 F10 2.701(18) 1_555
F8 ZR3 2.000(14) 1_555
F8 K3 3.502(5) 10_456
F8 K3 3.502(5) 10_556
F8 K4 2.918(14) 11_555
F8 F2 3.570(12) 4_665
F8 F2 3.570(12) 7_565
F8 F3 3.929(11) 11_546
F8 F3 3.929(11) 16_546
F8 F5 3.516(7) 3_556
F8 F5 3.516(7) 3_656
F8 F7 2.659(13) 1_555
F8 F7 2.659(13) 3_656
F8 F8 4.000(19) 3_656
F8 F9 2.793(17) 1_555
F8 F10 2.854(15) 1_555
F9 ZR3 1.905(17) 1_555
F9 K1 3.240(14) 10_566
F9 K1 3.240(14) 12_565
F9 K5 3.1999(17) 9_455
F9 K5 3.1999(17) 9_555
F9 F4 3.162(15) 9_555
F9 F4 3.162(15) 11_556
F9 F7 2.606(19) 1_555
F9 F7 2.606(19) 3_656
F9 F8 2.793(17) 1_555
F9 F8 2.793(17) 3_656
F9 F10 3.98(2) 1_555
F10 ZR2 2.041(13) 1_555
F10 ZR3 2.080(13) 1_555
F10 K3 3.802(3) 10_456
F10 K3 3.802(3) 10_556
F10 K3 3.802(3) 12_555
F10 K3 3.802(3) 12_655
F10 F3 2.608(9) 9_545
F10 F3 2.608(9) 11_546
F10 F3 2.608(9) 14_545
F10 F3 2.608(9) 16_546
F10 F4 3.992(14) 1_555
F10 F4 3.992(14) 3_656
F10 F7 2.701(18) 1_555
F10 F7 2.701(18) 3_656
F10 F8 2.854(15) 1_555
F10 F8 2.854(15) 3_656
F10 F9 3.98(2) 1_555
