#------------------------------------------------------------------------------
#$Date: 2016-11-25 18:11:03 +0200 (Fri, 25 Nov 2016) $
#$Revision: 188670 $
#$URL: file:///home/coder/svn-repositories/cod/cif/3/50/00/3500043.cif $
#------------------------------------------------------------------------------
#
# This file is available in the Crystallography Open Database (COD),
# http://www.crystallography.net/
#
# All data on this site have been placed in the public domain by the
# contributors.
#
data_3500043
loop_
_publ_author_name
'Lubomir Smrcok'
'Armel Le Bail'
'Miroslav Boca'
_publ_section_abstract
;
At least 7 polymorphs in the range 273-763K
;
_publ_section_title
;
 Polymorphism of K~2~ZrF~6~ by synchrotron powder diffraction and DFT
;
_journal_name_full               'Personal communication to COD'
_journal_year                    2016
_chemical_formula_moiety         'F6 Zr, 2(K)'
_chemical_formula_sum            'F6 K2 Zr'
_chemical_formula_weight         283.42
_chemical_name_systematic        ' ?'
_space_group_IT_number           15
_symmetry_cell_setting           monoclinic
_symmetry_Int_Tables_number      15
_symmetry_space_group_name_Hall  '-C 2yc'
_symmetry_space_group_name_H-M   'C 1 2/c 1'
_cell_angle_alpha                90.00000
_cell_angle_beta                 90.5668(3)
_cell_angle_gamma                90.00000
_cell_formula_units_Z            4
_cell_length_a                   6.56646(2)
_cell_length_b                   11.44440(4)
_cell_length_c                   6.94202(2)
_cell_measurement_temperature    295
_cell_volume                     521.662(3)
_computing_molecular_graphics    DIAMOND
_computing_structure_refinement  FULLPROF
_computing_structure_solution    ESPOIR
_diffrn_ambient_temperature      295
_diffrn_measurement_device_type  synchrotron
_diffrn_radiation_probe          x-ray
_diffrn_radiation_type           synchrotron
_diffrn_radiation_wavelength     0.825631
_exptl_absorpt_coefficient_mu    5.616
_exptl_crystal_density_diffrn    3.609
_exptl_crystal_density_method    'Not Measured'
_exptl_crystal_F_000             528
_exptl_special_details
; 
Beamline I11
;
_pd_calibration_special_details  ' ?'
_pd_char_colour                  white
_pd_instr_location
; 
Diamond Light Source, Didcot, UK
;
_pd_meas_2theta_range_inc        0.002000
_pd_meas_2theta_range_max        100.00000
_pd_meas_2theta_range_min        7.00000
_pd_meas_number_of_points        46501
_pd_proc_2theta_range_inc        0.002000
_pd_proc_2theta_range_max        100.0085
_pd_proc_2theta_range_min        7.0085
_pd_proc_ls_pref_orient_corr     ' ?'
_pd_proc_ls_prof_R_factor        3.8186
_pd_proc_ls_prof_wR_expected     3.2238
_pd_proc_ls_prof_wR_factor       4.9386
_pd_proc_ls_special_details      ' ?'
_pd_proc_wavelength              0.825631
_refine_ls_goodness_of_fit_all   1.532
_refine_ls_number_parameters     79
_refine_ls_number_reflns         1738
_refine_ls_number_restraints     0
_refine_ls_R_I_factor            1.9943
_refine_ls_shift/su_max          0.03
_refine_special_details          ' ?'
_iucr_refine_instructions_details
;
Fullprof .pcr file, modified to fit inside 80 columns
followed by the .dat file



COMM   H-RT    K2ZrF6 C2/c at 22 C,  quenched from 470 C
! Current global Chi2 (Bragg contrib.) =      2.432    
! Files => DAT-file: rt-42.dat,  PCR-file: rt-42
!Job Npr Nph Nba Nex Nsc Nor Dum Iwg Ilo Ias Res Ste Nre Cry Uni Cor Opt Aut
   0   5   5  27   2   0   1   1   0   0   1   0   0   0   0   0   0   0   0
!
!Ipr Ppl Ioc Mat Pcr Ls1 Ls2 Ls3 NLI Prf Ins Rpa Sym Hkl Fou Sho Ana
   0   0   1   0   2   0   4   0   0  -3   0  -1   0   2   2   1   1
!
! Lambda1  Lambda2    Ratio   Bkpos   Wdt   Cthm   muR  AsyLim Rpolarz 2nd-muR 
 0.825631 0.825631  1.00000   40.000 10.0000 0.0000 0.0000 30.00 0.0000  0.0000
!
!NCY  Eps  R_at  R_an  R_pr  R_gl  Thmin       Step       Thmax    PSD    Sent0
 20  0.01  0.20  0.20  0.20  0.20  7.0000   0.002000   100.0000   0.000   0.000
!
!2Theta/TOF/E(Kev)   Background  for Pattern#  1
         7.0100       559.8388        461.00
         9.5833       607.3704        471.00
        10.2604       667.5895        481.00
        11.1458       750.9346        491.00
        12.4479       691.7396        501.00
        14.0625       543.0316        511.00
        15.2083       486.1601        521.00
        17.3438       402.5284        531.00
        19.0625       399.2817        541.00
        20.5729       374.2706        551.00
        24.1667       456.0367        561.00
        27.1354       402.8027        571.00
        28.1250       426.9152        581.00
        34.2188       371.1663        591.00
        35.3125       365.4242        601.00
        38.5938       412.0107        611.00
        42.3958       407.0223        621.00
        43.8021       382.4323        631.00
        50.6771       365.6791        641.00
        55.3125       379.4183        651.00
        59.7917       345.5170        661.00
        63.9000       312.1635        671.00
        70.0000       309.8417        681.00
        80.0000       292.0922        691.00
        86.0000       262.4179        701.00
        95.0000       221.6931        711.00
        99.5000       220.0340        721.00
! 
! Excluded regions (LowT  HighT) for Pattern#  1
        0.00        7.00
      100.00      180.00
! 
!
      79    !Number of refined parameters
!
!  Zero    Code    SyCos    Code   SySin    Code  Lambda     Code MORE ->Patt# 1
 -0.00854   21.0  0.00000    0.0  0.00000    0.0 0.000000    0.00   0
!-------------------------------------------------------------------------------
!  Data for PHASE number:   1  ==> Current R_Bragg for Pattern#  1:     1.99
!-------------------------------------------------------------------------------
 phase 1: h00 and HH0 removed - added in phases 4 and 5
!
!Nat Dis Ang Pr1 Pr2 Pr3 Jbt Irf Isy Str Furth       ATZ    Nvk Npr More
   5   0   0 0.0 0.0 1.0   0   1   0   0   0       1133.626   0   5   1
!
!Jvi Jdi Hel Sol Mom Ter Brind RMua  RMub  RMuc Jtyp Nsp_RefPh_Shift N_Domains
   0   3   0   0   0   0  1.0000  0.0000  0.0000  0.0000  0    0     0      0
!
! Max_dst(dist) (angles)  Bond-Valence Calc.
      4.0000      3.5000           
C 2/C                    <--Space group symbol
!Atom   Typ       X        Y        Z     Biso     Occ  In Fin N_t Spc /Codes
F3     F-1    -0.03405  0.09824  0.54599  1.58343   1.00000   0   0   0    0  
                131.00   141.00   151.00   161.00      0.00
ZR     Zr+4    0.00000  0.04711  0.25000  0.16656   0.50000   0   0   0    0  
                  0.00   171.00     0.00   181.00      0.00
K      K+1     0.01939  0.34331  0.00129  1.72482   1.00000   0   0   0    0  
                191.00   201.00   211.00   221.00      0.00
F1     F-1     0.28774 -0.01238  0.22121  1.55791   1.00000   0   0   0    0  
                231.00   241.00   251.00   261.00      0.00
F2     F-1     0.19031  0.19056  0.27435  2.17113   1.00000   0   0   0    0  
                271.00   281.00   291.00   301.00      0.00
!-------> Profile Parameters for Pattern #  1
!  Scale        Shape1      Bov      Str1      Str2      Str3   Strain-Model
 0.71722E-03   0.56673   0.00000   0.00000   0.00000   0.00000       0
    11.00000    31.000     0.000     0.000     0.000     0.000
!       U         V          W           X      Y    GauSiz  LorSiz Size-Model
   0.073939   0.013375  -0.000288   0.004145 0.000000 0.000000 0.000000 0
     51.000     61.000     41.000    751.000      0.000      0.000      0.000
!     a          b         c        alpha      beta       gamma      #Cell Info
   6.566459  11.444398   6.942017  90.000000  90.566818  90.000000   
   71.00000   81.00000   91.00000    0.00000  101.00000    0.00000
!  Pref1    Pref2      Asy1     Asy2     Asy3     Asy4  
  1.00000  0.00000  0.00421  0.00103  0.00000  0.00000
     0.00     0.00   111.00   121.00     0.00     0.00
!-------------------------------------------------------------------------------
!  Data for PHASE number:   2  ==> Current R_Bragg for Pattern#  1:     0.06
!-------------------------------------------------------------------------------
 phase 2 - K3ZrOF5 (?) Le Bail fit:
!
!Nat Dis Ang Pr1 Pr2 Pr3 Jbt Irf Isy Str Furth       ATZ    Nvk Npr More
   0   0   0 0.0 0.0 1.0   2   0   0   0   0          0.000   0   5   1
!
!Jvi Jdi Hel Sol Mom Ter  Brind RMua  RMub  RMuc Jtyp Nsp_Ref Ph_Shift N_Domains
   0   3   0   0   0   0  1.0000  0.0000  0.0000  0.0000    0    0    0      0
!
! Max_dst(dist) (angles)  Bond-Valence Calc.
      4.0000      3.5000           
R -3 M                   <--Space group symbol
!-------> Profile Parameters for Pattern #  1
!  Scale        Shape1      Bov      Str1      Str2      Str3   Strain-Model
 0.36334E-03   0.70273   0.00000   0.00000   0.00000   0.00000       0
     0.00000   311.000     0.000     0.000     0.000     0.000
!       U         V          W         X        Y    GauSiz  LorSiz Size-Model
   0.020000   0.000561   0.000163   0.000000  0.000000  0.000000  0.000000    0
      0.000    331.000    321.000      0.000      0.000      0.000      0.000
!     a          b         c        alpha      beta       gamma      #Cell Info
   6.348880   6.348880  15.652247  90.000000  90.000000 120.000000   
  341.00000  341.00000  351.00000    0.00000    0.00000  341.00000
!  Pref1    Pref2      Asy1     Asy2     Asy3     Asy4  
  1.00000  0.00000  0.00808  0.00251  0.00000  0.00000
     0.00     0.00     0.00     0.00     0.00     0.00
!-------------------------------------------------------------------------------
!  Data for PHASE number:   3  ==> Current R_Bragg for Pattern#  1:     6.09
!-------------------------------------------------------------------------------
 phase 3: m-ZrO2
!
!Nat Dis Ang Pr1 Pr2 Pr3 Jbt Irf Isy Str Furth       ATZ    Nvk Npr More
   3   0   0 0.0 0.0 1.0   0   0   0   0   0        492.875   0   5   1
!
!Jvi Jdi Hel Sol Mom Ter Brind  RMua  RMub  RMuc Jtyp Nsp_Ref Ph_Shift N_Domains
   0   3   0   0   0   0  1.0000  0.0000  0.0000  0.0000    0    0    0    0
!
! Max_dst(dist) (angles)  Bond-Valence Calc.
      4.0000      3.5000           
P 21/C                   <--Space group symbol
!Atom   Typ       X        Y        Z     Biso    Occ     In Fin N_t Spc /Codes
ZR     Zr      0.27530  0.03990  0.20910  0.07044   1.00000   0   0   0    0  
                  0.00     0.00     0.00   361.00      0.00
O1     O       0.06800  0.32900  0.34200  0.10072   1.00000   0   0   0    0  
                  0.00     0.00     0.00   371.00      0.00
O2     O       0.44900  0.75990  0.47800  0.10072   1.00000   0   0   0    0  
                  0.00     0.00     0.00   371.00      0.00
!-------> Profile Parameters for Pattern #  1
!  Scale        Shape1      Bov      Str1      Str2      Str3   Strain-Model
 0.81027E-04   1.04497   0.00000   0.00000   0.00000   0.00000       0
   381.00000   391.000     0.000     0.000     0.000     0.000
!       U         V          W        X       Y      GauSiz   LorSiz Size-Model
   0.020000  -0.002146   0.000997  0.000000  0.000000  0.000000  0.000000    0
      0.000    411.000    401.000      0.000      0.000      0.000      0.000
!     a          b         c        alpha      beta       gamma      #Cell Info
   5.146946   5.211935   5.313879  90.000000  99.266441  90.000000   
  421.00000  431.00000  441.00000    0.00000  451.00000    0.00000
!  Pref1    Pref2      Asy1     Asy2     Asy3     Asy4  
  1.00000  0.00000  0.00808  0.00251  0.00000  0.00000
     0.00     0.00     0.00     0.00     0.00     0.00
!-------------------------------------------------------------------------------
!  Data for PHASE number:   4  ==> Current R_Bragg for Pattern#  1:     2.65
!-------------------------------------------------------------------------------
 phase 4:  h00 of phase 1
!
!Nat Dis Ang Pr1 Pr2 Pr3 Jbt Irf Isy Str Furth       ATZ    Nvk Npr More
   5   0   0 0.0 0.0 1.0   0   1   0   0   0       1133.626   0   5   1
!
!Jvi Jdi Hel Sol Mom Ter Brind RMua  RMub  RMuc Jtyp Nsp_Ref Ph_Shift N_Domains
   0   3   0   0   0   0  1.0000  0.0000  0.0000  0.0000   0     0     0     0
!
! Max_dst(dist) (angles)  Bond-Valence Calc.
      4.0000      3.5000           
C 2/C                    <--Space group symbol
!Atom   Typ       X        Y        Z     Biso       Occ  In Fin N_t Spc /Codes
F3     F-1    -0.03405  0.09824  0.54599  1.58343   1.00000   0   0   0    0  
                131.00   141.00   151.00   161.00      0.00
ZR     Zr+4    0.00000  0.04711  0.25000  0.16656   0.50000   0   0   0    0  
                  0.00   171.00     0.00   181.00      0.00
K      K+1     0.01939  0.34331  0.00129  1.72482   1.00000   0   0   0    0  
                191.00   201.00   211.00   221.00      0.00
F1     F-1     0.28774 -0.01238  0.22121  1.55791   1.00000   0   0   0    0  
                231.00   241.00   251.00   261.00      0.00
F2     F-1     0.19031  0.19056  0.27435  2.17113   1.00000   0   0   0    0  
                271.00   281.00   291.00   301.00      0.00
!-------> Profile Parameters for Pattern #  1
!  Scale        Shape1      Bov      Str1      Str2      Str3   Strain-Model
 0.71722E-03   0.64629   0.00000   0.00000   0.00000   0.00000       0
    11.00000   731.000     0.000     0.000     0.000     0.000
!       U         V          W        X       Y      GauSiz   LorSiz Size-Model
   0.073939  -0.010545   0.001302   0.004145 0.000000 0.000000 0.000000    0
     51.000    791.000    741.000    751.000      0.000      0.000      0.000
!     a          b         c        alpha      beta       gamma      #Cell Info
   6.566459  11.444398   6.942017  90.000000  90.566818  90.000000   
   71.00000   81.00000   91.00000    0.00000  101.00000    0.00000
!  Pref1    Pref2      Asy1     Asy2     Asy3     Asy4  
  1.00000  0.00000  0.00421  0.00103  0.00000  0.00000
     0.00     0.00   111.00   121.00     0.00     0.00
!-------------------------------------------------------------------------------
!  Data for PHASE number:   5  ==> Current R_Bragg for Pattern#  1:     1.92
!-------------------------------------------------------------------------------
 phase 4:  hh0 of phase 1
!
!Nat Dis Ang Pr1 Pr2 Pr3 Jbt Irf Isy Str Furth       ATZ    Nvk Npr More
   5   0   0 0.0 0.0 1.0   0   1   0   0   0       1133.626   0   5   1
!
!Jvi Jdi Hel Sol Mom Ter Brind RMua  RMub  RMuc Jtyp Nsp_Ref Ph_Shift N_Domains
   0   3   0   0   0   0  1.0000  0.0000  0.0000  0.0000    0     0     0     0
!
! Max_dst(dist) (angles)  Bond-Valence Calc.
      4.0000      3.5000           
C 2/C                    <--Space group symbol
!Atom   Typ       X        Y        Z     Biso    Occ     In Fin N_t Spc /Codes
F3     F-1    -0.03405  0.09824  0.54599  1.58343   1.00000   0   0   0    0  
                131.00   141.00   151.00   161.00      0.00
ZR     Zr+4    0.00000  0.04711  0.25000  0.16656   0.50000   0   0   0    0  
                  0.00   171.00     0.00   181.00      0.00
K      K+1     0.01939  0.34331  0.00129  1.72482   1.00000   0   0   0    0  
                191.00   201.00   211.00   221.00      0.00
F1     F-1     0.28774 -0.01238  0.22121  1.55791   1.00000   0   0   0    0  
                231.00   241.00   251.00   261.00      0.00
F2     F-1     0.19031  0.19056  0.27435  2.17113   1.00000   0   0   0    0  
                271.00   281.00   291.00   301.00      0.00
!-------> Profile Parameters for Pattern #  1
!  Scale        Shape1      Bov      Str1      Str2      Str3   Strain-Model
 0.71722E-03   0.53982   0.00000   0.00000   0.00000   0.00000       0
    11.00000   771.000     0.000     0.000     0.000     0.000
!       U         V          W        X       Y      GauSiz   LorSiz Size-Model
   0.073939   0.002585   0.000309   0.004145 0.000000 0.000000 0.000000    0
     51.000    781.000    761.000    751.000      0.000      0.000      0.000
!     a          b         c        alpha      beta       gamma    #Cell Info
   6.566459  11.444398   6.942017  90.000000  90.566818  90.000000   
   71.00000   81.00000   91.00000    0.00000  101.00000    0.00000
!  Pref1    Pref2      Asy1     Asy2     Asy3     Asy4  
  1.00000  0.00000  0.00421  0.00103  0.00000  0.00000
     0.00     0.00   111.00   121.00     0.00     0.00
!  2Th1/TOF1    2Th2/TOF2  Pattern # 1
       7.000     100.000       1




Fullprof .dat file


   7.000   0.002 100.000  RT-42                                           
   584.    571.    543.    545.    532.    551.    512.    522.
   564.    536.    546.    572.    580.    554.    553.    546.
   543.    567.    552.    569.    529.    566.    547.    511.
   557.    573.    547.    554.    538.    538.    571.    530.
   528.    532.    543.    573.    571.    571.    556.    552.
   533.    561.    550.    537.    586.    533.    492.    576.
   535.    533.    525.    555.    524.    548.    549.    523.
   572.    549.    559.    552.    534.    576.    545.    588.
   537.    545.    538.    590.    546.    549.    573.    550.
   529.    561.    565.    513.    556.    538.    541.    534.
   522.    557.    540.    526.    532.    550.    556.    576.
   570.    549.    533.    499.    544.    541.    549.    568.
   501.    521.    522.    528.    519.    520.    563.    535.
   569.    530.    523.    562.    529.    544.    547.    517.
   545.    562.    557.    555.    512.    545.    522.    576.
   548.    550.    574.    541.    564.    564.    532.    578.
   549.    537.    540.    578.    521.    536.    550.    514.
   542.    552.    571.    505.    563.    535.    557.    534.
   540.    528.    569.    536.    554.    544.    548.    555.
   548.    560.    538.    541.    539.    556.    546.    521.
   584.    518.    589.    551.    501.    533.    528.    516.
   531.    541.    569.    538.    490.    516.    550.    547.
   537.    560.    558.    559.    532.    524.    514.    556.
   530.    551.    516.    557.    583.    490.    537.    572.
   514.    556.    522.    547.    571.    521.    531.    533.
   602.    550.    556.    538.    549.    562.    577.    526.
   510.    543.    544.    535.    555.    555.    533.    553.
   559.    549.    569.    579.    520.    505.    545.    563.
   548.    554.    532.    537.    562.    553.    522.    560.
   525.    510.    523.    526.    556.    574.    550.    558.
   530.    528.    559.    536.    531.    540.    511.    538.
   558.    531.    540.    546.    568.    591.    531.    579.
   535.    539.    543.    527.    519.    577.    580.    542.
   524.    566.    563.    552.    524.    532.    537.    532.
   532.    578.    540.    546.    527.    528.    519.    585.
   553.    536.    544.    537.    555.    536.    517.    556.
   579.    571.    541.    538.    548.    543.    558.    558.
   557.    519.    530.    540.    523.    552.    548.    579.
   558.    552.    554.    553.    586.    557.    586.    566.
   536.    569.    562.    544.    545.    560.    540.    545.
   543.    535.    557.    565.    504.    529.    569.    592.
   516.    545.    567.    525.    559.    531.    537.    550.
   531.    588.    559.    566.    522.    556.    579.    507.
   558.    531.    579.    544.    527.    533.    581.    549.
   554.    555.    572.    601.    547.    594.    563.    580.
   546.    574.    556.    603.    540.    573.    551.    570.
   578.    560.    585.    559.    584.    591.    582.    573.
   594.    574.    539.    585.    560.    585.    575.    604.
   599.    572.    586.    565.    601.    554.    596.    571.
   582.    588.    601.    585.    581.    608.    570.    573.
   629.    555.    600.    569.    550.    570.    525.    575.
   596.    593.    604.    560.    600.    590.    593.    629.
   608.    619.    620.    586.    582.    582.    594.    572.
   597.    608.    570.    570.    595.    584.    609.    565.
   598.    588.    626.    558.    590.    588.    639.    638.
   588.    647.    640.    618.    609.    647.    628.    594.
   599.    619.    665.    640.    675.    638.    590.    623.
   616.    644.    634.    605.    647.    640.    647.    657.
   672.    643.    614.    644.    670.    637.    629.    658.
   646.    633.    684.    711.    657.    646.    632.    648.
   650.    648.    685.    671.    653.    667.    673.    707.
   693.    695.    701.    681.    751.    705.    703.    728.
   730.    728.    751.    747.    729.    755.    757.    746.
   726.    708.    750.    770.    775.    724.    749.    778.
   749.    772.    838.    782.    793.    759.    785.    791.
   786.    791.    847.    835.    859.    866.    824.    897.
   846.    866.    853.    897.    844.    876.    889.    922.
   950.    883.    916.    938.    899.    978.    964.    930.
   919.   1010.    954.    939.   1003.   1037.   1016.   1023.
  1034.   1045.   1007.   1031.   1049.   1124.   1066.   1085.
  1132.   1122.   1143.   1174.   1140.   1161.   1177.   1282.
  1197.   1280.   1237.   1293.   1259.   1281.   1264.   1340.
  1307.   1315.   1296.   1394.   1400.   1433.   1444.   1439.
  1527.   1555.   1616.   1526.   1543.   1557.   1672.   1689.
  1731.   1707.   1810.   1841.   1938.   1891.   1926.   2000.
  2087.   2167.   2207.   2319.   2344.   2576.   2722.   2889.
  3045.   3208.   3416.   3663.   3967.   4363.   4756.   5284.
  5914.   6609.   7711.   8380.   9713.  11110.  12858.  14578.
 16850.  19336.  21822.  24308.  27576.  30450.  32611.  34799.
 36103.  37269.  36737.  36230.  35151.  34050.  32951.  32299.
 32304.  33041.  34784.  36789.  40501.  44363.  49382.  54994.
 60051.  64860.  69418.  72576.  73445.  72754.  69297.  64988.
 58568.  51570.  44743.  38638.  32315.  27612.  22733.  19154.
 16243.  13746.  11867.  10181.   8857.   7725.   6764.   6097.
  5307.   4880.   4483.   4206.   3742.   3453.   3274.   3069.
  2904.   2733.   2579.   2453.   2357.   2324.   2160.   2073.
  2030.   2005.   1938.   1868.   1873.   1709.   1726.   1627.
  1616.   1586.   1558.   1539.   1468.   1485.   1469.   1414.
  1438.   1399.   1395.   1356.   1321.   1278.   1309.   1250.
  1204.   1272.   1283.   1242.   1129.   1198.   1147.   1192.
  1185.   1129.   1168.   1141.   1109.   1129.   1068.   1087.
  1080.   1096.    992.   1099.   1028.    999.   1046.    975.
   986.    972.    983.    975.    983.    947.    929.    946.
   961.    932.    916.    946.    891.    874.    918.    857.
   915.    831.    884.    860.    902.    891.    852.    858.
   873.    841.    827.    831.    791.    814.    814.    840.
   809.    789.    757.    796.    800.    775.    757.    806.
   772.    813.    776.    748.    756.    749.    748.    755.
   702.    689.    708.    693.    790.    770.    741.    730.
   680.    731.    656.    696.    708.    712.    723.    691.
   700.    691.    678.    711.    686.    680.    704.    675.
   701.    675.    684.    684.    659.    691.    661.    658.
   668.    684.    673.    663.    661.    653.    667.    669.
   693.    651.    671.    614.    660.    596.    613.    604.
   640.    625.    620.    625.    621.    608.    611.    645.
   656.    629.    659.    646.    656.    602.    650.    641.
   624.    599.    609.    646.    624.    611.    590.    625.
   639.    578.    609.    618.    629.    583.    576.    582.
   579.    598.    659.    628.    574.    604.    637.    615.
   610.    591.    624.    637.    616.    578.    622.    615.
   610.    653.    605.    604.    595.    600.    585.    576.
   607.    618.    593.    619.    569.    590.    610.    629.
   595.    587.    601.    603.    619.    600.    633.    584.
   576.    600.    586.    595.    590.    581.    540.    638.
   622.    582.    591.    591.    567.    579.    605.    540.
   604.    565.    607.    572.    600.    624.    622.    585.
   589.    593.    593.    610.    596.    580.    586.    596.
   594.    606.    577.    633.    575.    563.    550.    577.
   580.    587.    580.    570.    545.    580.    570.    582.
   615.    595.    559.    595.    609.    596.    620.    604.
   575.    632.    599.    585.    587.    559.    559.    582.
   567.    608.    584.    559.    635.    599.    587.    625.
   574.    583.    606.    610.    604.    584.    610.    584.
   597.    594.    610.    611.    591.    597.    608.    658.
   601.    618.    595.    637.    655.    641.    623.    559.
   625.    628.    605.    576.    631.    611.    637.    601.
   655.    645.    655.    678.    643.    640.    688.    679.
   700.    737.    779.    788.    816.    842.    849.    936.
   986.   1095.   1204.   1394.   1598.   1791.   2083.   2327.
  2569.   2834.   2943.   2910.   2638.   2375.   2066.   1768.
  1557.   1394.   1317.   1286.   1266.   1215.   1287.   1285.
  1389.   1481.   1657.   1932.   2218.   2651.   3138.   3802.
  4541.   5360.   6207.   6993.   7627.   7664.   6814.   5738.
  4651.   3637.   2912.   2388.   1962.   1666.   1429.   1264.
  1186.   1087.   1046.    971.    914.    872.    803.    768.
   792.    770.    781.    719.    689.    663.    696.    712.
   696.    681.    639.    640.    682.    630.    629.    681.
   670.    626.    636.    615.    665.    615.    613.    643.
   643.    642.    597.    597.    640.    614.    625.    607.
   648.    564.    612.    601.    614.    624.    627.    592.
   594.    578.    622.    603.    640.    611.    625.    631.
   649.    648.    583.    582.    570.    600.    619.    616.
   613.    605.    594.    634.    631.    570.    588.    614.
   595.    626.    632.    631.    610.    603.    621.    640.
   661.    683.    676.    709.    681.    731.    708.    709.
   680.    749.    683.    709.    682.    689.    674.    614.
   665.    671.    631.    648.    635.    631.    634.    624.
   596.    593.    592.    645.    603.    624.    586.    590.
   609.    602.    607.    602.    625.    582.    575.    597.
   603.    599.    597.    587.    545.    583.    586.    601.
   582.    563.    573.    619.    601.    580.    594.    556.
   589.    592.    556.    603.    594.    594.    570.    616.
   580.    592.    556.    577.    583.    589.    596.    566.
   591.    638.    574.    526.    599.    571.    622.    545.
   570.    602.    572.    572.    593.    576.    617.    559.
   584.    584.    580.    592.    569.    609.    586.    606.
   580.    605.    595.    595.    626.    614.    572.    584.
   589.    594.    643.    592.    635.    622.    590.    595.
   607.    565.    623.    622.    593.    626.    581.    616.
   595.    606.    600.    599.    602.    582.    622.    604.
   578.    597.    604.    597.    611.    610.    592.    582.
   603.    592.    596.    594.    613.    603.    621.    569.
   608.    630.    589.    579.    603.    606.    670.    614.
   621.    584.    609.    591.    610.    587.    566.    599.
   593.    627.    606.    606.    605.    546.    608.    624.
   579.    610.    619.    616.    600.    628.    605.    592.
   594.    597.    603.    585.    609.    635.    586.    625.
   592.    598.    595.    605.    588.    631.    592.    627.
   611.    585.    594.    618.    616.    648.    620.    614.
   636.    604.    612.    647.    607.    578.    609.    639.
   601.    614.    600.    610.    628.    581.    610.    621.
   634.    602.    604.    594.    578.    622.    598.    582.
   654.    593.    622.    597.    583.    616.    609.    617.
   573.    604.    599.    627.    632.    620.    583.    640.
   582.    587.    612.    593.    610.    618.    649.    601.
   610.    612.    623.    611.    620.    610.    626.    611.
   621.    608.    609.    585.    620.    619.    615.    627.
   628.    656.    642.    623.    636.    596.    580.    610.
   642.    594.    620.    618.    608.    608.    625.    611.
   638.    594.    637.    660.    606.    620.    624.    621.
   598.    642.    641.    637.    594.    612.    650.    634.
   600.    610.    616.    623.    656.    647.    657.    636.
   590.    611.    610.    613.    639.    644.    599.    626.
   619.    616.    619.    606.    642.    639.    605.    587.
   609.    631.    628.    613.    657.    621.    624.    637.
   646.    669.    672.    639.    568.    605.    626.    665.
   645.    649.    626.    640.    684.    640.    642.    659.
   606.    627.    648.    620.    636.    634.    632.    617.
   600.    600.    637.    627.    662.    639.    633.    643.
   665.    676.    704.    591.    633.    645.    666.    656.
   643.    670.    685.    649.    653.    674.    655.    638.
   664.    649.    671.    651.    648.    636.    678.    655.
   634.    639.    687.    694.    713.    658.    650.    657.
   650.    649.    643.    676.    649.    637.    679.    640.
   650.    640.    648.    657.    641.    666.    647.    671.
   643.    686.    629.    650.    634.    647.    661.    696.
   637.    658.    673.    702.    671.    656.    630.    633.
   691.    619.    644.    635.    659.    699.    676.    706.
   671.    702.    690.    688.    667.    644.    643.    635.
   685.    665.    662.    677.    614.    664.    655.    683.
   696.    679.    698.    680.    659.    670.    657.    674.
   632.    680.    637.    683.    708.    673.    691.    716.
   713.    641.    662.    716.    706.    669.    694.    681.
   635.    640.    657.    678.    650.    745.    699.    712.
   694.    679.    722.    727.    710.    653.    714.    693.
   660.    728.    708.    678.    709.    726.    714.    697.
   688.    700.    669.    678.    667.    709.    731.    708.
   709.    715.    731.    676.    702.    666.    719.    728.
   721.    730.    726.    705.    714.    702.    753.    737.
   695.    715.    700.    740.    727.    726.    692.    679.
   745.    759.    778.    742.    736.    764.    702.    736.
   752.    752.    748.    728.    747.    785.    764.    741.
   772.    772.    719.    766.    762.    785.    708.    775.
   764.    778.    731.    770.    772.    768.    819.    782.
   751.    766.    792.    783.    782.    757.    781.    746.
   795.    806.    783.    812.    816.    813.    788.    838.
   819.    829.    916.    804.    821.    891.    879.    949.
   930.    901.    912.    943.    935.    968.   1019.   1018.
  1035.   1084.   1133.   1231.   1272.   1346.   1486.   1678.
  1857.   2222.   2499.   2995.   3793.   4334.   4976.   5410.
  5848.   5696.   5385.   4740.   4202.   3593.   2958.   2559.
  2246.   1956.   1741.   1578.   1465.   1346.   1372.   1307.
  1207.   1195.   1193.   1131.   1112.   1159.   1147.   1094.
  1125.   1121.   1111.   1037.   1093.   1205.   1087.   1218.
  1176.   1121.   1133.   1121.   1142.   1206.   1200.   1239.
  1202.   1199.   1251.   1246.   1275.   1281.   1315.   1258.
  1269.   1324.   1320.   1353.   1351.   1405.   1411.   1487.
  1521.   1599.   1585.   1626.   1675.   1709.   1852.   1851.
  1881.   2045.   2098.   2172.   2335.   2495.   2614.   2737.
  2925.   3260.   3567.   3709.   4065.   4403.   4827.   5397.
  5845.   6465.   7061.   8158.   9048.   9939.  11176.  12535.
 13896.  15162.  16747.  18542.  19925.  21512.  22899.  23916.
 24969.  25731.  26498.  26841.  26479.  26339.  25408.  24234.
 22986.  21471.  19932.  18471.  17084.  15274.  14133.  12866.
 11565.  10753.   9876.   9105.   8643.   8084.   7770.   7228.
  7007.   6901.   6983.   6783.   6833.   7066.   7256.   7647.
  8014.   8451.   9071.   9474.  10115.  10644.  11276.  11769.
 12343.  12449.  12635.  12483.  12154.  11758.  11237.  10416.
  9538.   8892.   8292.   7424.   6866.   6393.   5709.   5230.
  4766.   4462.   3877.   3612.   3469.   3195.   2914.   2778.
  2613.   2444.   2223.   2146.   2021.   1934.   1883.   1797.
  1654.   1622.   1605.   1512.   1503.   1439.   1417.   1358.
  1323.   1346.   1292.   1252.   1214.   1186.   1124.   1154.
  1167.   1188.   1138.   1144.   1111.   1098.   1135.   1115.
  1109.   1060.   1073.   1024.   1006.   1034.    980.   1011.
  1029.    980.   1010.    971.    969.    974.    950.    979.
   980.    925.    925.    917.    931.    903.    932.    925.
   899.    902.    896.    895.    878.    900.    936.    913.
   938.    958.    901.    848.    899.    907.    911.    867.
   885.    898.    850.    872.    844.    842.    895.    830.
   858.    812.    842.    834.    799.    841.    858.    820.
   804.    852.    856.    802.    757.    794.    809.    804.
   855.    828.    786.    835.    851.    815.    760.    793.
   815.    875.    840.    795.    792.    780.    796.    793.
   806.    840.    804.    831.    750.    761.    795.    716.
   813.    766.    753.    791.    762.    777.    765.    789.
   820.    758.    760.    766.    786.    765.    803.    780.
   771.    793.    750.    785.    757.    809.    771.    720.
   777.    820.    778.    747.    759.    739.    749.    789.
   772.    780.    756.    753.    781.    770.    761.    742.
   749.    766.    749.    766.    754.    730.    796.    732.
   783.    775.    757.    762.    762.    769.    807.    753.
   738.    767.    745.    768.    743.    753.    762.    738.
   809.    766.    779.    746.    758.    745.    765.    731.
   721.    788.    753.    760.    772.    784.    748.    741.
   736.    745.    728.    768.    780.    766.    762.    746.
   778.    743.    797.    738.    753.    741.    755.    743.
   745.    738.    776.    780.    797.    767.    729.    785.
   790.    752.    733.    798.    743.    773.    745.    737.
   783.    760.    782.    775.    764.    773.    725.    780.
   739.    734.    709.    707.    797.    728.    718.    789.
   747.    757.    737.    776.    724.    760.    750.    735.
   759.    757.    705.    720.    792.    727.    695.    710.
   743.    740.    751.    763.    722.    774.    735.    710.
   762.    787.    817.    728.    727.    732.    739.    730.
   730.    729.    712.    740.    752.    780.    704.    738.
   764.    774.    690.    729.    738.    760.    769.    742.
   760.    738.    761.    704.    706.    722.    742.    721.
   736.    717.    729.    772.    739.    732.    764.    764.
   702.    773.    751.    770.    746.    714.    738.    759.
   732.    757.    728.    687.    739.    710.    737.    721.
   737.    718.    684.    686.    758.    722.    727.    759.
   743.    730.    752.    753.    741.    693.    758.    721.
   748.    715.    763.    748.    759.    747.    735.    750.
   717.    753.    752.    777.    704.    738.    705.    689.
   722.    726.    686.    752.    758.    763.    723.    754.
   739.    699.    717.    750.    691.    696.    747.    726.
   725.    725.    734.    780.    769.    781.    778.    699.
   743.    770.    743.    736.    766.    760.    691.    722.
   747.    801.    689.    758.    706.    752.    759.    732.
   731.    710.    731.    711.    751.    712.    728.    774.
   736.    768.    717.    718.    709.    746.    729.    753.
   704.    744.    695.    649.    753.    715.    683.    723.
   747.    728.    778.    680.    748.    767.    714.    745.
   773.    722.    764.    748.    763.    739.    705.    762.
   707.    724.    758.    718.    773.    702.    691.    719.
   722.    724.    749.    725.    740.    726.    759.    695.
   705.    765.    751.    712.    754.    739.    738.    744.
   737.    750.    702.    664.    702.    777.    704.    714.
   695.    704.    724.    764.    772.    754.    718.    692.
   740.    704.    736.    745.    737.    697.    717.    699.
   736.    704.    718.    727.    763.    742.    732.    721.
   693.    656.    752.    766.    749.    728.    722.    753.
   733.    712.    729.    736.    739.    707.    737.    720.
   746.    751.    708.    745.    713.    739.    706.    755.
   768.    748.    778.    766.    733.    706.    746.    721.
   764.    691.    711.    739.    728.    722.    690.    709.
   699.    699.    700.    756.    691.    745.    720.    716.
   746.    692.    675.    715.    711.    793.    711.    706.
   730.    726.    748.    710.    747.    706.    758.    675.
   674.    715.    728.    730.    728.    704.    735.    730.
   756.    734.    686.    682.    709.    686.    741.    676.
   727.    717.    747.    700.    698.    712.    717.    691.
   736.    700.    742.    753.    725.    734.    708.    709.
   753.    720.    707.    726.    696.    655.    705.    725.
   771.    736.    728.    743.    730.    735.    740.    733.
   725.    705.    720.    681.    700.    690.    723.    711.
   746.    724.    737.    723.    712.    695.    718.    696.
   671.    783.    723.    731.    723.    687.    743.    703.
   678.    720.    757.    722.    711.    683.    686.    762.
   739.    691.    707.    710.    719.    705.    726.    652.
   737.    695.    696.    743.    740.    694.    723.    744.
   712.    662.    699.    718.    659.    651.    705.    660.
   676.    681.    702.    682.    719.    763.    752.    730.
   692.    670.    700.    742.    698.    705.    712.    694.
   728.    688.    697.    705.    675.    712.    698.    646.
   714.    692.    664.    691.    728.    743.    699.    745.
   724.    695.    682.    691.    751.    746.    692.    720.
   735.    671.    668.    673.    687.    728.    688.    710.
   692.    701.    690.    709.    726.    755.    671.    742.
   726.    653.    677.    740.    678.    754.    708.    651.
   689.    688.    713.    692.    695.    705.    701.    742.
   669.    664.    716.    707.    702.    720.    732.    688.
   701.    728.    706.    733.    705.    701.    712.    717.
   737.    679.    729.    700.    697.    679.    684.    745.
   660.    718.    660.    723.    731.    692.    660.    697.
   697.    678.    661.    693.    679.    659.    731.    718.
   720.    712.    707.    710.    711.    707.    741.    739.
   682.    689.    655.    698.    675.    665.    675.    690.
   675.    686.    718.    711.    669.    679.    678.    639.
   680.    700.    677.    693.    670.    703.    715.    674.
   660.    647.    726.    708.    689.    625.    644.    672.
   675.    721.    728.    686.    691.    674.    718.    650.
   668.    618.    666.    662.    689.    669.    715.    681.
   650.    693.    691.    677.    661.    663.    726.    695.
   681.    640.    646.    636.    698.    659.    683.    678.
   678.    672.    669.    695.    670.    699.    634.    671.
   702.    672.    718.    708.    678.    655.    682.    658.
   692.    654.    659.    701.    692.    702.    627.    705.
   650.    658.    688.    673.    682.    687.    703.    699.
   699.    659.    644.    692.    670.    673.    689.    674.
   663.    647.    692.    677.    657.    639.    700.    670.
   676.    698.    684.    672.    651.    692.    681.    672.
   697.    646.    660.    681.    688.    652.    686.    697.
   651.    656.    655.    666.    677.    653.    709.    656.
   658.    687.    687.    641.    638.    660.    678.    658.
   644.    630.    672.    653.    673.    682.    683.    680.
   685.    693.    678.    681.    672.    666.    708.    684.
   669.    664.    679.    687.    664.    648.    683.    705.
   688.    682.    688.    643.    674.    683.    636.    623.
   660.    693.    655.    650.    665.    681.    668.    689.
   730.    725.    687.    753.    733.    719.    685.    675.
   746.    749.    801.    850.    888.    936.    982.    973.
  1033.   1108.   1125.   1225.   1145.   1120.   1068.   1014.
   949.    895.    887.    800.    776.    763.    722.    754.
   735.    714.    740.    732.    681.    673.    634.    678.
   606.    679.    693.    686.    670.    657.    725.    673.
   624.    682.    670.    676.    681.    656.    624.    650.
   693.    630.    666.    668.    670.    685.    646.    683.
   647.    671.    661.    665.    669.    695.    646.    635.
   679.    643.    665.    639.    683.    653.    646.    634.
   645.    617.    684.    664.    638.    650.    636.    658.
   683.    651.    656.    637.    603.    626.    637.    684.
   630.    638.    642.    676.    687.    669.    617.    663.
   633.    634.    662.    665.    650.    690.    713.    675.
   706.    700.    748.    710.    707.    762.    765.    800.
   832.    875.    887.    938.    875.    920.    908.    894.
   882.    813.    829.    812.    740.    733.    758.    754.
   750.    697.    702.    689.    703.    680.    647.    674.
   694.    657.    666.    667.    665.    679.    621.    614.
   670.    642.    661.    658.    651.    671.    630.    656.
   621.    676.    637.    654.    653.    677.    612.    663.
   657.    657.    628.    658.    672.    654.    603.    649.
   653.    641.    605.    628.    618.    632.    661.    657.
   627.    620.    623.    652.    664.    637.    659.    628.
   652.    666.    611.    662.    612.    653.    651.    660.
   667.    705.    623.    632.    651.    665.    655.    627.
   638.    617.    637.    648.    652.    667.    595.    607.
   631.    638.    614.    618.    624.    634.    639.    620.
   629.    649.    623.    637.    619.    638.    607.    622.
   616.    617.    639.    597.    638.    646.    647.    661.
   627.    621.    628.    639.    627.    631.    643.    596.
   610.    674.    652.    682.    649.    648.    644.    667.
   575.    605.    613.    607.    598.    601.    636.    659.
   640.    625.    629.    640.    632.    621.    651.    659.
   639.    623.    622.    604.    615.    613.    649.    596.
   624.    653.    652.    631.    637.    616.    640.    635.
   656.    657.    651.    635.    635.    643.    643.    609.
   610.    624.    648.    629.    607.    605.    603.    635.
   630.    610.    628.    628.    641.    634.    604.    639.
   665.    610.    599.    622.    628.    648.    608.    636.
   595.    646.    640.    643.    622.    656.    661.    648.
   633.    639.    609.    580.    654.    652.    625.    631.
   653.    663.    626.    638.    615.    640.    631.    669.
   642.    579.    640.    613.    579.    603.    608.    587.
   661.    664.    628.    677.    623.    660.    644.    648.
   629.    655.    648.    629.    640.    658.    667.    686.
   612.    605.    639.    628.    682.    677.    637.    591.
   583.    660.    659.    635.    666.    673.    650.    679.
   681.    668.    690.    689.    696.    681.    675.    683.
   710.    695.    663.    679.    730.    726.    705.    695.
   720.    731.    754.    744.    757.    758.    793.    796.
   828.    862.    881.    896.    842.   1006.    980.   1023.
  1072.   1167.   1217.   1275.   1298.   1386.   1484.   1633.
  1730.   1849.   2009.   2115.   2382.   2582.   2807.   3037.
  3313.   3546.   3919.   4182.   4298.   4674.   4712.   4699.
  4601.   4587.   4294.   4133.   3882.   3572.   3335.   3002.
  2797.   2563.   2383.   2122.   2006.   1849.   1735.   1592.
  1484.   1444.   1419.   1275.   1171.   1128.   1105.    999.
  1036.    986.    936.    939.    889.    857.    832.    839.
   843.    798.    761.    744.    740.    757.    737.    723.
   709.    690.    691.    677.    670.    710.    635.    677.
   685.    639.    672.    675.    685.    655.    638.    666.
   656.    636.    662.    653.    660.    652.    660.    665.
   630.    627.    628.    664.    627.    616.    633.    668.
   650.    619.    621.    619.    647.    620.    669.    619.
   590.    663.    608.    594.    659.    626.    629.    642.
   640.    630.    647.    625.    629.    618.    640.    604.
   633.    671.    635.    639.    600.    617.    589.    609.
   608.    634.    549.    627.    626.    599.    570.    677.
   626.    615.    652.    615.    621.    619.    624.    616.
   611.    638.    593.    637.    599.    626.    592.    623.
   628.    583.    626.    584.    602.    623.    634.    629.
   607.    631.    608.    624.    614.    627.    630.    625.
   627.    623.    633.    603.    666.    611.    633.    647.
   627.    628.    625.    670.    636.    645.    629.    692.
   629.    644.    629.    646.    643.    627.    677.    598.
   604.    634.    603.    690.    658.    658.    675.    632.
   673.    651.    642.    617.    666.    650.    657.    676.
   635.    710.    702.    645.    656.    663.    658.    641.
   630.    665.    648.    692.    660.    648.    699.    646.
   665.    715.    720.    657.    633.    718.    687.    714.
   660.    726.    674.    734.    726.    724.    706.    736.
   725.    715.    706.    684.    681.    682.    727.    716.
   723.    728.    729.    782.    719.    744.    767.    773.
   768.    704.    787.    762.    754.    781.    750.    808.
   746.    794.    819.    775.    816.    806.    845.    850.
   843.    822.    831.    825.    833.    877.    823.    894.
   912.    861.    872.    922.    898.    871.    914.    887.
   935.    901.    888.    974.    979.    966.   1012.    996.
   980.    962.    939.    954.    972.   1101.   1032.   1091.
  1046.   1064.   1036.   1072.   1128.   1123.   1116.   1119.
  1156.   1084.   1178.   1189.   1223.   1164.   1206.   1264.
  1253.   1241.   1363.   1353.   1349.   1422.   1359.   1437.
  1456.   1439.   1525.   1572.   1589.   1602.   1691.   1597.
  1752.   1852.   1878.   1923.   2025.   2056.   2174.   2189.
  2342.   2445.   2582.   2688.   2864.   2935.   3135.   3336.
  3475.   3737.   4039.   4350.   4736.   4989.   5490.   5832.
  6285.   6894.   7602.   8223.   9112.   9948.  10785.  12098.
 13141.  14433.  15784.  17216.  18647.  20519.  22150.  23531.
 25167.  26823.  28180.  28847.  30061.  30452.  30337.  30039.
 29266.  28061.  27018.  25762.  24052.  22616.  21182.  19853.
 18615.  17506.  16482.  15619.  15085.  14297.  14121.  13877.
 13923.  14347.  14566.  15328.  16323.  17685.  18844.  20852.
 23139.  25394.  27786.  30756.  33165.  35332.  36607.  37582.
 38020.  36569.  34848.  32388.  29688.  26705.  23647.  20944.
 18549.  16330.  14570.  12573.  10994.   9450.   8517.   7438.
  6776.   5980.   5510.   4900.   4459.   4065.   3775.   3453.
  3128.   2981.   2886.   2642.   2462.   2378.   2279.   2203.
  2121.   2054.   1902.   1884.   1868.   1808.   1713.   1631.
  1608.   1524.   1513.   1515.   1499.   1359.   1399.   1332.
  1256.   1281.   1255.   1274.   1285.   1262.   1219.   1212.
  1112.   1213.   1202.   1182.   1086.   1090.   1081.   1068.
  1101.   1038.   1035.   1033.   1035.   1042.   1066.   1004.
  1011.    982.    996.    956.    977.    946.    930.    937.
   930.    930.    912.    907.    912.    914.    882.    872.
   807.    882.    870.    882.    872.    838.    870.    859.
   819.    834.    813.    788.    784.    800.    811.    785.
   782.    766.    756.    807.    820.    784.    724.    750.
   781.    766.    769.    747.    775.    729.    730.    737.
   765.    750.    740.    730.    770.    781.    743.    702.
   752.    751.    716.    729.    705.    720.    724.    726.
   740.    745.    708.    746.    729.    735.    721.    735.
   717.    705.    665.    755.    714.    744.    677.    671.
   661.    694.    700.    692.    661.    723.    690.    681.
   717.    716.    693.    682.    703.    674.    671.    677.
   706.    696.    662.    698.    710.    714.    720.    687.
   708.    681.    731.    795.    725.    730.    715.    752.
   800.    794.    727.    758.    822.    821.    837.    856.
   862.    903.    926.   1032.   1053.   1095.   1198.   1244.
  1376.   1465.   1621.   1660.   1971.   2152.   2546.   2993.
  3416.   4299.   4998.   5964.   6858.   7740.   8575.   8759.
  8899.   8482.   7773.   6902.   5989.   5232.   4556.   3936.
  3384.   3054.   2720.   2474.   2239.   2178.   2126.   2020.
  1981.   2050.   2113.   2139.   2336.   2479.   2813.   3064.
  3611.   4245.   4951.   5726.   6768.   7569.   8395.   9095.
  9104.   8700.   7921.   7007.   6285.   5509.   4719.   4104.
  3680.   3247.   2983.   2851.   2717.   2601.   2579.   2517.
  2553.   2627.   2619.   2819.   2986.   3012.   3120.   3152.
  3025.   2907.   2667.   2523.   2211.   2053.   1899.   1730.
  1511.   1461.   1282.   1248.   1203.   1104.   1028.   1058.
  1014.    916.    932.    880.    886.    843.    830.    765.
   711.    769.    752.    719.    695.    700.    687.    718.
   717.    667.    706.    635.    630.    662.    620.    617.
   647.    677.    673.    606.    631.    610.    571.    640.
   613.    590.    607.    599.    576.    569.    600.    591.
   630.    613.    593.    562.    610.    601.    603.    605.
   604.    613.    583.    674.    631.    600.    635.    578.
   595.    597.    589.    609.    597.    592.    591.    560.
   541.    569.    596.    629.    546.    575.    540.    581.
   592.    589.    515.    571.    582.    577.    559.    554.
   589.    531.    549.    554.    563.    579.    542.    535.
   552.    567.    577.    548.    552.    577.    565.    524.
   538.    529.    562.    583.    516.    544.    539.    572.
   579.    510.    513.    538.    551.    529.    564.    605.
   597.    507.    509.    549.    568.    542.    537.    530.
   550.    552.    548.    559.    555.    519.    514.    542.
   528.    560.    564.    551.    569.    532.    507.    526.
   551.    519.    536.    578.    548.    533.    557.    548.
   547.    540.    533.    535.    596.    553.    529.    524.
   565.    583.    527.    549.    554.    552.    527.    598.
   538.    553.    541.    585.    552.    519.    534.    567.
   539.    528.    525.    569.    588.    558.    538.    506.
   566.    536.    525.    551.    539.    521.    535.    555.
   534.    539.    517.    522.    582.    539.    521.    515.
   523.    576.    545.    569.    530.    517.    542.    573.
   506.    550.    544.    581.    556.    538.    522.    552.
   576.    566.    534.    531.    575.    552.    520.    550.
   534.    518.    547.    560.    578.    588.    563.    543.
   509.    554.    538.    550.    551.    510.    565.    539.
   548.    545.    558.    584.    539.    584.    574.    595.
   605.    660.    605.    623.    564.    631.    598.    589.
   569.    586.    599.    550.    600.    589.    630.    608.
   613.    602.    625.    580.    581.    593.    640.    628.
   588.    584.    644.    577.    582.    593.    593.    612.
   620.    577.    607.    604.    584.    645.    598.    606.
   613.    619.    598.    633.    635.    623.    597.    623.
   613.    641.    611.    637.    621.    615.    626.    615.
   588.    674.    608.    610.    666.    621.    641.    648.
   643.    646.    625.    652.    635.    655.    630.    647.
   650.    656.    677.    667.    637.    665.    682.    698.
   676.    704.    703.    707.    701.    682.    705.    682.
   735.    740.    713.    727.    789.    773.    722.    765.
   758.    799.    739.    779.    749.    787.    811.    789.
   783.    795.    826.    826.    828.    773.    860.    799.
   858.    884.    835.    843.    883.    855.    847.    861.
   867.    923.    883.    982.    964.    979.    976.   1027.
   992.    984.   1006.   1043.   1000.    991.   1027.   1053.
  1089.   1099.   1112.   1094.   1110.   1138.   1158.   1183.
  1188.   1170.   1166.   1184.   1241.   1270.   1278.   1308.
  1366.   1332.   1400.   1346.   1378.   1450.   1425.   1468.
  1576.   1540.   1655.   1696.   1737.   1712.   1813.   1796.
  1880.   1892.   2075.   2117.   2141.   2276.   2315.   2549.
  2632.   2787.   2791.   3064.   3223.   3441.   3507.   3833.
  4052.   4385.   4708.   4926.   5211.   5612.   5992.   6390.
  6787.   7305.   7655.   8072.   8257.   8801.   9189.   9442.
  9704.  10050.  10094.  10581.  10794.  11385.  11689.  12076.
 12691.  13646.  14300.  14955.  15888.  16772.  17982.  19141.
 20476.  21662.  23311.  24721.  26065.  27205.  28453.  29143.
 29773.  30519.  30741.  30650.  30555.  30345.  30114.  29812.
 29701.  29096.  28864.  28880.  28945.  28426.  28521.  28748.
 28855.  28658.  28761.  28414.  27980.  27653.  26992.  26014.
 24951.  24162.  22899.  21845.  20760.  19618.  18520.  17783.
 17005.  15991.  15072.  14862.  14243.  13668.  13349.  13088.
 12928.  12796.  12814.  12966.  13003.  13229.  13555.  13918.
 14241.  14856.  15606.  16230.  16956.  17664.  18262.  19069.
 20009.  20629.  21002.  21636.  21918.  21704.  21637.  21308.
 20804.  19820.  19103.  18010.  17221.  16003.  15155.  13895.
 13050.  12236.  11361.  10491.   9953.   9069.   8524.   7887.
  7300.   6849.   6366.   5825.   5608.   5109.   4736.   4363.
  4299.   4023.   3869.   3489.   3383.   3045.   3073.   2816.
  2746.   2626.   2531.   2336.   2192.   2188.   2004.   1976.
  1950.   1852.   1846.   1639.   1672.   1615.   1544.   1459.
  1456.   1343.   1399.   1370.   1349.   1275.   1324.   1211.
  1170.   1171.   1137.   1129.   1134.   1154.   1088.   1044.
   999.   1040.   1054.    998.   1006.    965.    961.    982.
   933.    900.    935.    916.    887.    862.    869.    878.
   870.    823.    862.    797.    838.    890.    807.    803.
   779.    768.    785.    775.    757.    756.    789.    796.
   758.    807.    713.    750.    749.    743.    688.    764.
   754.    682.    672.    692.    737.    710.    699.    693.
   676.    669.    722.    698.    733.    676.    684.    653.
   677.    641.    656.    625.    647.    640.    607.    632.
   639.    607.    646.    602.    632.    599.    625.    620.
   596.    615.    567.    585.    602.    576.    620.    594.
   584.    616.    616.    595.    588.    592.    557.    576.
   561.    552.    604.    614.    548.    615.    574.    617.
   593.    609.    597.    586.    586.    562.    571.    550.
   578.    582.    560.    566.    556.    555.    512.    560.
   568.    591.    599.    590.    570.    525.    567.    570.
   539.    549.    550.    553.    547.    554.    578.    577.
   561.    523.    579.    546.    541.    521.    543.    582.
   541.    566.    584.    539.    550.    561.    564.    591.
   569.    615.    546.    552.    552.    558.    551.    571.
   550.    533.    532.    560.    604.    539.    585.    584.
   550.    611.    558.    567.    575.    549.    618.    587.
   638.    582.    588.    649.    617.    676.    615.    632.
   622.    625.    682.    671.    665.    721.    713.    709.
   723.    757.    736.    743.    745.    763.    796.    822.
   803.    828.    796.    774.    836.    801.    830.    859.
   879.    885.    847.    899.    945.    948.    959.    991.
  1058.   1153.   1113.   1188.   1256.   1317.   1418.   1525.
  1594.   1793.   1857.   2002.   2120.   2234.   2456.   2617.
  2818.   3044.   3157.   3352.   3525.   3664.   3736.   3695.
  3649.   3686.   3623.   3570.   3355.   3151.   3079.   2823.
  2760.   2655.   2483.   2319.   2238.   2206.   2066.   2122.
  2155.   2135.   2183.   2248.   2210.   2241.   2258.   2201.
  2143.   2013.   1847.   1811.   1604.   1566.   1406.   1307.
  1199.   1180.   1068.   1041.   1018.    937.    899.    871.
   864.    846.    761.    754.    725.    750.    661.    709.
   629.    668.    609.    603.    615.    608.    578.    592.
   582.    584.    562.    565.    557.    543.    535.    514.
   495.    526.    546.    520.    564.    535.    538.    504.
   552.    469.    499.    494.    485.    507.    481.    502.
   470.    506.    507.    471.    478.    495.    461.    487.
   493.    463.    473.    483.    522.    462.    457.    466.
   503.    475.    480.    468.    436.    475.    493.    470.
   476.    444.    475.    465.    458.    464.    457.    424.
   488.    489.    449.    436.    461.    444.    482.    435.
   450.    494.    424.    438.    484.    429.    436.    456.
   475.    476.    469.    444.    397.    433.    471.    445.
   438.    466.    424.    456.    444.    460.    428.    462.
   457.    451.    419.    430.    460.    423.    403.    448.
   435.    403.    436.    437.    442.    422.    436.    444.
   414.    443.    434.    426.    470.    414.    433.    443.
   428.    462.    476.    428.    411.    447.    445.    421.
   447.    401.    425.    438.    411.    455.    450.    397.
   398.    432.    454.    421.    454.    451.    441.    426.
   428.    453.    446.    453.    462.    452.    413.    460.
   446.    450.    439.    427.    403.    431.    464.    439.
   435.    435.    459.    428.    481.    439.    478.    484.
   484.    436.    492.    473.    437.    458.    472.    439.
   451.    423.    399.    439.    383.    428.    453.    467.
   421.    468.    410.    418.    443.    442.    416.    442.
   391.    412.    423.    416.    428.    416.    452.    423.
   373.    437.    423.    399.    385.    423.    431.    442.
   430.    409.    427.    472.    433.    433.    407.    429.
   424.    411.    453.    420.    410.    400.    442.    421.
   419.    423.    447.    415.    423.    433.    391.    383.
   418.    423.    390.    400.    419.    401.    444.    423.
   433.    423.    430.    426.    423.    401.    422.    390.
   408.    378.    414.    433.    438.    381.    429.    403.
   385.    404.    440.    427.    416.    405.    422.    416.
   420.    406.    415.    443.    410.    402.    432.    407.
   430.    393.    419.    389.    419.    412.    450.    447.
   442.    407.    427.    409.    382.    418.    424.    413.
   375.    394.    389.    423.    415.    396.    418.    411.
   446.    417.    433.    390.    414.    423.    420.    407.
   412.    392.    429.    429.    421.    390.    405.    407.
   428.    444.    436.    411.    387.    410.    398.    417.
   383.    393.    432.    451.    415.    426.    406.    449.
   446.    425.    461.    444.    471.    438.    475.    495.
   532.    518.    501.    526.    581.    589.    596.    612.
   648.    631.    644.    600.    549.    541.    590.    535.
   498.    537.    515.    470.    474.    481.    506.    489.
   492.    506.    535.    560.    578.    575.    645.    681.
   689.    713.    784.    798.    861.    829.    769.    757.
   705.    684.    676.    678.    663.    659.    670.    684.
   646.    707.    629.    622.    595.    586.    552.    526.
   508.    487.    495.    505.    505.    466.    448.    433.
   449.    420.    475.    428.    425.    478.    421.    393.
   422.    385.    442.    374.    396.    451.    477.    399.
   395.    435.    430.    393.    397.    438.    410.    390.
   416.    422.    430.    420.    380.    422.    405.    445.
   395.    392.    391.    409.    415.    391.    431.    416.
   406.    449.    402.    388.    367.    375.    414.    406.
   376.    410.    403.    401.    392.    416.    408.    438.
   398.    416.    416.    378.    388.    426.    410.    403.
   419.    394.    411.    435.    410.    401.    388.    409.
   421.    399.    393.    423.    453.    380.    411.    400.
   412.    408.    413.    403.    426.    408.    424.    416.
   421.    418.    425.    439.    411.    413.    423.    441.
   456.    434.    426.    475.    465.    447.    438.    505.
   485.    499.    482.    490.    505.    504.    499.    457.
   476.    490.    464.    458.    489.    483.    440.    467.
   453.    454.    459.    429.    435.    435.    460.    439.
   420.    457.    448.    434.    408.    443.    450.    430.
   459.    493.    475.    488.    462.    466.    489.    465.
   481.    488.    488.    506.    508.    533.    565.    574.
   513.    497.    528.    559.    563.    579.    534.    540.
   591.    570.    590.    569.    582.    562.    590.    655.
   660.    666.    658.    708.    720.    726.    760.    789.
   820.    792.    902.    956.    931.    973.   1109.   1146.
  1182.   1175.   1282.   1379.   1377.   1498.   1561.   1584.
  1684.   1758.   1933.   1872.   2021.   2009.   2109.   2071.
  2097.   2173.   2151.   2211.   2171.   2161.   2074.   2109.
  1891.   1882.   1735.   1671.   1658.   1586.   1483.   1365.
  1295.   1204.   1140.   1047.   1049.   1025.    948.    912.
   806.    818.    814.    800.    774.    777.    766.    740.
   701.    729.    705.    679.    677.    726.    753.    733.
   743.    759.    785.    778.    838.    818.    847.    865.
   866.    886.    922.    949.    970.   1078.   1030.   1058.
  1062.   1051.   1070.   1106.   1116.   1109.   1125.   1147.
  1102.   1131.   1155.   1144.   1148.   1199.   1160.   1143.
  1214.   1185.   1166.   1079.   1122.    985.   1009.    941.
   884.    785.    829.    753.    672.    709.    677.    640.
   592.    594.    566.    573.    529.    586.    513.    550.
   559.    572.    569.    511.    523.    561.    546.    503.
   512.    484.    459.    464.    515.    462.    460.    443.
   461.    488.    455.    436.    459.    480.    478.    480.
   537.    535.    542.    562.    577.    602.    635.    646.
   697.    766.    795.    768.    757.    703.    666.    694.
   603.    608.    593.    572.    585.    528.    506.    507.
   467.    470.    446.    456.    433.    421.    450.    423.
   464.    426.    407.    475.    423.    458.    408.    445.
   426.    449.    435.    426.    440.    432.    437.    399.
   422.    422.    432.    472.    448.    459.    484.    458.
   485.    474.    452.    430.    446.    409.    408.    430.
   434.    404.    432.    439.    405.    434.    436.    411.
   386.    403.    451.    410.    393.    402.    397.    372.
   402.    436.    395.    406.    390.    429.    411.    380.
   394.    420.    385.    390.    450.    414.    410.    412.
   411.    405.    427.    412.    396.    414.    412.    423.
   407.    420.    405.    437.    446.    442.    430.    476.
   476.    426.    483.    463.    466.    456.    458.    479.
   461.    442.    436.    435.    444.    453.    448.    459.
   403.    398.    419.    408.    388.    409.    415.    416.
   401.    396.    395.    433.    372.    384.    409.    413.
   435.    393.    417.    391.    407.    407.    399.    390.
   401.    438.    396.    392.    413.    401.    385.    384.
   388.    400.    389.    405.    399.    399.    404.    395.
   401.    363.    420.    399.    400.    408.    426.    417.
   445.    391.    403.    409.    404.    376.    381.    374.
   394.    414.    382.    391.    419.    406.    401.    409.
   419.    418.    430.    385.    405.    443.    395.    452.
   428.    434.    409.    414.    423.    426.    413.    424.
   432.    425.    410.    430.    462.    432.    453.    470.
   480.    458.    477.    471.    461.    438.    439.    446.
   463.    424.    480.    463.    424.    431.    467.    422.
   491.    461.    505.    477.    517.    465.    530.    513.
   528.    535.    582.    571.    596.    614.    611.    629.
   625.    653.    641.    672.    636.    668.    677.    617.
   599.    538.    550.    531.    567.    507.    521.    513.
   484.    518.    537.    515.    514.    491.    507.    545.
   523.    507.    472.    493.    527.    481.    450.    459.
   480.    455.    455.    449.    460.    438.    439.    452.
   443.    417.    415.    436.    460.    411.    413.    431.
   400.    403.    437.    412.    396.    404.    444.    389.
   374.    438.    399.    417.    407.    402.    388.    420.
   386.    436.    416.    423.    425.    389.    417.    402.
   405.    373.    394.    383.    427.    419.    408.    366.
   423.    426.    401.    403.    408.    378.    392.    439.
   403.    417.    404.    388.    397.    380.    431.    392.
   391.    397.    385.    393.    432.    421.    385.    415.
   402.    383.    402.    392.    388.    405.    433.    409.
   400.    450.    369.    412.    424.    384.    412.    420.
   419.    392.    390.    409.    405.    398.    377.    400.
   391.    393.    420.    392.    414.    410.    419.    468.
   413.    427.    385.    406.    433.    437.    414.    425.
   409.    434.    414.    399.    444.    449.    451.    470.
   414.    452.    443.    430.    451.    434.    411.    417.
   408.    419.    410.    427.    408.    412.    429.    417.
   423.    411.    390.    403.    380.    394.    390.    415.
   404.    398.    381.    378.    417.    405.    357.    387.
   397.    397.    412.    421.    391.    384.    399.    406.
   425.    411.    408.    397.    386.    410.    400.    431.
   443.    460.    465.    440.    452.    446.    477.    482.
   490.    491.    492.    483.    496.    479.    455.    461.
   496.    454.    453.    478.    458.    452.    499.    497.
   539.    506.    469.    540.    513.    474.    518.    480.
   487.    494.    457.    472.    404.    420.    439.    432.
   396.    440.    415.    423.    394.    410.    395.    402.
   392.    395.    390.    385.    386.    382.    419.    372.
   368.    403.    419.    365.    392.    393.    375.    384.
   384.    390.    407.    402.    397.    395.    382.    411.
   412.    374.    404.    381.    380.    431.    375.    402.
   376.    410.    404.    405.    411.    400.    409.    392.
   389.    402.    394.    406.    356.    400.    401.    389.
   403.    441.    414.    419.    388.    360.    414.    394.
   376.    411.    441.    422.    396.    385.    439.    413.
   373.    411.    412.    400.    411.    405.    410.    406.
   411.    419.    399.    393.    386.    422.    408.    417.
   424.    429.    426.    389.    423.    414.    434.    462.
   426.    449.    441.    480.    482.    484.    492.    479.
   487.    473.    474.    503.    477.    464.    438.    468.
   472.    480.    440.    439.    454.    450.    464.    399.
   397.    446.    455.    427.    438.    412.    421.    380.
   443.    388.    411.    396.    418.    429.    419.    376.
   395.    392.    404.    392.    399.    383.    390.    384.
   396.    401.    430.    384.    405.    389.    401.    391.
   385.    422.    406.    417.    397.    388.    420.    405.
   402.    407.    426.    415.    427.    415.    392.    407.
   414.    402.    420.    385.    429.    419.    387.    415.
   425.    425.    422.    422.    428.    423.    394.    384.
   413.    434.    413.    434.    424.    398.    411.    440.
   445.    440.    449.    417.    427.    443.    425.    446.
   435.    449.    434.    422.    407.    439.    424.    406.
   413.    443.    437.    410.    449.    410.    429.    414.
   439.    444.    413.    444.    466.    438.    425.    464.
   459.    461.    445.    460.    488.    474.    470.    445.
   486.    489.    518.    441.    487.    486.    448.    509.
   452.    482.    491.    509.    496.    503.    496.    490.
   498.    488.    504.    491.    498.    491.    541.    498.
   539.    543.    551.    531.    531.    542.    504.    557.
   546.    564.    572.    579.    623.    581.    629.    619.
   633.    600.    648.    654.    637.    698.    712.    731.
   734.    743.    727.    781.    785.    795.    913.    924.
   911.    942.    956.   1029.   1073.   1106.   1125.   1175.
  1237.   1317.   1311.   1432.   1470.   1607.   1708.   1811.
  1975.   1960.   2095.   2258.   2407.   2595.   2620.   2843.
  3051.   3183.   3521.   3573.   3759.   4159.   4302.   4554.
  4780.   4985.   5069.   5280.   5375.   5369.   5348.   5370.
  5318.   5122.   5073.   4881.   4604.   4400.   4225.   4007.
  3667.   3536.   3330.   3195.   2971.   2800.   2567.   2418.
  2297.   2180.   2061.   1900.   1769.   1737.   1678.   1624.
  1493.   1413.   1362.   1281.   1247.   1191.   1195.   1126.
  1077.   1059.   1024.   1047.   1017.    958.    993.    943.
   986.    963.    939.    909.    920.    914.    949.    938.
   931.    932.    869.    920.    914.    886.    915.    968.
   918.    927.   1011.    966.    982.   1044.   1086.   1076.
  1084.   1161.   1213.   1239.   1292.   1360.   1375.   1461.
  1576.   1578.   1688.   1803.   1950.   1975.   2100.   2220.
  2408.   2481.   2724.   2890.   3098.   3288.   3490.   3699.
  3884.   4169.   4373.   4662.   4737.   5094.   4991.   5170.
  5305.   5320.   5235.   5129.   4942.   4866.   4600.   4387.
  4241.   3881.   3752.   3481.   3320.   3074.   2890.   2729.
  2548.   2430.   2244.   2117.   2037.   1946.   1717.   1709.
  1622.   1515.   1442.   1367.   1263.   1151.   1174.   1123.
  1117.   1076.   1030.    984.    949.    866.    852.    835.
   769.    764.    787.    746.    725.    720.    653.    676.
   695.    687.    617.    618.    597.    633.    603.    579.
   552.    557.    562.    531.    543.    594.    590.    547.
   525.    498.    501.    500.    469.    493.    532.    484.
   478.    487.    445.    483.    494.    508.    493.    489.
   488.    442.    473.    459.    483.    495.    457.    491.
   487.    491.    474.    472.    445.    476.    496.    461.
   412.    449.    465.    440.    469.    482.    444.    486.
   404.    399.    449.    435.    427.    435.    439.    447.
   435.    472.    412.    500.    446.    431.    438.    428.
   443.    421.    437.    465.    463.    433.    435.    393.
   429.    465.    453.    409.    426.    465.    428.    465.
   453.    440.    437.    468.    453.    451.    472.    466.
   464.    464.    446.    470.    513.    496.    531.    512.
   509.    523.    544.    538.    515.    528.    517.    519.
   537.    531.    516.    546.    541.    566.    535.    546.
   588.    627.    614.    576.    588.    593.    612.    571.
   550.    547.    569.    539.    513.    475.    501.    471.
   448.    470.    485.    440.    427.    466.    447.    421.
   451.    415.    432.    469.    428.    398.    441.    403.
   457.    446.    395.    407.    389.    429.    435.    441.
   420.    416.    418.    410.    418.    449.    423.    370.
   447.    403.    403.    426.    424.    403.    441.    419.
   376.    416.    396.    414.    385.    401.    396.    401.
   420.    434.    412.    416.    392.    419.    421.    393.
   403.    407.    441.    420.    425.    403.    399.    421.
   411.    373.    381.    399.    450.    441.    424.    458.
   461.    411.    407.    414.    415.    419.    435.    395.
   467.    390.    413.    402.    430.    432.    418.    411.
   438.    412.    431.    434.    448.    416.    418.    405.
   432.    415.    443.    398.    442.    425.    429.    417.
   452.    395.    414.    391.    438.    461.    405.    421.
   396.    414.    453.    405.    431.    414.    413.    433.
   433.    426.    417.    376.    420.    444.    394.    431.
   401.    423.    411.    394.    390.    400.    404.    401.
   415.    405.    407.    410.    408.    420.    396.    420.
   386.    419.    410.    421.    402.    382.    422.    398.
   392.    454.    439.    415.    413.    431.    430.    398.
   397.    425.    403.    418.    422.    396.    409.    411.
   428.    425.    398.    437.    405.    394.    438.    450.
   420.    418.    423.    459.    429.    411.    422.    418.
   432.    436.    415.    421.    424.    439.    411.    414.
   410.    409.    437.    421.    429.    416.    415.    434.
   433.    405.    386.    430.    426.    398.    430.    443.
   440.    420.    452.    470.    445.    428.    437.    452.
   474.    415.    453.    464.    471.    471.    454.    457.
   447.    447.    429.    471.    476.    503.    488.    473.
   484.    460.    495.    525.    486.    522.    483.    471.
   451.    491.    455.    465.    455.    454.    459.    496.
   452.    462.    451.    458.    458.    443.    452.    467.
   466.    410.    485.    444.    454.    443.    444.    438.
   420.    437.    466.    484.    479.    478.    460.    450.
   440.    456.    434.    473.    448.    466.    424.    479.
   474.    475.    470.    440.    406.    445.    469.    436.
   432.    434.    456.    448.    469.    447.    460.    440.
   426.    447.    490.    442.    470.    453.    439.    474.
   455.    443.    494.    493.    481.    434.    476.    462.
   434.    461.    453.    495.    491.    473.    467.    482.
   505.    473.    499.    486.    497.    511.    509.    488.
   519.    506.    536.    540.    495.    491.    465.    563.
   513.    556.    532.    576.    612.    611.    594.    593.
   590.    635.    660.    642.    735.    661.    732.    773.
   758.    898.    923.    935.   1015.   1097.   1287.   1310.
  1504.   1679.   1866.   2136.   2416.   2800.   3056.   3736.
  4107.   4665.   5247.   5779.   6228.   6579.   6733.   6548.
  6201.   5803.   5111.   4706.   4232.   3697.   3261.   2916.
  2642.   2466.   2265.   2044.   1872.   1668.   1490.   1415.
  1256.   1174.   1124.   1067.    968.    910.    864.    831.
   840.    820.    781.    740.    779.    747.    708.    677.
   693.    717.    703.    647.    657.    639.    623.    662.
   646.    629.    609.    585.    602.    645.    603.    593.
   593.    607.    610.    618.    631.    611.    592.    642.
   582.    574.    599.    592.    598.    595.    617.    577.
   544.    618.    614.    593.    592.    648.    589.    597.
   637.    629.    658.    664.    694.    650.    638.    647.
   622.    672.    678.    651.    675.    686.    699.    680.
   711.    689.    721.    699.    715.    699.    715.    717.
   750.    751.    807.    764.    748.    799.    761.    788.
   820.    827.    802.    804.    855.    801.    810.    841.
   864.    899.    923.    886.    935.    912.    891.    964.
   978.   1010.   1002.   1049.   1055.   1124.   1111.   1113.
  1148.   1156.   1122.   1190.   1181.   1245.   1255.   1377.
  1363.   1402.   1493.   1476.   1535.   1629.   1709.   1686.
  1831.   1852.   1962.   2044.   2084.   2205.   2272.   2293.
  2555.   2656.   2714.   2827.   2999.   3091.   3366.   3501.
  3646.   3915.   4071.   4389.   4568.   4812.   5085.   5519.
  5871.   6130.   6715.   6971.   7301.   7776.   8139.   8732.
  9245.   9767.  10203.  10720.  11440.  12112.  12532.  13092.
 13765.  14141.  14720.  15067.  15542.  15904.  16247.  16476.
 16664.  16814.  17085.  17242.  17505.  17475.  17649.  17806.
 17590.  17445.  17192.  16954.  16696.  16179.  15628.  15170.
 14538.  13944.  13349.  12691.  12220.  11651.  10948.  10386.
  9993.   9393.   8897.   8554.   7985.   7706.   7193.   6893.
  6598.   6137.   5971.   5680.   5321.   5142.   4931.   4693.
  4400.   4270.   4003.   3852.   3725.   3723.   3560.   3417.
  3397.   3166.   3169.   3067.   3049.   2984.   2866.   2978.
  2862.   2865.   2904.   2913.   2975.   2876.   3012.   2915.
  2996.   3134.   3145.   3234.   3293.   3372.   3508.   3536.
  3619.   3641.   3969.   4074.   4228.   4229.   4364.   4644.
  4582.   4595.   4823.   4852.   5030.   4878.   4920.   4859.
  4801.   4694.   4642.   4543.   4423.   4209.   4113.   3954.
  3847.   3783.   3647.   3316.   3262.   3081.   2913.   2865.
  2750.   2509.   2468.   2324.   2196.   2175.   2072.   2001.
  1935.   1883.   1750.   1723.   1637.   1497.   1509.   1441.
  1459.   1441.   1350.   1342.   1270.   1283.   1259.   1246.
  1150.   1160.   1154.   1110.   1118.   1103.   1102.   1003.
  1017.   1033.    993.    987.   1038.   1045.   1026.    996.
   978.    994.   1076.   1009.    946.    957.    960.    911.
   899.    909.    890.    860.    835.    856.    863.    837.
   818.    827.    871.    879.    802.    825.    793.    759.
   808.    805.    802.    841.    765.    820.    827.    860.
   838.    810.    836.    807.    844.    826.    869.    844.
   782.    847.    913.    846.    849.    882.    862.    899.
   873.    915.    932.    922.    890.    898.    897.    942.
   981.    988.   1009.   1025.   1021.   1073.   1055.   1109.
  1048.   1102.   1118.   1119.   1145.   1186.   1240.   1260.
  1319.   1407.   1384.   1427.   1556.   1517.   1612.   1640.
  1684.   1821.   1805.   1923.   1980.   2068.   2181.   2332.
  2377.   2407.   2444.   2598.   2682.   2831.   3030.   3066.
  3179.   3270.   3457.   3431.   3668.   3697.   3969.   3969.
  4100.   4184.   4306.   4437.   4628.   4673.   4910.   4927.
  5127.   5224.   5456.   5591.   5730.   5826.   5913.   6114.
  6143.   6276.   6194.   6269.   6335.   6212.   6033.   6025.
  6060.   6011.   5807.   5928.   5906.   5919.   6032.   5758.
  6001.   6003.   6159.   6224.   6332.   6577.   6652.   6975.
  7328.   7549.   8046.   8133.   8728.   9133.   9618.  10150.
 10569.  11173.  11413.  11883.  12236.  12765.  12950.  12952.
 12821.  12730.  12508.  12321.  12053.  11602.  11180.  11004.
 10574.  10320.  10150.   9814.   9639.   9544.   9434.   9315.
  9265.   9071.   9083.   9001.   9042.   8875.   8886.   8841.
  8603.   8304.   8197.   7953.   7710.   7377.   7135.   6826.
  6374.   6273.   5892.   5469.   5353.   5022.   4825.   4514.
  4282.   4174.   3990.   3831.   3603.   3403.   3215.   3125.
  3017.   2890.   2745.   2591.   2489.   2465.   2422.   2334.
  2141.   2089.   2131.   2067.   2070.   1941.   1892.   1779.
  1829.   1755.   1699.   1597.   1597.   1564.   1570.   1484.
  1440.   1398.   1375.   1249.   1257.   1212.   1139.   1203.
  1114.   1110.   1093.   1094.   1063.   1027.   1054.    944.
   946.    897.    877.    939.    856.    855.    874.    830.
   818.    818.    834.    759.    774.    798.    714.    749.
   702.    756.    740.    673.    727.    677.    671.    723.
   668.    676.    652.    674.    639.    640.    663.    627.
   630.    627.    638.    649.    659.    630.    648.    650.
   634.    620.    580.    599.    571.    605.    619.    597.
   612.    642.    613.    589.    548.    581.    602.    554.
   546.    540.    599.    598.    564.    544.    575.    601.
   598.    551.    579.    570.    569.    595.    553.    518.
   550.    539.    581.    568.    526.    598.    556.    541.
   587.    554.    543.    545.    540.    554.    574.    572.
   517.    556.    544.    577.    536.    526.    564.    521.
   505.    550.    525.    544.    511.    557.    520.    538.
   556.    529.    542.    530.    523.    523.    557.    567.
   557.    522.    532.    514.    561.    549.    560.    589.
   551.    548.    528.    528.    542.    530.    532.    511.
   557.    535.    538.    558.    575.    538.    511.    517.
   533.    518.    564.    557.    568.    544.    526.    512.
   539.    538.    579.    536.    563.    550.    511.    524.
   525.    521.    507.    548.    531.    551.    517.    485.
   565.    487.    556.    569.    582.    545.    562.    514.
   554.    547.    539.    566.    535.    530.    547.    572.
   541.    521.    549.    541.    532.    528.    563.    518.
   596.    533.    527.    560.    554.    580.    531.    542.
   550.    548.    547.    540.    564.    538.    540.    556.
   557.    580.    583.    544.    578.    544.    550.    569.
   538.    570.    545.    606.    577.    538.    571.    609.
   598.    612.    573.    564.    585.    567.    558.    580.
   564.    549.    601.    569.    574.    562.    598.    612.
   578.    598.    597.    581.    565.    614.    625.    585.
   622.    590.    580.    592.    603.    625.    631.    619.
   654.    664.    638.    626.    636.    692.    650.    664.
   637.    622.    614.    647.    707.    678.    657.    670.
   715.    679.    673.    681.    677.    702.    689.    737.
   719.    733.    702.    695.    728.    765.    695.    762.
   761.    768.    745.    794.    749.    802.    785.    797.
   752.    820.    817.    808.    842.    866.    788.    847.
   888.    904.    905.    903.    900.    881.    930.    973.
   992.    991.    941.   1041.   1028.   1056.   1086.   1121.
  1132.   1130.   1206.   1191.   1150.   1174.   1230.   1343.
  1339.   1377.   1401.   1424.   1461.   1504.   1639.   1636.
  1748.   1737.   1829.   1906.   1944.   2077.   2147.   2240.
  2288.   2441.   2530.   2650.   2770.   2859.   2953.   3069.
  3302.   3451.   3578.   3747.   3954.   4244.   4508.   4702.
  4941.   5247.   5680.   6104.   6357.   6672.   7111.   7490.
  7888.   8268.   8722.   9205.   9555.   9895.  10363.  10899.
 11226.  11553.  11726.  12093.  12089.  12329.  12599.  12494.
 12647.  12782.  12755.  12764.  12854.  12921.  12811.  12676.
 12716.  12421.  12109.  12011.  11845.  11794.  11612.  11377.
 11466.  11210.  11197.  11053.  11063.  11036.  10935.  11098.
 11119.  11232.  11040.  10846.  11145.  10861.  11077.  11274.
 11270.  11178.  11250.  11282.  11387.  11549.  11484.  11498.
 11684.  11616.  11659.  11696.  11607.  11569.  11369.  11547.
 11277.  11172.  10944.  10521.  10341.  10225.   9710.   9418.
  8985.   8555.   8349.   7989.   7793.   7429.   7017.   6982.
  6511.   6285.   6009.   5718.   5439.   5187.   4941.   4732.
  4613.   4458.   4168.   3991.   3851.   3661.   3444.   3336.
  3212.   3157.   3033.   2991.   2910.   2837.   2702.   2685.
  2624.   2641.   2442.   2402.   2336.   2192.   2214.   2048.
  2063.   2077.   1990.   1930.   1815.   1917.   1756.   1650.
  1633.   1565.   1524.   1445.   1382.   1326.   1387.   1295.
  1284.   1266.   1252.   1173.   1116.   1096.   1093.   1064.
  1074.   1083.    994.   1001.    977.    998.    946.    954.
   932.    903.    888.    881.    902.    857.    833.    816.
   834.    813.    832.    765.    772.    797.    778.    782.
   782.    773.    744.    696.    700.    741.    708.    700.
   712.    680.    668.    681.    668.    658.    646.    687.
   691.    678.    656.    631.    659.    671.    668.    677.
   657.    633.    632.    625.    633.    625.    663.    576.
   642.    654.    639.    612.    590.    583.    601.    582.
   613.    587.    577.    637.    591.    577.    576.    570.
   588.    578.    547.    582.    625.    567.    571.    557.
   570.    584.    556.    577.    558.    584.    564.    547.
   571.    531.    548.    529.    551.    593.    570.    554.
   573.    588.    564.    587.    566.    577.    551.    573.
   518.    519.    555.    497.    542.    577.    586.    523.
   574.    563.    600.    574.    596.    561.    571.    556.
   550.    531.    572.    624.    592.    583.    587.    598.
   594.    649.    619.    606.    657.    651.    694.    706.
   732.    662.    708.    711.    735.    668.    651.    688.
   668.    674.    694.    681.    673.    679.    723.    744.
   733.    785.    839.    869.    873.    945.    993.   1023.
  1075.   1089.   1102.   1097.   1032.   1059.    996.    937.
   948.    892.    812.    816.    823.    756.    722.    697.
   694.    673.    664.    638.    657.    628.    642.    657.
   608.    638.    602.    568.    636.    667.    640.    648.
   663.    688.    707.    764.    770.    830.    864.    894.
   957.   1022.   1053.   1078.   1112.   1102.    991.    984.
   927.    922.    847.    841.    816.    762.    766.    662.
   649.    613.    633.    628.    607.    622.    579.    552.
   553.    565.    559.    582.    558.    569.    556.    548.
   535.    494.    520.    554.    540.    503.    518.    498.
   485.    503.    523.    497.    465.    499.    457.    501.
   488.    518.    547.    496.    502.    480.    490.    516.
   495.    481.    500.    476.    512.    493.    528.    529.
   506.    502.    489.    482.    500.    481.    514.    517.
   509.    492.    474.    495.    496.    512.    479.    514.
   495.    510.    515.    505.    511.    547.    489.    487.
   554.    565.    564.    519.    519.    538.    527.    597.
   546.    542.    551.    554.    548.    563.    562.    575.
   584.    574.    604.    560.    563.    584.    583.    559.
   558.    542.    598.    518.    559.    555.    511.    576.
   547.    495.    512.    538.    546.    535.    534.    500.
   534.    496.    506.    499.    467.    497.    502.    481.
   504.    494.    493.    474.    467.    502.    470.    478.
   497.    485.    498.    512.    517.    505.    472.    522.
   546.    492.    507.    510.    483.    519.    479.    499.
   482.    512.    466.    446.    475.    459.    486.    498.
   490.    445.    476.    502.    484.    504.    469.    494.
   460.    489.    490.    479.    473.    500.    473.    485.
   518.    519.    477.    450.    498.    508.    486.    479.
   479.    511.    507.    515.    485.    512.    499.    497.
   508.    532.    512.    452.    511.    513.    492.    499.
   504.    470.    480.    480.    493.    500.    502.    503.
   472.    507.    502.    498.    481.    506.    469.    471.
   475.    488.    474.    463.    502.    509.    505.    469.
   462.    468.    503.    502.    478.    486.    439.    490.
   512.    504.    517.    479.    518.    514.    504.    468.
   465.    507.    451.    493.    504.    515.    475.    507.
   484.    474.    472.    485.    489.    488.    502.    494.
   491.    490.    523.    452.    467.    517.    467.    468.
   486.    469.    511.    486.    495.    517.    481.    517.
   494.    508.    460.    533.    503.    522.    518.    528.
   513.    498.    525.    543.    548.    522.    479.    523.
   514.    520.    553.    569.    574.    527.    558.    546.
   553.    538.    524.    563.    563.    571.    537.    507.
   528.    524.    527.    502.    532.    500.    511.    507.
   476.    511.    478.    487.    500.    498.    515.    493.
   501.    514.    484.    486.    522.    481.    471.    466.
   472.    501.    490.    492.    468.    435.    494.    469.
   479.    456.    515.    475.    484.    513.    456.    484.
   528.    493.    464.    502.    490.    497.    500.    468.
   483.    480.    506.    497.    455.    494.    493.    533.
   487.    504.    522.    470.    459.    505.    489.    495.
   487.    520.    456.    454.    510.    468.    472.    468.
   454.    468.    479.    495.    475.    499.    457.    463.
   478.    482.    498.    471.    544.    460.    479.    511.
   493.    524.    478.    463.    518.    489.    522.    465.
   509.    537.    495.    492.    493.    513.    511.    516.
   505.    542.    467.    512.    457.    489.    512.    497.
   493.    510.    493.    494.    528.    462.    525.    475.
   504.    503.    461.    511.    497.    494.    495.    504.
   477.    460.    483.    486.    529.    518.    495.    476.
   472.    550.    500.    500.    476.    505.    494.    483.
   538.    497.    485.    479.    516.    490.    479.    517.
   489.    510.    513.    473.    508.    501.    470.    501.
   512.    515.    514.    488.    530.    501.    530.    489.
   513.    515.    560.    517.    559.    561.    571.    546.
   530.    574.    530.    515.    534.    548.    557.    580.
   474.    539.    547.    500.    470.    551.    569.    515.
   509.    533.    539.    502.    523.    593.    561.    481.
   530.    513.    520.    554.    544.    534.    511.    548.
   559.    530.    558.    532.    538.    554.    503.    554.
   519.    533.    542.    562.    586.    580.    587.    593.
   561.    558.    529.    561.    556.    560.    568.    542.
   596.    593.    594.    582.    566.    575.    631.    609.
   624.    596.    619.    620.    636.    593.    627.    630.
   598.    609.    566.    623.    626.    605.    611.    644.
   671.    600.    635.    636.    667.    658.    659.    635.
   681.    650.    672.    673.    669.    706.    684.    689.
   690.    737.    748.    757.    708.    732.    764.    770.
   756.    774.    809.    743.    800.    860.    829.    837.
   878.    886.    912.    873.    904.    970.    993.   1026.
  1009.    993.   1081.   1026.   1101.   1077.   1146.   1096.
  1106.   1237.   1264.   1292.   1302.   1378.   1352.   1390.
  1445.   1461.   1521.   1565.   1643.   1650.   1752.   1775.
  1824.   1883.   1947.   1950.   2054.   2162.   2111.   2244.
  2401.   2455.   2387.   2441.   2455.   2475.   2503.   2423.
  2574.   2434.   2525.   2500.   2478.   2595.   2632.   2614.
  2652.   2642.   2751.   2777.   2800.   2797.   2936.   3064.
  3147.   3246.   3358.   3470.   3628.   3719.   3827.   4039.
  4316.   4430.   4671.   5014.   5101.   5493.   5704.   6056.
  6345.   6764.   7342.   7735.   8083.   8656.   9101.   9442.
 10128.  10753.  11296.  12112.  12621.  13177.  13593.  14360.
 14983.  15548.  16189.  16426.  17017.  17079.  17287.  17306.
 17301.  17152.  16540.  16411.  15935.  15516.  14843.  14276.
 13681.  12951.  12317.  11961.  11324.  10622.  10069.   9520.
  9171.   8551.   8191.   7483.   7186.   6971.   6523.   6268.
  5957.   5747.   5452.   5131.   5093.   4920.   4570.   4498.
  4354.   4213.   4161.   4074.   3877.   3919.   3828.   3747.
  3727.   3777.   3550.   3683.   3687.   3554.   3624.   3703.
  3475.   3565.   3702.   3627.   3656.   3741.   3654.   3577.
  3611.   3665.   3570.   3604.   3470.   3331.   3324.   3316.
  3228.   3112.   3033.   3019.   2903.   2780.   2690.   2694.
  2588.   2452.   2357.   2347.   2271.   2157.   2066.   2004.
  1948.   1957.   1844.   1720.   1730.   1708.   1700.   1626.
  1555.   1479.   1506.   1457.   1433.   1326.   1259.   1229.
  1241.   1174.   1168.   1128.   1123.   1075.   1058.   1018.
   987.   1024.    994.   1032.    951.    914.    927.    899.
   892.    887.    909.    884.    861.    839.    842.    779.
   784.    754.    757.    801.    780.    760.    774.    763.
   714.    739.    694.    742.    744.    746.    699.    704.
   679.    671.    697.    693.    668.    666.    686.    671.
   681.    660.    712.    686.    662.    641.    645.    647.
   655.    629.    603.    607.    659.    655.    663.    648.
   597.    580.    593.    633.    603.    643.    616.    612.
   623.    598.    618.    602.    583.    587.    610.    584.
   599.    601.    555.    587.    612.    591.    583.    578.
   597.    594.    578.    585.    600.    589.    579.    595.
   592.    607.    585.    631.    619.    638.    621.    657.
   642.    611.    584.    598.    665.    639.    618.    628.
   626.    629.    632.    629.    590.    563.    601.    593.
   581.    584.    570.    582.    559.    584.    586.    556.
   575.    587.    584.    599.    614.    588.    598.    564.
   608.    610.    594.    598.    602.    575.    622.    590.
   580.    621.    593.    583.    601.    578.    594.    650.
   630.    651.    609.    619.    646.    609.    659.    655.
   655.    640.    657.    662.    652.    628.    637.    668.
   626.    619.    621.    644.    654.    651.    683.    606.
   625.    654.    667.    662.    655.    679.    680.    699.
   666.    657.    651.    634.    658.    635.    657.    628.
   667.    665.    671.    667.    659.    646.    727.    657.
   731.    720.    714.    685.    687.    710.    708.    720.
   728.    727.    738.    693.    732.    684.    774.    712.
   765.    777.    793.    779.    778.    793.    801.    825.
   866.    812.    876.    880.    910.    888.    951.    945.
   929.    947.   1024.   1068.   1074.   1116.   1153.   1216.
  1135.   1281.   1332.   1375.   1422.   1444.   1535.   1513.
  1575.   1600.   1592.   1650.   1598.   1532.   1534.   1563.
  1564.   1469.   1489.   1550.   1497.   1628.   1516.   1581.
  1627.   1666.   1751.   1698.   1799.   1953.   1991.   2051.
  2134.   2290.   2399.   2531.   2730.   2843.   3014.   3215.
  3356.   3542.   3822.   3939.   4039.   4097.   4268.   4353.
  4459.   4308.   4448.   4447.   4434.   4527.   4521.   4687.
  4706.   4878.   4999.   5240.   5401.   5731.   5859.   6060.
  6318.   6568.   6771.   7151.   7261.   7516.   7914.   8062.
  8386.   8649.   8974.   9203.   9512.   9712.   9782.  10128.
 10323.  10895.  10861.  11124.  11501.  11845.  12145.  12231.
 12402.  12668.  13007.  13387.  13673.  13981.  14363.  14626.
 15042.  15132.  15354.  15399.  15696.  15802.  15501.  15400.
 14944.  14718.  14162.  13691.  13181.  12499.  12407.  11854.
 11473.  10980.  10694.  10667.  10069.   9872.   9528.   9314.
  8970.   8644.   8406.   7937.   7795.   7427.   7235.   6901.
  6532.   6575.   6174.   6019.   6010.   5821.   5764.   5572.
  5440.   5323.   5426.   5324.   5378.   5201.   5353.   5286.
  5407.   5376.   5505.   5511.   5640.   5630.   5739.   5690.
  5933.   5963.   5982.   5991.   6008.   6158.   6238.   6125.
  6195.   6153.   6209.   6219.   6151.   6027.   5938.   5913.
  5774.   5648.   5582.   5353.   5274.   5101.   4937.   4962.
  4749.   4592.   4464.   4299.   4238.   4073.   3966.   3901.
  3760.   3734.   3669.   3625.   3622.   3540.   3517.   3541.
  3514.   3410.   3568.   3473.   3461.   3572.   3547.   3583.
  3700.   3860.   3848.   3925.   3965.   4046.   4151.   4192.
  4354.   4562.   4571.   4667.   4817.   4873.   4965.   4832.
  5039.   5052.   4968.   4983.   4823.   4761.   4721.   4658.
  4394.   4258.   4051.   3921.   3610.   3654.   3362.   3225.
  3075.   2934.   2816.   2580.   2545.   2388.   2303.   2217.
  2079.   2042.   1949.   1884.   1816.   1756.   1738.   1660.
  1548.   1473.   1374.   1381.   1347.   1306.   1269.   1263.
  1168.   1206.   1116.   1154.   1174.   1084.   1055.   1095.
   988.    994.   1013.    990.   1014.    935.    996.    935.
   927.    928.    947.    944.    918.    887.    899.    989.
   875.    926.    893.    883.    920.    877.    913.    875.
   870.    887.    862.    861.    894.    891.    891.    908.
   951.    969.    962.    986.    975.    983.   1002.   1014.
  1031.   1034.   1042.   1089.   1136.   1206.   1220.   1173.
  1284.   1258.   1265.   1291.   1393.   1387.   1453.   1554.
  1605.   1655.   1681.   1830.   1861.   1920.   2003.   2057.
  2212.   2204.   2274.   2460.   2461.   2443.   2497.   2563.
  2523.   2595.   2582.   2558.   2553.   2516.   2439.   2497.
  2357.   2332.   2402.   2314.   2253.   2178.   2215.   2199.
  2124.   2200.   2081.   2023.   2039.   1978.   2066.   1997.
  1999.   1991.   1991.   1963.   2000.   1935.   1996.   2001.
  1909.   1913.   1872.   1902.   1853.   1813.   1806.   1753.
  1747.   1688.   1672.   1636.   1573.   1518.   1451.   1444.
  1447.   1367.   1327.   1277.   1280.   1302.   1263.   1243.
  1189.   1124.   1155.   1065.   1127.   1133.   1028.   1072.
  1036.   1059.   1016.    993.    970.    954.   1012.   1021.
   991.   1019.    973.    930.    974.    986.    979.   1020.
   980.   1053.   1074.   1076.   1066.   1086.   1088.   1144.
  1050.   1168.   1219.   1125.   1175.   1189.   1292.   1293.
  1305.   1332.   1397.   1398.   1393.   1462.   1476.   1468.
  1537.   1589.   1643.   1708.   1665.   1685.   1766.   1738.
  1735.   1782.   1838.   1795.   1789.   1759.   1803.   1740.
  1697.   1657.   1643.   1625.   1547.   1586.   1502.   1459.
  1438.   1433.   1342.   1313.   1275.   1219.   1225.   1198.
  1142.   1163.   1042.   1044.   1086.   1039.   1065.    988.
   991.    988.    964.    968.    986.    951.    956.    907.
   881.    925.    889.    836.    844.    837.    821.    816.
   742.    770.    736.    758.    678.    704.    693.    679.
   674.    624.    626.    629.    620.    644.    669.    647.
   613.    607.    577.    545.    592.    600.    613.    604.
   581.    550.    551.    511.    519.    500.    547.    554.
   552.    523.    555.    519.    515.    519.    533.    508.
   505.    518.    522.    503.    496.    520.    489.    565.
   525.    547.    503.    484.    501.    479.    489.    516.
   504.    513.    495.    492.    474.    494.    497.    467.
   469.    498.    508.    509.    488.    490.    485.    478.
   453.    487.    491.    522.    495.    453.    484.    504.
   484.    498.    520.    482.    471.    517.    473.    480.
   468.    463.    466.    511.    496.    479.    451.    483.
   478.    473.    499.    494.    467.    498.    469.    483.
   491.    480.    475.    468.    496.    474.    479.    476.
   492.    496.    470.    518.    490.    486.    462.    480.
   430.    464.    500.    493.    483.    477.    470.    469.
   466.    463.    525.    493.    519.    478.    512.    459.
   480.    497.    456.    483.    475.    486.    488.    473.
   494.    496.    473.    478.    521.    487.    493.    496.
   498.    469.    488.    468.    497.    479.    472.    475.
   491.    489.    491.    480.    455.    483.    484.    467.
   486.    451.    452.    464.    457.    469.    475.    482.
   486.    474.    446.    454.    470.    505.    512.    485.
   478.    471.    500.    484.    472.    501.    481.    480.
   467.    475.    543.    480.    468.    495.    455.    469.
   498.    500.    486.    496.    476.    480.    474.    523.
   477.    534.    463.    503.    484.    500.    507.    483.
   498.    492.    483.    457.    497.    518.    478.    447.
   493.    482.    508.    517.    486.    510.    493.    509.
   523.    512.    491.    520.    547.    504.    536.    517.
   533.    480.    531.    530.    571.    507.    515.    522.
   509.    536.    538.    504.    531.    590.    571.    541.
   528.    591.    549.    555.    568.    547.    575.    574.
   562.    602.    575.    569.    567.    623.    601.    642.
   602.    575.    593.    599.    593.    619.    628.    653.
   667.    656.    654.    673.    619.    648.    666.    698.
   685.    701.    693.    736.    737.    692.    741.    733.
   764.    722.    774.    792.    771.    794.    824.    843.
   826.    837.    889.    872.    882.    910.    913.    972.
   950.   1031.   1055.   1039.   1131.   1098.   1180.   1190.
  1173.   1227.   1256.   1372.   1409.   1421.   1463.   1541.
  1551.   1694.   1788.   1885.   1902.   1948.   2024.   2151.
  2239.   2385.   2393.   2547.   2648.   2733.   2928.   3034.
  3120.   3355.   3461.   3653.   3887.   4059.   4221.   4439.
  4614.   4871.   5015.   5377.   5538.   5908.   6190.   6302.
  6696.   7039.   7463.   7653.   7993.   8168.   8430.   8628.
  8886.   8726.   8850.   8849.   8811.   8621.   8404.   8189.
  7889.   7690.   7387.   6980.   6688.   6414.   5981.   5779.
  5626.   5198.   5025.   4803.   4642.   4488.   4233.   4141.
  3929.   3727.   3648.   3480.   3468.   3416.   3306.   3187.
  3173.   3103.   2939.   2791.   2680.   2590.   2525.   2362.
  2317.   2254.   2161.   2146.   2035.   2031.   1902.   1967.
  1882.   1812.   1883.   1766.   1712.   1598.   1527.   1504.
  1401.   1309.   1307.   1231.   1228.   1197.   1170.   1109.
  1007.   1012.   1002.    948.    921.    880.    882.    874.
   839.    802.    821.    759.    727.    761.    742.    700.
   713.    723.    731.    706.    654.    655.    670.    622.
   633.    606.    647.    652.    645.    629.    621.    614.
   613.    596.    603.    614.    562.    558.    570.    582.
   589.    582.    564.    525.    551.    545.    560.    498.
   561.    561.    518.    536.    538.    597.    543.    519.
   503.    535.    522.    500.    481.    549.    516.    550.
   521.    519.    495.    515.    522.    478.    511.    536.
   486.    549.    514.    562.    519.    515.    474.    509.
   492.    522.    463.    479.    525.    502.    524.    497.
   482.    493.    503.    476.    512.    473.    484.    473.
   482.    461.    537.    495.    485.    500.    489.    461.
   515.    490.    491.    482.    511.    488.    515.    489.
   467.    507.    489.    490.    477.    507.    486.    473.
   516.    519.    498.    483.    477.    442.    460.    471.
   461.    471.    528.    475.    472.    487.    457.    461.
   472.    431.    444.    462.    452.    470.    468.    499.
   457.    464.    441.    426.    475.    475.    443.    509.
   501.    409.    453.    407.    477.    447.    524.    437.
   463.    433.    477.    463.    489.    467.    476.    449.
   465.    460.    466.    448.    473.    473.    475.    440.
   431.    452.    431.    451.    456.    465.    448.    480.
   458.    452.    475.    483.    464.    463.    447.    478.
   447.    482.    475.    448.    466.    456.    432.    453.
   456.    471.    444.    510.    459.    487.    499.    477.
   470.    434.    475.    465.    474.    466.    453.    487.
   475.    466.    478.    488.    442.    467.    489.    489.
   476.    468.    454.    451.    465.    485.    488.    506.
   508.    493.    492.    476.    478.    491.    521.    503.
   509.    488.    473.    504.    468.    490.    517.    473.
   476.    469.    468.    492.    467.    489.    469.    475.
   461.    495.    495.    493.    510.    523.    495.    524.
   514.    506.    555.    531.    548.    539.    547.    560.
   541.    648.    601.    575.    605.    610.    639.    644.
   647.    635.    679.    694.    686.    697.    746.    714.
   660.    711.    697.    705.    688.    639.    596.    627.
   566.    595.    602.    609.    555.    564.    530.    508.
   532.    497.    523.    516.    522.    557.    556.    489.
   475.    518.    505.    482.    488.    521.    476.    508.
   498.    495.    489.    474.    498.    486.    498.    501.
   512.    490.    490.    469.    477.    502.    502.    496.
   493.    503.    468.    479.    516.    502.    476.    460.
   469.    480.    502.    498.    524.    501.    459.    502.
   499.    509.    499.    503.    461.    500.    469.    522.
   492.    461.    495.    519.    502.    495.    468.    510.
   482.    465.    498.    485.    448.    462.    478.    497.
   519.    480.    505.    470.    492.    463.    483.    495.
   498.    446.    458.    488.    483.    473.    489.    475.
   504.    491.    493.    525.    508.    529.    476.    516.
   504.    537.    523.    521.    525.    519.    528.    519.
   527.    530.    509.    491.    519.    542.    574.    553.
   527.    515.    565.    539.    561.    572.    553.    567.
   565.    590.    577.    529.    574.    589.    582.    571.
   620.    596.    617.    628.    656.    654.    624.    650.
   635.    671.    687.    673.    670.    725.    752.    713.
   724.    785.    765.    819.    804.    872.    880.    842.
   924.    928.    936.    935.   1026.   1043.    999.   1036.
  1132.   1162.   1172.   1222.   1196.   1228.   1250.   1288.
  1280.   1264.   1303.   1284.   1296.   1246.   1227.   1231.
  1260.   1183.   1174.   1162.   1121.   1096.   1084.   1074.
  1035.   1003.    954.    945.    945.    905.    956.    878.
   892.    915.    835.    866.    819.    876.    837.    824.
   821.    834.    765.    763.    781.    825.    793.    818.
   809.    848.    815.    820.    846.    832.    825.    841.
   868.    872.    826.    876.    897.    885.    913.    910.
   957.    964.   1032.   1056.   1030.   1015.   1081.   1061.
  1118.   1062.   1161.   1140.   1168.   1274.   1217.   1236.
  1228.   1176.   1310.   1348.   1306.   1297.   1320.   1300.
  1339.   1350.   1441.   1417.   1422.   1376.   1496.   1510.
  1555.   1612.   1664.   1705.   1631.   1687.   1741.   1751.
  1754.   1812.   1831.   1833.   1857.   1880.   1909.   1809.
  1899.   1836.   1896.   1823.   1767.   1779.   1816.   1768.
  1839.   1906.   1910.   1877.   1881.   1837.   1921.   1863.
  2008.   2000.   2012.   2022.   2066.   2035.   2036.   2218.
  2112.   2252.   2203.   2163.   2174.   2229.   2172.   2297.
  2250.   2158.   2147.   2105.   2113.   2146.   2068.   2023.
  1942.   1996.   1901.   1879.   1760.   1753.   1691.   1643.
  1634.   1617.   1484.   1445.   1399.   1446.   1378.   1331.
  1276.   1324.   1242.   1250.   1205.   1211.   1264.   1144.
  1152.   1125.   1116.   1077.   1100.   1100.    990.   1042.
  1064.   1109.    995.    971.    990.    961.    962.    934.
   967.    906.    901.    934.    906.    880.    864.    895.
   883.    834.    827.    822.    913.    842.    807.    863.
   851.    871.    885.    828.    796.    815.    812.    831.
   842.    869.    860.    851.    850.    866.    862.    887.
   904.    910.    929.    931.    927.    930.    967.    946.
   948.   1013.   1059.   1024.   1046.   1111.   1104.   1218.
  1158.   1171.   1335.   1321.   1424.   1441.   1497.   1669.
  1673.   1806.   1908.   2037.   2061.   2174.   2390.   2522.
  2583.   2814.   2856.   3133.   3275.   3384.   3686.   3804.
  3970.   4302.   4541.   4784.   5011.   5266.   5551.   5833.
  6006.   6230.   6320.   6467.   6616.   6622.   6639.   6456.
  6325.   6195.   5836.   5473.   5313.   5071.   4878.   4496.
  4393.   4077.   3768.   3514.   3276.   3132.   3037.   2727.
  2621.   2398.   2314.   2155.   2065.   1970.   1858.   1707.
  1631.   1583.   1483.   1400.   1335.   1303.   1242.   1209.
  1169.   1107.   1071.   1104.   1075.   1033.    935.    896.
   877.    835.    887.    891.    794.    759.    749.    786.
   726.    746.    718.    714.    690.    685.    711.    698.
   650.    666.    622.    650.    654.    638.    676.    615.
   611.    607.    635.    599.    628.    579.    567.    604.
   594.    613.    563.    590.    584.    537.    587.    588.
   555.    572.    551.    545.    574.    575.    564.    527.
   507.    511.    537.    589.    559.    578.    569.    598.
   516.    542.    518.    535.    508.    548.    536.    503.
   580.    575.    556.    547.    560.    514.    512.    524.
   510.    532.    532.    496.    535.    512.    527.    539.
   531.    557.    518.    543.    543.    541.    500.    544.
   484.    495.    498.    511.    526.    546.    532.    535.
   504.    543.    502.    517.    560.    535.    509.    517.
   544.    538.    491.    504.    486.    511.    529.    530.
   530.    524.    518.    507.    519.    506.    519.    512.
   535.    487.    525.    525.    536.    505.    492.    497.
   543.    533.    515.    502.    520.    503.    529.    538.
   511.    488.    529.    532.    530.    549.    548.    544.
   533.    559.    527.    518.    505.    551.    511.    521.
   518.    484.    510.    550.    539.    518.    521.    509.
   519.    549.    530.    539.    559.    532.    557.    524.
   545.    546.    586.    556.    588.    547.    549.    574.
   544.    523.    511.    541.    547.    586.    571.    563.
   553.    540.    500.    534.    558.    555.    571.    566.
   585.    604.    582.    601.    538.    564.    609.    571.
   566.    586.    589.    585.    596.    628.    587.    582.
   621.    606.    619.    655.    612.    668.    628.    616.
   676.    682.    657.    680.    713.    691.    717.    696.
   720.    733.    727.    705.    737.    789.    799.    806.
   767.    860.    825.    858.    905.    855.    904.    925.
   949.    982.    963.   1002.   1040.   1033.   1114.   1120.
  1159.   1201.   1254.   1292.   1294.   1263.   1289.   1381.
  1383.   1383.   1489.   1489.   1551.   1630.   1583.   1657.
  1753.   1731.   1873.   1938.   1852.   1969.   2055.   2131.
  2222.   2263.   2336.   2523.   2468.   2583.   2576.   2595.
  2720.   2695.   2803.   2889.   2756.   2823.   2792.   2713.
  2661.   2754.   2739.   2670.   2769.   2734.   2577.   2671.
  2622.   2495.   2571.   2605.   2449.   2513.   2464.   2392.
  2452.   2384.   2341.   2369.   2305.   2364.   2311.   2371.
  2329.   2409.   2241.   2277.   2263.   2285.   2203.   2132.
  2158.   2094.   2046.   2010.   1989.   2001.   1906.   1897.
  1802.   1806.   1756.   1717.   1644.   1658.   1606.   1538.
  1556.   1521.   1453.   1414.   1394.   1368.   1338.   1290.
  1279.   1267.   1210.   1245.   1165.   1118.   1151.   1141.
  1122.   1049.   1068.   1073.   1040.   1036.   1001.   1012.
  1008.   1065.    961.    927.    952.    961.    967.    877.
   986.    989.    945.    942.    913.    885.    933.    857.
   934.    978.    964.    947.    990.   1020.   1023.   1044.
  1018.   1102.   1096.   1137.   1141.   1225.   1296.   1292.
  1351.   1432.   1501.   1559.   1442.   1546.   1635.   1657.
  1636.   1664.   1674.   1598.   1584.   1592.   1511.   1468.
  1462.   1441.   1409.   1416.   1381.   1396.   1381.   1387.
  1386.   1330.   1348.   1352.   1315.   1334.   1340.   1342.
  1420.   1350.   1363.   1335.   1377.   1392.   1393.   1459.
  1455.   1524.   1507.   1628.   1633.   1634.   1718.   1741.
  1831.   1828.   1933.   2026.   2097.   2159.   2204.   2277.
  2374.   2444.   2615.   2720.   2774.   2919.   3051.   3177.
  3382.   3499.   3665.   3776.   3952.   4157.   4333.   4504.
  4596.   4681.   4832.   5089.   5250.   5115.   5254.   5313.
  5283.   5261.   5320.   5260.   5261.   5276.   5468.   5288.
  5273.   5252.   5255.   5387.   5227.   5242.   5468.   5305.
  5317.   5365.   5415.   5364.   5524.   5517.   5526.   5485.
  5587.   5851.   5743.   5876.   5947.   5973.   6222.   6268.
  6424.   6545.   6517.   6625.   6617.   6781.   6748.   6821.
  6694.   6844.   6675.   6597.   6606.   6560.   6516.   6433.
  6224.   6127.   6010.   5837.   5632.   5447.   5389.   5314.
  5282.   5074.   5040.   4871.   4702.   4655.   4541.   4359.
  4323.   4311.   4163.   4284.   4236.   4232.   4137.   4097.
  4030.   4005.   4055.   4113.   4104.   4098.   4070.   4151.
  4145.   4194.   4127.   4251.   4291.   4331.   4288.   4259.
  4263.   4259.   4365.   4219.   4231.   4204.   4090.   4063.
  4011.   4011.   3954.   3681.   3938.   3829.   3697.   3677.
  3602.   3641.   3522.   3510.   3418.   3287.   3341.   3320.
  3242.   3274.   3301.   3175.   3206.   3228.   3159.   3198.
  3163.   3225.   3159.   3155.   3183.   3167.   3142.   3169.
  3160.   3193.   3175.   3255.   3226.   3226.   3205.   3248.
  3173.   3181.   3122.   3105.   3045.   3098.   2980.   2944.
  2973.   2881.   2729.   2754.   2660.   2556.   2563.   2513.
  2486.   2394.   2284.   2302.   2169.   2104.   2108.   2081.
  2011.   1954.   1945.   1895.   1808.   1771.   1737.   1774.
  1612.   1628.   1531.   1532.   1534.   1482.   1448.   1433.
  1369.   1346.   1312.   1300.   1248.   1207.   1151.   1163.
  1162.   1109.   1102.   1045.   1048.   1052.   1065.    965.
   949.    950.    958.    988.    946.    903.    921.    871.
   877.    851.    806.    821.    858.    814.    805.    820.
   779.    778.    755.    781.    747.    720.    696.    721.
   720.    711.    738.    736.    678.    710.    712.    671.
   713.    653.    674.    678.    660.    675.    648.    628.
   699.    648.    654.    657.    610.    608.    635.    608.
   619.    662.    627.    614.    614.    636.    639.    629.
   611.    634.    594.    642.    642.    666.    603.    642.
   635.    633.    590.    650.    572.    608.    625.    641.
   615.    596.    604.    641.    637.    662.    610.    609.
   629.    624.    591.    619.    650.    604.    622.    569.
   645.    641.    620.    612.    625.    592.    625.    620.
   615.    626.    669.    619.    618.    631.    662.    634.
   612.    629.    658.    682.    693.    627.    670.    669.
   662.    701.    712.    717.    711.    708.    720.    742.
   682.    723.    685.    697.    739.    754.    724.    755.
   775.    718.    758.    764.    797.    799.    814.    825.
   793.    832.    817.    832.    851.    921.    886.    932.
   936.    931.    909.    970.   1005.    982.    975.   1041.
  1088.   1079.   1099.   1162.   1219.   1184.   1190.   1227.
  1244.   1307.   1341.   1356.   1418.   1481.   1486.   1497.
  1603.   1579.   1600.   1735.   1765.   1865.   1880.   2026.
  2084.   2150.   2207.   2273.   2385.   2490.   2480.   2699.
  2716.   2865.   2944.   2993.   3065.   3278.   3301.   3493.
  3585.   3624.   3793.   3964.   4012.   4195.   4150.   4240.
  4427.   4614.   4585.   4684.   4840.   4720.   4855.   4843.
  4910.   5038.   5068.   5211.   5096.   5293.   5254.   5339.
  5294.   5408.   5358.   5414.   5336.   5479.   5478.   5451.
  5298.   5378.   5310.   5412.   5280.   5184.   5132.   5134.
  5078.   5005.   4935.   4871.   4831.   4562.   4617.   4680.
  4547.   4364.   4429.   4373.   4246.   4303.   4185.   4201.
  4158.   4221.   4222.   4184.   4234.   4291.   4277.   4321.
  4278.   4370.   4345.   4490.   4415.   4565.   4673.   4424.
  4508.   4694.   4730.   4801.   4869.   4897.   4895.   4884.
  4893.   5018.   4724.   4858.   4720.   4870.   4715.   4660.
  4838.   4655.   4536.   4508.   4437.   4376.   4225.   4130.
  4091.   4059.   3868.   3808.   3709.   3540.   3495.   3529.
  3526.   3344.   3284.   3066.   3145.   3140.   3051.   2971.
  2892.   2864.   2803.   2833.   2756.   2772.   2617.   2755.
  2670.   2654.   2719.   2652.   2629.   2740.   2663.   2631.
  2765.   2709.   2707.   2670.   2707.   2817.   2806.   2914.
  2887.   2934.   2931.   2934.   2994.   3033.   3086.   3190.
  3241.   3084.   3224.   3351.   3369.   3449.   3482.   3558.
  3574.   3495.   3715.   3748.   3704.   3738.   3789.   3772.
  3927.   3819.   3940.   3816.   3783.   3797.   3818.   3689.
  3692.   3493.   3458.   3407.   3384.   3214.   3245.   3064.
  3108.   3056.   3023.   2985.   2925.   2894.   2766.   2703.
  2683.   2683.   2702.   2659.   2514.   2455.   2537.   2481.
  2464.   2451.   2393.   2399.   2424.   2423.   2412.   2390.
  2408.   2420.   2421.   2435.   2356.   2386.   2335.   2342.
  2415.   2273.   2308.   2348.   2297.   2226.   2207.   2190.
  2058.   2098.   2010.   2009.   1924.   1837.   1780.   1774.
  1761.   1680.   1596.   1630.   1536.   1581.   1555.   1516.
  1476.   1416.   1457.   1418.   1393.   1336.   1346.   1304.
  1203.   1254.   1211.   1159.   1162.   1145.   1098.   1066.
  1033.   1038.    966.    926.    893.    925.    895.    965.
   890.    914.    931.    865.    880.    827.    844.    867.
   873.    847.    859.    849.    863.    865.    808.    778.
   830.    794.    774.    781.    769.    739.    703.    711.
   758.    682.    696.    679.    675.    676.    659.    615.
   643.    652.    699.    663.    659.    696.    641.    639.
   687.    618.    640.    665.    672.    685.    709.    692.
   685.    722.    743.    788.    812.    768.    756.    806.
   771.    860.    817.    801.    796.    764.    793.    712.
   746.    781.    701.    652.    679.    642.    639.    645.
   626.    584.    615.    598.    583.    535.    562.    587.
   576.    524.    560.    539.    588.    537.    504.    538.
   519.    546.    530.    549.    518.    524.    508.    498.
   500.    505.    489.    514.    483.    492.    503.    523.
   507.    487.    517.    514.    518.    512.    557.    509.
   488.    453.    481.    561.    473.    483.    485.    489.
   483.    534.    493.    490.    509.    506.    492.    500.
   471.    482.    507.    511.    466.    501.    466.    493.
   531.    534.    521.    523.    551.    525.    533.    520.
   569.    568.    573.    565.    575.    570.    568.    608.
   602.    570.    613.    574.    636.    547.    541.    549.
   524.    623.    578.    579.    528.    538.    489.    500.
   512.    497.    500.    535.    540.    496.    519.    506.
   544.    519.    514.    557.    485.    535.    538.    572.
   571.    551.    547.    509.    592.    597.    565.    600.
   596.    596.    594.    591.    631.    617.    596.    592.
   564.    534.    530.    572.    534.    561.    540.    538.
   526.    504.    499.    506.    516.    471.    486.    535.
   513.    518.    536.    504.    489.    510.    518.    561.
   526.    562.    564.    496.    512.    495.    528.    539.
   539.    543.    564.    529.    567.    536.    551.    568.
   550.    601.    593.    585.    583.    595.    636.    606.
   628.    696.    691.    659.    693.    749.    779.    796.
   808.    794.    814.    760.    789.    776.    733.    761.
   741.    724.    741.    740.    700.    738.    738.    759.
   742.    734.    788.    732.    772.    785.    846.    806.
   841.    862.    883.    907.    923.    923.    938.   1088.
   996.    997.   1017.    976.   1054.   1017.   1002.    944.
  1056.   1002.   1068.   1030.   1004.   1019.   1000.   1080.
  1044.   1094.   1075.   1076.   1065.   1138.   1133.   1190.
  1212.   1213.   1285.   1357.   1327.   1311.   1423.   1534.
  1514.   1523.   1546.   1631.   1717.   1657.   1748.   1785.
  1841.   1878.   1922.   1982.   2044.   2022.   2078.   2132.
  2144.   2192.   2087.   2060.   2174.   2140.   2075.   2109.
  2033.   1956.   1972.   1953.   1967.   1857.   1867.   1806.
  1699.   1756.   1837.   1730.   1627.   1648.   1646.   1668.
  1615.   1616.   1609.   1621.   1616.   1636.   1529.   1579.
  1551.   1593.   1557.   1598.   1638.   1641.   1670.   1637.
  1700.   1672.   1600.   1709.   1596.   1738.   1727.   1785.
  1766.   1794.   1860.   1816.   1782.   1828.   1850.   1872.
  2004.   1949.   1803.   1917.   1871.   1914.   1838.   1924.
  1894.   1862.   1933.   1876.   1808.   1723.   1800.   1816.
  1710.   1700.   1676.   1648.   1613.   1610.   1537.   1516.
  1476.   1573.   1423.   1420.   1448.   1337.   1344.   1301.
  1302.   1305.   1279.   1221.   1220.   1192.   1163.   1154.
  1156.   1103.   1088.   1076.   1053.    984.   1025.   1004.
   980.    965.    893.    922.    957.    932.    865.    873.
   913.    920.    858.    852.    889.    840.    861.    885.
   853.    852.    824.    856.    837.    796.    826.    825.
   860.    835.    841.    844.    821.    870.    830.    877.
   892.    887.    904.    790.    913.    928.    898.    915.
   935.    959.    942.    951.   1002.   1040.   1037.   1053.
  1080.   1119.   1146.   1124.   1190.   1250.   1195.   1178.
  1302.   1309.   1376.   1300.   1367.   1402.   1392.   1522.
  1507.   1568.   1519.   1594.   1606.   1650.   1608.   1643.
  1739.   1698.   1740.   1762.   1778.   1765.   1819.   1804.
  1937.   1947.   1910.   2010.   2144.   2055.   2063.   2136.
  2175.   2235.   2204.   2262.   2333.   2403.   2417.   2525.
  2499.   2585.   2634.   2727.   2784.   2782.   2856.   2977.
  2805.   2876.   3048.   2875.   2913.   3037.   2916.   2842.
  2820.   2879.   2810.   2727.   2811.   2784.   2707.   2613.
  2583.   2588.   2478.   2437.   2457.   2392.   2285.   2275.
  2228.   2220.   2183.   2107.   2064.   2021.   1945.   1941.
  1903.   1822.   1742.   1696.   1679.   1636.   1573.   1560.
  1508.   1431.   1408.   1449.   1416.   1347.   1278.   1229.
  1259.   1171.   1219.   1172.   1093.   1101.   1048.   1044.
  1041.   1003.    981.   1014.    975.    952.    886.    911.
   882.    904.    857.    884.    835.    817.    746.    785.
   781.    813.    777.    761.    728.    737.    715.    793.
   735.    723.    774.    766.    762.    711.    753.    756.
   753.    712.    703.    739.    723.    719.    708.    701.
   730.    720.    803.    729.    738.    735.    762.    801.
   765.    814.    795.    766.    788.    846.    815.    856.
   836.    884.    848.    897.    909.    885.    911.    920.
   941.    945.    932.   1021.   1036.    995.   1037.   1060.
  1099.   1075.   1102.   1172.   1119.   1185.   1183.   1175.
  1195.   1178.   1215.   1201.   1251.   1259.   1227.   1254.
  1246.   1205.   1204.   1157.   1173.   1117.   1125.   1130.
  1197.   1096.   1055.   1097.   1048.   1085.   1046.    946.
   945.    987.   1003.    905.    921.    924.    857.    883.
   851.    836.    841.    817.    792.    795.    809.    746.
   752.    734.    742.    684.    691.    700.    736.    644.
   654.    634.    642.    657.    635.    673.    625.    628.
   629.    597.    616.    602.    535.    594.    612.    546.
   557.    514.    556.    540.    546.    517.    560.    548.
   540.    495.    541.    535.    485.    508.    508.    461.
   525.    492.    522.    530.    561.    520.    483.    509.
   510.    503.    508.    531.    500.    519.    487.    474.
   528.    502.    496.    467.    534.    450.    504.    490.
   492.    486.    525.    499.    494.    520.    454.    502.
   483.    519.    532.    483.    504.    530.    491.    525.
   499.    525.    518.    495.    498.    509.    513.    509.
   499.    513.    470.    520.    499.    514.    547.    490.
   536.    509.    494.    525.    486.    505.    484.    493.
   496.    475.    550.    577.    553.    520.    510.    531.
   517.    557.    550.    562.    543.    557.    578.    604.
   587.    589.    628.    627.    601.    653.    597.    632.
   634.    642.    644.    581.    613.    602.    602.    630.
   622.    630.    585.    676.    619.    662.    640.    692.
   673.    673.    682.    650.    702.    702.    685.    704.
   706.    765.    743.    796.    813.    829.    890.    826.
   868.    893.    934.    952.    952.    978.   1022.   1054.
  1024.   1114.   1154.   1176.   1146.   1233.   1353.   1267.
  1349.   1381.   1388.   1487.   1562.   1583.   1595.   1680.
  1674.   1761.   1753.   1853.   1945.   1967.   2031.   1982.
  2053.   2089.   2196.   2253.   2309.   2213.   2374.   2262.
  2309.   2334.   2345.   2326.   2277.   2300.   2246.   2249.
  2155.   2078.   2027.   2079.   1931.   1847.   1779.   1751.
  1750.   1637.   1558.   1556.   1486.   1504.   1441.   1408.
  1301.   1331.   1266.   1212.   1135.   1168.   1131.   1153.
  1033.   1034.    978.   1030.   1002.    990.    965.    982.
   890.    886.    888.    958.    904.    884.    879.    873.
   844.    862.    816.    816.    830.    820.    861.    771.
   831.    776.    835.    877.    883.    827.    817.    832.
   900.    836.    863.    884.    855.    920.    862.    830.
   887.    912.    926.    893.    937.    950.    955.    953.
   947.    980.    997.   1003.    971.    982.   1027.   1029.
  1035.   1089.   1107.   1140.   1139.   1159.   1185.   1238.
  1224.   1337.   1315.   1329.   1382.   1393.   1406.   1459.
  1497.   1563.   1561.   1620.   1702.   1785.   1750.   1731.
  1830.   1970.   1915.   2016.   2079.   2082.   2102.   2257.
  2211.   2273.   2301.   2287.   2241.   2160.   2333.   2203.
  2180.   2108.   2102.   2090.   2014.   2016.   1959.   1855.
  1848.   1809.   1749.   1753.   1677.   1593.   1514.   1505.
  1476.   1409.   1372.   1319.   1284.   1228.   1235.   1178.
  1140.   1172.   1094.   1006.   1030.   1039.   1016.    915.
   925.    923.    938.    918.    826.    808.    820.    828.
   818.    887.    790.    795.    811.    794.    816.    797.
   749.    755.    845.    783.    819.    826.    762.    807.
   780.    796.    775.    779.    830.    828.    874.    849.
   858.    927.    951.    959.    971.    966.   1090.   1112.
  1147.   1176.   1176.   1168.   1200.   1235.   1212.   1124.
  1140.   1097.   1062.   1049.    946.    971.    932.    895.
   824.    828.    767.    774.    789.    767.    749.    742.
   695.    672.    737.    691.    736.    741.    706.    750.
   719.    773.    765.    802.    850.    848.    891.    849.
   918.    947.   1020.    990.   1082.   1150.   1132.   1113.
  1165.   1177.   1135.   1117.   1157.   1116.   1138.   1095.
  1024.   1058.    996.    965.    963.    937.    898.    811.
   852.    831.    766.    765.    760.    760.    708.    687.
   659.    695.    619.    624.    573.    584.    572.    587.
   535.    580.    549.    561.    537.    522.    520.    509.
   525.    508.    491.    523.    530.    520.    495.    499.
   447.    502.    522.    454.    501.    510.    510.    456.
   486.    462.    502.    473.    462.    461.    420.    476.
   474.    479.    461.    473.    446.    464.    474.    403.
   441.    445.    462.    438.    427.    427.    447.    449.
   440.    426.    458.    439.    413.    419.    422.    456.
   410.    450.    433.    458.    412.    461.    459.    475.
   434.    450.    466.    447.    442.    396.    445.    442.
   404.    407.    437.    415.    387.    423.    436.    417.
   421.    408.    406.    461.    384.    442.    428.    407.
   411.    440.    418.    410.    418.    426.    414.    409.
   429.    425.    424.    424.    424.    416.    424.    450.
   442.    405.    384.    418.    419.    435.    452.    416.
   436.    435.    425.    418.    447.    441.    427.    414.
   445.    407.    406.    378.    399.    421.    424.    421.
   409.    432.    427.    422.    444.    470.    451.    417.
   419.    415.    424.    404.    392.    453.    438.    451.
   441.    436.    437.    451.    393.    444.    386.    444.
   443.    464.    435.    449.    473.    454.    489.    459.
   437.    450.    463.    484.    478.    476.    469.    462.
   468.    470.    468.    478.    489.    457.    501.    457.
   476.    489.    496.    498.    512.    520.    524.    501.
   500.    519.    568.    536.    558.    519.    549.    552.
   557.    591.    558.    608.    588.    567.    575.    601.
   589.    576.    609.    632.    629.    609.    624.    635.
   671.    621.    625.    629.    627.    651.    656.    676.
   689.    639.    647.    618.    668.    717.    677.    674.
   640.    672.    730.    671.    674.    688.    689.    657.
   666.    612.    657.    639.    678.    684.    679.    671.
   665.    653.    693.    658.    643.    707.    717.    735.
   709.    675.    682.    734.    749.    735.    742.    751.
   761.    779.    752.    782.    775.    783.    781.    770.
   823.    797.    854.    832.    815.    895.    828.    862.
   813.    832.    801.    811.    845.    827.    871.    798.
   825.    833.    828.    863.    809.    869.    824.    853.
   848.    911.    902.    950.    898.    920.    932.    946.
   998.    963.   1006.   1020.   1059.   1046.   1044.   1105.
  1154.   1123.   1165.   1164.   1251.   1284.   1338.   1315.
  1299.   1305.   1312.   1414.   1422.   1401.   1423.   1468.
  1483.   1441.   1511.   1600.   1514.   1528.   1539.   1549.
  1537.   1514.   1509.   1559.   1469.   1469.   1417.   1447.
  1361.   1412.   1345.   1292.   1256.   1244.   1203.   1189.
  1096.   1119.   1084.   1058.   1013.   1028.    994.    950.
   949.    927.    920.    864.    837.    844.    849.    830.
   751.    749.    770.    746.    692.    667.    671.    713.
   670.    659.    672.    646.    629.    615.    586.    587.
   542.    568.    565.    549.    577.    602.    549.    530.
   550.    557.    555.    535.    553.    572.    518.    508.
   504.    529.    494.    478.    492.    466.    511.    482.
   504.    507.    447.    490.    507.    465.    441.    475.
   465.    480.    475.    463.    462.    468.    424.    425.
   459.    458.    430.    422.    467.    464.    503.    486.
   449.    451.    484.    449.    415.    428.    403.    450.
   419.    441.    441.    431.    430.    423.    460.    461.
   400.    437.    417.    418.    431.    413.    427.    427.
   383.    453.    416.    445.    430.    406.    407.    415.
   400.    420.    434.    427.    464.    444.    424.    406.
   430.    418.    430.    410.    428.    411.    431.    465.
   418.    394.    450.    446.    432.    417.    433.    428.
   392.    408.    424.    436.    413.    412.    401.    431.
   421.    436.    432.    435.    436.    433.    406.    425.
   428.    452.    413.    465.    440.    413.    446.    449.
   455.    450.    463.    444.    475.    475.    447.    442.
   452.    457.    438.    445.    444.    488.    512.    497.
   465.    441.    472.    473.    459.    389.    432.    439.
   416.    433.    458.    415.    440.    435.    405.    436.
   388.    429.    418.    407.    415.    418.    419.    421.
   404.    403.    402.    404.    412.    405.    388.    431.
   438.    422.    424.    470.    383.    434.    409.    390.
   411.    401.    440.    406.    394.    439.    439.    435.
   447.    409.    415.    421.    413.    410.    409.    427.
   437.    455.    450.    469.    453.    435.    423.    451.
   455.    422.    415.    463.    437.    426.    458.    485.
   453.    491.    479.    484.    494.    472.    515.    519.
   523.    541.    540.    554.    504.    521.    517.    533.
   549.    489.    508.    506.    465.    490.    505.    504.
   523.    502.    499.    481.    491.    501.    500.    471.
   488.    496.    509.    482.    423.    446.    502.    482.
   475.    467.    467.    443.    450.    472.    452.    440.
   451.    468.    428.    458.    437.    440.    418.    446.
   410.    425.    433.    427.    426.    417.    412.    432.
   429.    414.    400.    416.    459.    453.    401.    461.
   399.    407.    410.    414.    437.    403.    417.    421.
   425.    413.    419.    410.    416.    428.    431.    435.
   435.    411.    438.    445.    455.    458.    436.    464.
   430.    441.    456.    472.    467.    460.    432.    424.
   449.    407.    441.    432.    489.    469.    458.    470.
   406.    463.    460.    439.    454.    483.    469.    464.
   481.    493.    480.    471.    449.    486.    453.    491.
   480.    499.    509.    479.    500.    490.    498.    467.
   510.    515.    580.    539.    494.    543.    529.    550.
   588.    558.    541.    526.    543.    549.    560.    571.
   547.    579.    548.    563.    520.    567.    588.    564.
   582.    584.    615.    552.    584.    548.    575.    571.
   584.    592.    620.    671.    658.    644.    630.    652.
   600.    661.    614.    683.    669.    686.    674.    739.
   730.    733.    747.    763.    750.    769.    849.    839.
   852.    851.    857.    870.    948.    899.    917.    898.
   856.    930.    951.    923.    973.    970.    921.    924.
   953.    920.    973.    943.    891.    915.    904.    940.
   885.    861.    821.    812.    827.    843.    798.    760.
   760.    749.    785.    738.    760.    751.    740.    743.
   663.    725.    723.    721.    701.    696.    706.    698.
   681.    684.    647.    654.    707.    642.    634.    678.
   644.    628.    665.    644.    665.    618.    680.    661.
   688.    692.    673.    666.    687.    709.    666.    736.
   688.    686.    719.    707.    687.    708.    739.    721.
   784.    722.    758.    777.    806.    779.    783.    777.
   741.    800.    740.    778.    805.    770.    773.    805.
   835.    779.    857.    804.    811.    819.    798.    836.
   842.    836.    869.    912.    902.    902.    915.    942.
   937.    941.    980.    919.    980.    993.   1012.   1036.
  1040.   1025.   1013.   1065.   1059.   1050.   1110.   1097.
  1091.   1086.   1100.   1135.   1160.   1145.   1200.   1232.
  1221.   1207.   1193.   1261.   1255.   1299.   1266.   1329.
  1288.   1347.   1334.   1356.   1390.   1368.   1403.   1355.
  1389.   1386.   1333.   1411.   1380.   1384.   1407.   1336.
  1354.   1341.   1415.   1363.   1352.   1357.   1324.   1315.
  1295.   1284.   1276.   1324.   1303.   1279.   1277.   1295.
  1268.   1293.   1260.   1252.   1277.   1254.   1201.   1202.
  1180.   1260.   1233.   1179.   1163.   1153.   1100.   1103.
  1117.   1063.   1141.   1108.   1095.   1022.   1009.    977.
   977.    989.    967.    955.    906.    984.    974.    984.
   935.    898.    895.    887.    879.    879.    913.    880.
   845.    865.    864.    850.    831.    879.    906.    841.
   846.    846.    827.    832.    836.    835.    839.    863.
   838.    802.    856.    820.    850.    847.    856.    871.
   848.    828.    832.    818.    781.    757.    870.    784.
   776.    757.    808.    814.    811.    787.    748.    737.
   716.    706.    694.    658.    695.    683.    701.    739.
   654.    698.    673.    660.    651.    645.    597.    597.
   649.    600.    587.    642.    587.    577.    604.    584.
   564.    574.    583.    557.    551.    520.    522.    543.
   545.    530.    534.    550.    539.    536.    518.    516.
   512.    524.    477.    504.    572.    509.    492.    503.
   507.    473.    485.    515.    483.    517.    501.    522.
   514.    496.    446.    484.    483.    480.    498.    488.
   510.    446.    454.    474.    490.    476.    456.    485.
   464.    481.    479.    471.    460.    474.    491.    490.
   464.    488.    492.    450.    492.    455.    418.    464.
   453.    485.    488.    488.    501.    464.    474.    474.
   486.    481.    472.    489.    463.    462.    503.    466.
   464.    491.    514.    480.    469.    496.    477.    480.
   450.    476.    495.    477.    471.    452.    477.    471.
   458.    487.    463.    478.    494.    481.    506.    495.
   472.    495.    532.    497.    498.    484.    480.    504.
   496.    486.    505.    484.    511.    475.    506.    507.
   509.    479.    494.    518.    544.    529.    543.    526.
   536.    519.    527.    534.    524.    532.    538.    535.
   557.    573.    560.    562.    604.    533.    566.    594.
   593.    563.    620.    617.    611.    613.    608.    653.
   637.    663.    674.    648.    707.    700.    721.    658.
   750.    730.    767.    739.    745.    786.    745.    747.
   765.    775.    799.    797.    849.    846.    840.    848.
   909.    882.    902.    928.    893.    938.    968.   1026.
   990.   1027.   1034.   1090.   1081.   1066.   1124.   1195.
  1209.   1237.   1260.   1251.   1273.   1279.   1354.   1398.
  1350.   1398.   1393.   1438.   1449.   1438.   1430.   1530.
  1452.   1494.   1600.   1521.   1541.   1494.   1533.   1597.
  1628.   1565.   1533.   1595.   1578.   1568.   1499.   1572.
  1555.   1518.   1490.   1446.   1443.   1469.   1391.   1373.
  1308.   1295.   1232.   1255.   1243.   1201.   1203.   1212.
  1126.   1098.   1102.   1072.   1025.   1015.    982.   1034.
   999.    989.    946.    911.    932.    906.    916.    896.
   885.    891.    898.    871.    862.    835.    823.    827.
   842.    803.    763.    775.    771.    800.    802.    801.
   818.    773.    837.    800.    831.    840.    802.    793.
   833.    802.    838.    825.    858.    898.    931.    934.
   874.    852.    939.    896.    957.    936.    965.    985.
   967.   1006.   1032.    998.   1024.   1073.   1114.   1153.
  1143.   1138.   1193.   1243.   1283.   1292.   1277.   1300.
  1347.   1364.   1401.   1376.   1460.   1444.   1431.   1516.
  1543.   1614.   1718.   1688.   1694.   1710.   1743.   1813.
  1852.   1861.   1910.   1926.   1900.   1967.   1955.   1978.
  2091.   2116.   1979.   2024.   2064.   2065.   2066.   2121.
  2127.   2098.   2173.   2089.   2167.   2136.   2124.   2221.
  2264.   2149.   2219.   2262.   2142.   2215.   2237.   2242.
  2302.   2325.   2290.   2303.   2354.   2363.   2328.   2423.
  2444.   2507.   2429.   2481.   2451.   2581.   2598.   2521.
  2531.   2583.   2637.   2532.   2577.   2628.   2615.   2606.
  2608.   2630.   2514.   2450.   2447.   2515.   2488.   2518.
  2398.   2364.   2389.   2354.   2231.   2314.   2189.   2209.
  2128.   2011.   1970.   1968.   1970.   1920.   1862.   1750.
  1792.   1752.   1729.   1635.   1608.   1623.   1511.   1581.
  1515.   1486.   1479.   1442.   1417.   1413.   1394.   1375.
  1341.   1263.   1311.   1294.   1338.   1261.   1223.   1252.
  1199.   1247.   1178.   1194.   1157.   1230.   1229.   1158.
  1193.   1214.   1159.   1154.   1200.   1178.   1200.   1180.
  1196.   1159.   1244.   1266.   1238.   1234.   1260.   1313.
  1308.   1314.   1344.   1404.   1384.   1393.   1448.   1370.
  1451.   1465.   1431.   1412.   1394.   1428.   1362.   1410.
  1417.   1341.   1361.   1392.   1366.   1342.   1327.   1334.
  1390.   1364.   1390.   1418.   1458.   1394.   1423.   1447.
  1446.   1439.   1441.   1438.   1472.   1446.   1523.   1490.
  1551.   1528.   1562.   1479.   1592.   1628.   1583.   1568.
  1528.   1568.   1581.   1509.   1533.   1591.   1602.   1571.
  1533.   1548.   1557.   1538.   1548.   1575.   1484.   1538.
  1510.   1510.   1416.   1510.   1486.   1476.   1474.   1458.
  1426.   1443.   1362.   1491.   1401.   1360.   1374.   1352.
  1398.   1375.   1400.   1357.   1391.   1367.   1393.   1395.
  1355.   1423.   1382.   1431.   1439.   1394.   1397.   1430.
  1445.   1421.   1368.   1465.   1514.   1418.   1455.   1573.
  1504.   1513.   1462.   1568.   1484.   1531.   1544.   1494.
  1553.   1546.   1587.   1574.   1526.   1558.   1533.   1498.
  1530.   1486.   1495.   1358.   1385.   1279.   1324.   1301.
  1225.   1136.   1132.   1096.   1081.   1070.   1000.   1054.
   992.    986.    915.    941.    966.    944.    878.    896.
   866.    873.    848.    899.    825.    851.    807.    858.
   817.    816.    777.    826.    790.    808.    809.    805.
   806.    854.    842.    836.    800.    806.    810.    819.
   817.    879.    809.    866.    817.    880.    861.    854.
   858.    888.    904.    921.    895.    904.    955.    933.
   932.    976.    975.    985.   1029.   1021.    995.   1110.
  1112.   1093.   1135.   1140.   1151.   1141.   1165.   1162.
  1248.   1300.   1371.   1397.   1401.   1433.   1421.   1372.
  1476.   1574.   1575.   1652.   1649.   1668.   1708.   1863.
  1785.   1895.   1988.   1955.   1968.   2048.   2154.   2052.
  2104.   2229.   2276.   2288.   2339.   2405.   2418.   2466.
  2458.   2474.   2488.   2551.   2500.   2548.   2634.   2651.
  2610.   2620.   2650.   2763.   2648.   2720.   2750.   2847.
  2796.   2851.   2833.   2878.   2748.   2959.   2976.   2961.
  3016.   2941.   3072.   3152.   3205.   3259.   3256.   3281.
  3404.   3375.   3457.   3451.   3515.   3574.   3594.   3656.
  3531.   3662.   3812.   3806.   3746.   3743.   3708.   3737.
  3687.   3565.   3726.   3618.   3588.   3401.   3470.   3344.
  3299.   3320.   3294.   3215.   3122.   3081.   2964.   2997.
  2858.   2735.   2694.   2667.   2504.   2519.   2492.   2382.
  2287.   2213.   2232.   2213.   2058.   2121.   2021.   1976.
  1965.   1944.   1813.   1835.   1748.   1754.   1709.   1743.
  1698.   1624.   1623.   1561.   1569.   1611.   1516.   1466.
  1499.   1455.   1461.   1459.   1373.   1423.   1367.   1390.
  1350.   1406.   1326.   1323.   1368.   1302.   1335.   1349.
  1304.   1358.   1341.   1387.   1333.   1422.   1366.   1373.
  1385.   1387.   1423.   1434.   1478.   1403.   1426.   1430.
  1506.   1493.   1662.   1583.   1647.   1680.   1657.   1767.
  1728.   1793.   1773.   1751.   1795.   1822.   1819.   1864.
  1780.   1787.   1823.   1771.   1787.   1782.   1756.   1724.
  1632.   1601.   1654.   1625.   1564.   1577.   1590.   1551.
  1512.   1446.   1468.   1402.   1405.   1431.   1331.   1342.
  1390.   1374.   1412.   1343.   1333.   1267.   1362.   1280.
  1308.   1364.   1317.   1324.   1297.   1302.   1390.   1315.
  1345.   1350.   1323.   1353.   1416.   1429.   1424.   1406.
  1437.   1412.   1477.   1509.   1489.   1475.   1495.   1529.
  1557.   1477.   1571.   1535.   1521.   1583.   1592.   1575.
  1560.   1545.   1609.   1572.   1627.   1586.   1564.   1525.
  1546.   1535.   1495.   1529.   1521.   1420.   1359.   1327.
  1344.   1363.   1353.   1320.   1268.   1284.   1234.   1236.
  1182.   1169.   1173.   1126.   1162.   1100.   1130.   1109.
  1025.    980.   1051.    978.    977.    970.    893.    948.
   908.    900.    910.    844.    876.    828.    780.    796.
   782.    775.    786.    743.    761.    780.    740.    745.
   700.    677.    702.    681.    702.    665.    650.    654.
   631.    583.    635.    627.    669.    673.    599.    621.
   638.    627.    666.    627.    628.    622.    628.    618.
   573.    604.    585.    580.    589.    609.    571.    571.
   605.    592.    630.    610.    597.    594.    574.    552.
   587.    592.    535.    598.    571.    561.    556.    520.
   582.    537.    533.    490.    500.    553.    524.    534.
   477.    535.    521.    532.    561.    504.    495.    529.
   520.    523.    537.    484.    521.    529.    484.    496.
   518.    512.    497.    539.    511.    499.    475.    479.
   509.    515.    507.    508.    507.    516.    525.    493.
   499.    492.    541.    447.    495.    542.    517.    535.
   519.    551.    539.    506.    540.    549.    524.    512.
   536.    560.    547.    558.    604.    588.    591.    589.
   573.    615.    621.    623.    597.    643.    638.    657.
   630.    585.    625.    601.    618.    631.    608.    599.
   576.    620.    605.    574.    576.    557.    584.    549.
   525.    595.    535.    512.    529.    511.    557.    498.
   526.    558.    536.    535.    546.    524.    533.    522.
   547.    522.    529.    538.    529.    547.    533.    571.
   519.    604.    552.    594.    558.    549.    539.    547.
   531.    565.    528.    500.    518.    506.    477.    503.
   522.    508.    519.    480.    499.    485.    529.    518.
   570.    547.    497.    519.    496.    532.    508.    536.
   515.    496.    498.    510.    505.    472.    526.    534.
   502.    560.    519.    527.    531.    503.    525.    492.
   528.    489.    493.    499.    533.    541.    520.    527.
   540.    569.    557.    532.    508.    563.    547.    555.
   575.    554.    583.    554.    571.    532.    606.    574.
   556.    548.    590.    533.    560.    532.    533.    586.
   564.    508.    496.    506.    543.    498.    515.    495.
   523.    504.    511.    478.    497.    525.    500.    483.
   503.    537.    504.    502.    478.    473.    501.    479.
   501.    423.    452.    493.    493.    470.    471.    458.
   457.    543.    521.    485.    540.    511.    504.    485.
   505.    510.    516.    498.    523.    491.    506.    501.
   545.    545.    554.    509.    558.    546.    544.    527.
   543.    560.    603.    571.    551.    561.    555.    559.
   593.    574.    561.    566.    560.    548.    582.    574.
   563.    588.    641.    595.    609.    562.    562.    578.
   592.    586.    613.    583.    572.    597.    573.    595.
   573.    602.    591.    660.    653.    626.    624.    633.
   639.    668.    653.    654.    692.    662.    655.    669.
   686.    679.    674.    656.    690.    638.    670.    646.
   685.    651.    607.    682.    642.    665.    635.    696.
   679.    621.    636.    654.    642.    624.    644.    663.
   612.    649.    609.    661.    588.    640.    663.    614.
   651.    598.    582.    642.    599.    586.    593.    606.
   623.    579.    632.    628.    591.    564.    607.    571.
   604.    580.    604.    578.    583.    594.    570.    601.
   580.    591.    578.    570.    590.    581.    578.    634.
   585.    578.    590.    591.    584.    667.    623.    649.
   620.    652.    629.    680.    683.    690.    649.    646.
   647.    654.    657.    671.    739.    651.    660.    718.
   675.    656.    654.    664.    695.    661.    662.    625.
   645.    683.    626.    695.    699.    652.    677.    686.
   652.    653.    671.    665.    669.    707.    668.    696.
   632.    668.    713.    707.    702.    723.    706.    701.
   713.    699.    732.    672.    721.    747.    802.    729.
   767.    812.    783.    756.    752.    780.    765.    745.
   785.    853.    766.    737.    764.    730.    749.    749.
   762.    774.    710.    710.    713.    676.    746.    735.
   658.    688.    616.    661.    634.    630.    627.    611.
   652.    609.    539.    594.    639.    574.    595.    646.
   578.    575.    552.    537.    564.    587.    537.    535.
   496.    559.    536.    535.    541.    540.    533.    529.
   513.    533.    505.    528.    519.    558.    567.    543.
   502.    509.    502.    531.    524.    487.    498.    505.
   537.    486.    509.    496.    486.    480.    472.    495.
   485.    526.    520.    508.    506.    490.    495.    455.
   475.    481.    492.    481.    487.    506.    489.    490.
   505.    555.    508.    506.    490.    494.    515.    475.
   508.    495.    523.    525.    500.    506.    522.    526.
   536.    569.    520.    552.    509.    539.    497.    537.
   509.    521.    531.    520.    493.    511.    523.    516.
   538.    535.    524.    560.    494.    500.    539.    505.
   525.    549.    548.    578.    559.    564.    541.    526.
   561.    553.    559.    588.    585.    551.    593.    584.
   538.    590.    586.    528.    574.    573.    571.    580.
   588.    617.    596.    604.    628.    641.    588.    641.
   675.    676.    645.    656.    638.    694.    618.    669.
   719.    683.    672.    715.    750.    732.    781.    737.
   759.    778.    735.    757.    784.    799.    729.    796.
   843.    846.    867.    901.    905.    917.    924.    881.
   951.    937.    948.   1006.   1009.   1017.   1104.   1030.
  1091.   1082.   1117.   1116.   1095.   1161.   1204.   1190.
  1223.   1227.   1272.   1271.   1288.   1342.   1391.   1406.
  1359.   1405.   1511.   1465.   1447.   1492.   1472.   1505.
  1487.   1443.   1587.   1611.   1604.   1573.   1589.   1572.
  1541.   1644.   1537.   1628.   1637.   1670.   1650.   1692.
  1725.   1717.   1747.   1751.   1761.   1802.   1758.   1805.
  1815.   1858.   1817.   1905.   1862.   1875.   1940.   1963.
  2144.   2016.   2037.   1982.   2091.   2024.   2057.   2080.
  2126.   2204.   2071.   2157.   2154.   2137.   2175.   2201.
  2172.   2160.   2172.   2147.   2170.   2145.   2120.   2069.
  2114.   2126.   2061.   2096.   2033.   2001.   2023.   1960.
  2026.   1901.   1926.   1859.   1905.   1895.   1789.   1787.
  1794.   1741.   1764.   1748.   1691.   1697.   1690.   1636.
  1670.   1634.   1668.   1597.   1636.   1592.   1625.   1661.
  1631.   1509.   1546.   1546.   1452.   1509.   1468.   1430.
  1436.   1542.   1436.   1433.   1472.   1404.   1413.   1387.
  1425.   1416.   1383.   1438.   1406.   1427.   1445.   1390.
  1424.   1416.   1405.   1428.   1407.   1407.   1403.   1441.
  1471.   1463.   1513.   1449.   1442.   1499.   1502.   1501.
  1491.   1531.   1528.   1592.   1556.   1537.   1516.   1527.
  1544.   1589.   1550.   1582.   1524.   1646.   1577.   1575.
  1510.   1545.   1554.   1608.   1580.   1495.   1558.   1571.
  1570.   1553.   1577.   1613.   1646.   1635.   1763.   1722.
  1771.   1788.   1753.   1844.   1887.   1844.   1919.   1991.
  2000.   2021.   2045.   2123.   2190.   2245.   2265.   2355.
  2301.   2390.   2371.   2426.   2491.   2474.   2409.   2428.
  2408.   2371.   2435.   2422.   2397.   2256.   2176.   2286.
  2254.   2030.   2037.   1989.   1928.   1895.   1896.   1866.
  1822.   1780.   1706.   1588.   1570.   1559.   1462.   1463.
  1437.   1440.   1362.   1323.   1259.   1247.   1200.   1179.
  1097.   1156.   1122.   1038.   1074.   1047.    972.    952.
   913.    945.    939.    897.    886.    861.    863.    884.
   816.    815.    841.    782.    772.    722.    698.    691.
   736.    730.    672.    703.    693.    685.    695.    725.
   713.    665.    696.    644.    702.    677.    642.    624.
   666.    685.    622.    618.    684.    659.    637.    613.
   632.    641.    668.    645.    600.    607.    666.    639.
   631.    608.    593.    630.    570.    614.    605.    584.
   584.    596.    558.    605.    581.    572.    588.    551.
   571.    597.    525.    574.    573.    544.    527.    584.
   564.    551.    558.    548.    553.    571.    569.    587.
   530.    562.    562.    560.    547.    573.    606.    560.
   553.    585.    592.    576.    535.    579.    567.    587.
   563.    628.    553.    569.    606.    594.    617.    573.
   616.    551.    620.    568.    575.    612.    605.    627.
   637.    620.    627.    622.    661.    653.    640.    683.
   662.    638.    628.    617.    665.    698.    697.    713.
   687.    714.    733.    742.    776.    750.    758.    790.
   832.    789.    793.    795.    795.    874.    801.    848.
   837.    819.    811.    828.    816.    797.    806.    719.
   710.    742.    746.    701.    695.    671.    711.    658.
   639.    607.    647.    596.    609.    581.    579.    620.
   631.    587.    590.    598.    599.    596.    558.    579.
   596.    618.    539.    577.    558.    588.    605.    617.
   565.    618.    597.    599.    580.    628.    667.    630.
   639.    632.    686.    675.    676.    714.    740.    742.
   722.    810.    804.    761.    809.    846.    840.    825.
   808.    849.    826.    817.    813.    804.    820.    802.
   792.    817.    791.    764.    734.    759.    787.    751.
   788.    758.    782.    765.    777.    808.    826.    751.
   784.    844.    910.    892.    874.    882.    875.    937.
   995.   1024.   1006.   1036.   1076.   1094.   1133.   1069.
  1100.   1094.   1143.   1123.   1150.   1155.   1205.   1173.
  1224.   1232.   1235.   1223.   1192.   1212.   1171.   1186.
  1205.   1145.   1137.   1160.   1106.   1105.   1175.   1059.
  1107.   1085.   1103.   1048.   1082.   1180.   1114.   1108.
  1110.   1111.   1099.   1143.   1167.   1051.   1038.   1074.
  1022.   1076.   1044.   1059.   1117.   1031.    962.   1027.
   942.    980.    964.    972.    930.    917.    911.    860.
   911.    870.    857.    838.    823.    833.    830.    770.
   746.    784.    775.    722.    738.    755.    669.    701.
   639.    688.    683.    624.    645.    691.    666.    636.
   597.    657.    644.    633.    609.    605.    591.    615.
   649.    613.    590.    568.    586.    530.    614.    606.
   599.    570.    571.    572.    596.    564.    578.    528.
   564.    593.    567.    556.    563.    528.    536.    527.
   590.    555.    567.    544.    536.    548.    562.    516.
   552.    579.    545.    584.    528.    589.    531.    522.
   548.    552.    562.    563.    559.    580.    575.    547.
   542.    578.    584.    537.    620.    550.    579.    553.
   539.    572.    557.    580.    594.    551.    566.    553.
   586.    563.    582.    569.    590.    539.    559.    597.
   548.    592.    603.    546.    601.    558.    603.    588.
   617.    610.    592.    628.    604.    611.    596.    647.
   591.    614.    641.    634.    681.    679.    623.    666.
   648.    693.    682.    673.    710.    714.    695.    734.
   730.    720.    729.    729.    785.    782.    779.    802.
   814.    838.    847.    893.    921.    956.    925.    883.
   933.    930.    953.    999.    983.    988.    994.   1046.
  1078.   1112.   1198.   1233.   1206.   1201.   1301.   1280.
  1307.   1373.   1386.   1402.   1498.   1475.   1493.   1533.
  1610.   1651.   1571.   1675.   1642.   1676.   1753.   1727.
  1749.   1748.   1767.   1787.   1770.   1796.   1740.   1765.
  1820.   1682.   1609.   1681.   1703.   1676.   1561.   1516.
  1574.   1508.   1447.   1458.   1422.   1380.   1412.   1266.
  1310.   1325.   1228.   1297.   1288.   1137.   1120.   1113.
  1075.   1090.   1115.   1007.   1072.   1028.   1008.    950.
  1011.    911.    925.    930.    887.    920.    880.    871.
   855.    848.    829.    769.    821.    779.    823.    845.
   769.    784.    785.    777.    722.    712.    707.    767.
   711.    683.    694.    689.    716.    708.    662.    687.
   714.    698.    644.    687.    668.    676.    664.    670.
   677.    618.    671.    679.    644.    665.    714.    651.
   620.    641.    632.    660.    650.    675.    672.    696.
   660.    624.    689.    593.    630.    653.    640.    646.
   661.    618.    664.    684.    678.    685.    750.    730.
   711.    686.    717.    710.    647.    696.    724.    742.
   682.    708.    751.    658.    758.    759.    726.    784.
   771.    766.    772.    825.    829.    811.    828.    811.
   808.    826.    860.    842.    901.    856.    874.    890.
   964.    941.    971.    985.    955.    990.   1034.   1037.
   984.   1041.   1020.    986.    995.   1025.   1067.   1052.
  1137.   1218.   1140.   1229.   1283.   1265.   1282.   1304.
  1335.   1316.   1376.   1426.   1455.   1467.   1491.   1559.
  1622.   1644.   1718.   1714.   1732.   1826.   1871.   1889.
  1965.   1936.   2020.   2038.   2132.   2201.   2171.   2280.
  2320.   2336.   2438.   2491.   2553.   2650.   2581.   2713.
  2799.   2715.   2793.   2830.   2980.   2898.   2962.   3112.
  2969.   3089.   3158.   3086.   3255.   3238.   3186.   3301.
  3234.   3342.   3286.   3224.   3224.   3250.   3306.   3338.
  3246.   3290.   3346.   3347.   3347.   3369.   3322.   3277.
  3346.   3393.   3383.   3387.   3341.   3395.   3294.   3349.
  3287.   3313.   3257.   3277.   3295.   3236.   3220.   3199.
  3189.   3144.   3180.   3254.   3033.   3057.   3129.   3080.
  2967.   3146.   3018.   3070.   2993.   2984.   2893.   2916.
  2881.   2967.   2904.   2873.   2775.   2760.   2748.   2689.
  2715.   2716.   2700.   2675.   2665.   2553.   2508.   2608.
  2553.   2523.   2472.   2472.   2430.   2505.   2470.   2425.
  2417.   2436.   2318.   2378.   2253.   2264.   2328.   2378.
  2324.   2265.   2324.   2218.   2306.   2196.   2199.   2199.
  2171.   2230.   2150.   2149.   2109.   2116.   2116.   2117.
  2039.   2097.   2033.   2087.   2056.   2051.   1971.   1966.
  1932.   1947.   1907.   1828.   1900.   1769.   1810.   1792.
  1784.   1759.   1725.   1659.   1646.   1619.   1623.   1658.
  1619.   1544.   1496.   1561.   1573.   1531.   1530.   1518.
  1476.   1496.   1470.   1431.   1462.   1478.   1435.   1376.
  1395.   1465.   1361.   1443.   1356.   1380.   1366.   1357.
  1333.   1377.   1375.   1349.   1327.   1377.   1260.   1363.
  1356.   1295.   1405.   1317.   1360.   1308.   1378.   1371.
  1375.   1371.   1335.   1318.   1357.   1357.   1323.   1356.
  1335.   1364.   1309.   1289.   1318.   1313.   1332.   1369.
  1307.   1280.   1391.   1374.   1295.   1375.   1403.   1394.
  1385.   1365.   1406.   1459.   1414.   1377.   1313.   1399.
  1338.   1378.   1429.   1484.   1351.   1392.   1403.   1423.
  1368.   1350.   1426.   1361.   1437.   1402.   1418.   1405.
  1343.   1405.   1405.   1390.   1358.   1351.   1419.   1374.
  1335.   1260.   1281.   1247.   1254.   1328.   1251.   1202.
  1224.   1307.   1261.   1279.   1226.   1260.   1209.   1202.
  1246.   1156.   1210.   1203.   1231.   1213.   1155.   1183.
  1143.   1165.   1201.   1153.   1155.   1130.   1139.   1122.
  1170.   1052.   1068.   1014.   1013.   1085.   1048.   1027.
   997.   1054.   1028.    874.    962.    938.    907.    880.
   864.    859.    902.    877.    868.    825.    743.    789.
   797.    796.    758.    789.    780.    743.    765.    771.
   744.    743.    721.    668.    715.    639.    690.    732.
   674.    687.    681.    655.    705.    675.    706.    668.
   642.    646.    643.    641.    659.    625.    607.    642.
   664.    663.    643.    629.    628.    598.    590.    584.
   612.    584.    634.    633.    597.    638.    598.    551.
   590.    579.    602.    615.    625.    586.    602.    582.
   588.    547.    543.    598.    586.    558.    561.    570.
   567.    575.    567.    578.    583.    556.    620.    583.
   588.    605.    554.    559.    531.    547.    554.    545.
   535.    590.    596.    565.    554.    547.    532.    562.
   517.    520.    572.    514.    545.    534.    529.    531.
   513.    515.    510.    535.    509.    503.    521.    520.
   514.    531.    503.    515.    521.    528.    535.    496.
   495.    497.    546.    496.    511.    485.    510.    496.
   530.    504.    507.    509.    493.    515.    468.    500.
   508.    574.    486.    532.    476.    516.    502.    515.
   474.    471.    507.    519.    499.    498.    530.    553.
   489.    521.    534.    509.    516.    528.    545.    538.
   512.    543.    526.    530.    543.    479.    528.    516.
   494.    472.    480.    515.    475.    504.    478.    527.
   498.    468.    486.    469.    441.    486.    507.    507.
   496.    480.    523.    477.    489.    474.    460.    493.
   524.    517.    501.    494.    513.    494.    479.    497.
   523.    507.    519.    515.    469.    536.    521.    510.
   538.    484.    537.    520.    523.    508.    516.    525.
   482.    520.    514.    494.    506.    456.    467.    522.
   526.    504.    546.    474.    523.    530.    485.    488.
   493.    500.    494.    491.    479.    500.    498.    481.
   525.    493.    488.    489.    497.    524.    518.    491.
   517.    449.    492.    508.    529.    518.    497.    529.
   539.    524.    520.    537.    508.    540.    533.    531.
   562.    552.    542.    547.    541.    550.    585.    558.
   587.    545.    561.    612.    558.    563.    570.    576.
   586.    606.    569.    563.    627.    585.    585.    657.
   650.    626.    607.    655.    667.    635.    675.    659.
   691.    661.    693.    669.    691.    671.    688.    697.
   704.    702.    689.    738.    767.    784.    770.    746.
   744.    807.    767.    758.    759.    777.    809.    769.
   813.    785.    811.    797.    739.    765.    779.    803.
   832.    856.    842.    833.    833.    842.    821.    861.
   872.    847.    841.    851.    889.    886.    901.    809.
   937.    883.    932.    879.    909.    986.    932.    953.
  1004.    996.   1000.   1007.   1031.   1070.   1015.   1036.
  1025.   1000.   1072.   1044.   1082.   1121.   1109.   1133.
  1124.   1114.   1092.   1140.   1122.   1149.   1152.   1159.
  1192.   1132.   1182.   1146.   1144.   1150.   1115.   1087.
  1065.   1085.   1093.   1128.   1076.   1084.   1065.   1085.
  1076.   1061.   1102.   1085.   1056.   1036.   1043.   1013.
  1082.   1007.   1052.    974.   1024.   1006.   1032.   1085.
  1027.    994.    999.   1007.   1012.   1024.   1024.    987.
  1016.   1068.   1031.   1006.   1083.   1070.   1026.   1015.
  1051.   1007.   1036.   1083.   1036.    999.   1021.   1013.
  1062.   1030.   1064.   1070.   1051.   1079.   1080.   1068.
  1035.   1096.   1062.   1130.   1082.   1097.   1092.   1101.
  1119.   1121.   1182.   1186.   1119.   1174.   1187.   1180.
  1165.   1151.   1207.   1304.   1250.   1242.   1242.   1294.
  1363.   1342.   1337.   1375.   1397.   1388.   1427.   1414.
  1442.   1478.   1459.   1531.   1565.   1574.   1518.   1541.
  1609.   1593.   1626.   1623.   1680.   1667.   1593.   1596.
  1564.   1640.   1585.   1550.   1567.   1636.   1589.   1575.
  1579.   1600.   1571.   1519.   1560.   1576.   1601.   1547.
  1530.   1547.   1551.   1570.   1595.   1517.   1484.   1544.
  1575.   1526.   1498.   1566.   1519.   1582.   1578.   1551.
  1512.   1505.   1509.   1511.   1545.   1535.   1501.   1526.
  1472.   1504.   1417.   1450.   1468.   1446.   1421.   1470.
  1464.   1490.   1480.   1449.   1480.   1470.   1518.   1426.
  1515.   1477.   1495.   1494.   1519.   1490.   1504.   1559.
  1521.   1535.   1512.   1526.   1587.   1560.   1517.   1536.
  1511.   1581.   1429.   1449.   1444.   1438.   1366.   1385.
  1348.   1297.   1329.   1314.   1243.   1259.   1200.   1211.
  1146.   1160.   1188.   1107.   1080.   1077.   1058.   1066.
  1056.    935.    966.    940.    968.    962.    919.    959.
   956.    896.    941.    867.    870.    858.    821.    864.
   859.    781.    839.    829.    847.    862.    843.    799.
   818.    770.    805.    772.    798.    768.    764.    783.
   726.    768.    740.    844.    810.    761.    751.    787.
   798.    779.    805.    757.    754.    804.    780.    811.
   810.    748.    786.    777.    797.    901.    888.    795.
   896.    888.    882.    852.    906.    887.    852.    869.
   943.    922.    949.    946.    970.   1074.   1002.   1035.
  1074.   1073.   1095.   1128.   1166.   1165.   1143.   1202.
  1220.   1205.   1166.   1270.   1285.   1326.   1361.   1247.
  1314.   1362.   1385.   1387.   1486.   1479.   1521.   1536.
  1516.   1502.   1499.   1591.   1622.   1639.   1590.   1568.
  1614.   1586.   1556.   1549.   1610.   1539.   1559.   1613.
  1488.   1504.   1534.   1587.   1483.   1467.   1467.   1497.
  1413.   1458.   1389.   1403.   1406.   1384.   1367.   1333.
  1330.   1328.   1301.   1298.   1294.   1273.   1272.   1186.
  1230.   1198.   1288.   1346.   1219.   1241.   1281.   1220.
  1274.   1234.   1283.   1219.   1273.   1176.   1212.   1203.
  1259.   1211.   1268.   1224.   1218.   1205.   1217.   1225.
  1279.   1205.   1233.   1280.   1198.   1174.   1213.   1198.
  1240.   1186.   1179.   1141.   1093.   1097.   1134.   1078.
  1053.   1089.   1059.   1029.   1059.   1042.    950.    966.
   969.    942.    939.    936.    913.    888.    862.    889.
   828.    813.    866.    822.    838.    777.    795.    743.
   753.    809.    788.    712.    750.    755.    730.    690.
   723.    727.    685.    703.    688.    643.    654.    685.
   669.    670.    642.    606.    617.    597.    634.    640.
   616.    651.    578.    588.    585.    623.    572.    631.
   551.    579.    597.    588.    568.    571.    534.    590.
   564.    557.    583.    550.    554.    582.    574.    574.
   533.    548.    562.    562.    607.    566.    576.    535.
   568.    541.    569.    572.    563.    596.    590.    568.
   549.    559.    591.    602.    585.    576.    612.    604.
   590.    563.    582.    569.    613.    611.    634.    631.
   598.    608.    568.    606.    606.    637.    678.    574.
   641.    623.    601.    607.    625.    618.    652.    644.
   646.    578.    638.    622.    649.    622.    601.    608.
   607.    614.    608.    605.    680.    608.    614.    582.
   603.    612.    595.    628.    574.    595.    580.    611.
   565.    583.    592.    576.    587.    554.    554.    569.
   560.    520.    562.    561.    560.    527.    518.    510.
   487.    552.    500.    486.    484.    460.    484.    522.
   483.    500.    483.    501.    490.    481.    480.    474.
   462.    489.    488.    477.    445.    458.    493.    490.
   439.    469.    484.    485.    441.    448.    440.    449.
   473.    479.    458.    475.    444.    457.    452.    453.
   448.    457.    448.    454.    443.    473.    447.    435.
   422.    430.    441.    475.    453.    489.    454.    430.
   443.    447.    420.    426.    440.    443.    448.    408.
   436.    418.    484.    441.    428.    453.    426.    430.
   417.    441.    424.    467.    465.    466.    430.    443.
   458.    443.    456.    467.    440.    432.    461.    414.
   425.    408.    446.    464.    429.    453.    429.    431.
   436.    408.    465.    431.    452.    455.    456.    440.
   431.    472.    459.    428.    425.    452.    483.    448.
   464.    464.    465.    458.    445.    445.    456.    439.
   467.    430.    469.    454.    458.    466.    457.    488.
   472.    494.    480.    466.    485.    476.    527.    492.
   549.    482.    567.    549.    532.    534.    504.    491.
   526.    518.    539.    525.    523.    527.    478.    510.
   505.    538.    513.    519.    549.    503.    531.    543.
   481.    551.    493.    551.    521.    511.    512.    516.
   521.    535.    546.    547.    511.    547.    528.    558.
   536.    556.    555.    558.    563.    561.    570.    608.
   560.    577.    552.    575.    564.    590.    589.    581.
   586.    624.    661.    623.    608.    615.    621.    620.
   590.    668.    642.    627.    645.    675.    631.    652.
   694.    629.    673.    667.    677.    698.    685.    689.
   692.    715.    651.    683.    716.    668.    694.    692.
   664.    641.    669.    685.    706.    657.    627.    679.
   628.    655.    658.    633.    600.    660.    620.    588.
   643.    608.    583.    628.    654.    590.    618.    635.
   648.    657.    622.    602.    613.    619.    630.    629.
   581.    614.    640.    592.    592.    599.    620.    600.
   628.    649.    653.    695.    690.    680.    663.    674.
   694.    713.    656.    679.    755.    704.    711.    735.
   764.    721.    778.    766.    758.    777.    788.    828.
   813.    825.    839.    826.    841.    876.    886.    928.
   940.    976.    911.    926.    907.   1022.    964.    959.
  1023.    985.    973.   1046.   1040.   1043.   1025.   1090.
  1015.   1035.   1077.   1097.   1067.   1052.   1121.   1081.
  1042.   1082.   1143.   1079.   1062.   1026.   1020.   1022.
  1053.    974.   1039.   1018.    936.    987.    977.   1004.
  1016.    960.    952.    966.    873.    934.    875.    879.
   883.    853.    852.    869.    872.    855.    804.    789.
   821.    831.    826.    843.    834.    771.    794.    800.
   776.    798.    800.    771.    768.    840.    783.    763.
   752.    766.    779.    802.    835.    829.    821.    794.
   841.    877.    873.    876.    892.    855.    958.    929.
   952.    994.    987.   1003.   1015.   1009.   1033.    974.
  1060.   1080.   1110.   1159.   1227.   1141.   1132.   1279.
  1205.   1259.   1207.   1300.   1352.   1276.   1319.   1346.
  1298.   1354.   1328.   1350.   1343.   1330.   1324.   1288.
  1332.   1304.   1256.   1221.   1223.   1219.   1190.   1167.
  1143.   1113.   1132.   1118.   1072.   1084.   1035.   1016.
  1049.   1053.   1054.   1023.    997.   1027.    949.   1012.
   972.    991.    973.    965.    924.    926.    927.    905.
   901.    888.    853.    856.    821.    859.    872.    884.
   868.    845.    809.    864.    839.    794.    815.    804.
   785.    831.    751.    761.    784.    794.    774.    819.
   787.    779.    769.    809.    748.    726.    734.    740.
   749.    726.    743.    760.    748.    770.    757.    775.
   763.    750.    785.    753.    760.    749.    769.    783.
   781.    746.    755.    755.    763.    770.    700.    714.
   759.    743.    734.    745.    749.    714.    687.    709.
   715.    700.    669.    725.    627.    626.    701.    674.
   673.    679.    664.    633.    635.    644.    640.    627.
   658.    652.    640.    641.    624.    557.    645.    653.
   611.    623.    624.    621.    652.    653.    611.    644.
   641.    600.    641.    632.    608.    604.    635.    660.
   594.    604.    652.    604.    651.    606.    659.    596.
   647.    635.    688.    607.    650.    664.    628.    672.
   698.    660.    650.    663.    648.    679.    740.    658.
   643.    645.    676.    654.    649.    651.    635.    653.
   652.    674.    688.    655.    634.    670.    645.    647.
   654.    669.    639.    609.    675.    650.    627.    669.
   650.    646.    679.    646.    679.    611.    633.    675.
   629.    646.    652.    660.    619.    633.    653.    658.
   654.    653.    670.    617.    653.    654.    669.    637.
   689.    667.    658.    640.    659.    638.    644.    674.
   645.    617.    665.    667.    652.    646.    689.    711.
   665.    673.    682.    675.    714.    679.    712.    705.
   710.    681.    737.    703.    714.    733.    748.    729.
   774.    771.    782.    778.    781.    777.    816.    825.
   783.    835.    859.    836.    828.    872.    908.    882.
   876.    857.    898.    932.    924.    991.    969.   1003.
  1004.   1000.   1071.   1055.   1025.   1124.   1061.   1100.
  1155.   1124.   1156.   1171.   1219.   1196.   1189.   1224.
  1201.   1247.   1221.   1226.   1250.   1271.   1238.   1322.
  1315.   1377.   1252.   1242.   1261.   1296.   1281.   1313.
  1266.   1265.   1174.   1236.   1280.   1235.   1220.   1192.
  1270.   1238.   1167.   1183.   1136.   1144.   1110.   1079.
  1089.   1060.   1054.   1113.   1091.   1071.   1012.    984.
   992.    979.   1015.    992.    962.    974.    957.    931.
   938.    914.    937.    983.    901.    892.    869.    865.
   861.    849.    874.    850.    849.    808.    820.    826.
   783.    777.    834.    822.    805.    765.    831.    828.
   804.    794.    770.    781.    867.    793.    755.    747.
   774.    763.    779.    771.    771.    791.    736.    783.
   781.    742.    755.    778.    781.    788.    801.    789.
   762.    762.    815.    805.    778.    826.    855.    893.
   804.    806.    817.    838.    836.    847.    895.    894.
   815.    873.    868.    854.    880.    877.    961.    922.
   979.    951.    991.    963.    969.    978.   1003.   1026.
  1038.   1004.   1008.   1032.   1073.   1041.   1016.   1061.
  1034.   1069.   1033.   1023.   1021.   1024.   1017.   1004.
  1028.   1023.    993.    993.    987.    946.    957.    981.
   895.    904.    919.    930.    914.    916.    872.    868.
   928.    892.    892.    891.    875.    880.    857.    798.
   853.    787.    840.    856.    770.    804.    910.    865.
   823.    898.    862.    811.    858.    835.    860.    841.
   817.    827.    819.    808.    796.    757.    823.    819.
   815.    824.    791.    805.    802.    816.    812.    776.
   770.    772.    777.    816.    773.    745.    726.    750.
   744.    741.    777.    745.    758.    747.    757.    727.
   679.    742.    758.    727.    697.    692.    703.    708.
   743.    746.    761.    730.    735.    727.    718.    715.
   753.    731.    739.    709.    736.    715.    762.    685.
   733.    764.    779.    770.    784.    776.    790.    790.
   796.    863.    830.    787.    860.    853.    853.    883.
   823.    887.    898.    886.    886.    953.    916.    935.
   890.    942.    930.   1013.   1004.    982.   1003.   1006.
  1006.    977.    994.   1021.   1004.   1050.   1028.   1028.
  1050.   1043.   1058.   1064.   1052.   1076.   1066.   1017.
  1043.   1026.   1072.   1049.   1095.   1113.   1082.   1150.
  1155.   1059.   1112.   1120.   1108.   1122.   1110.   1145.
  1135.   1121.   1072.   1135.   1153.   1131.   1186.   1155.
  1155.   1183.   1124.   1141.   1130.   1218.   1137.   1151.
  1147.   1153.   1125.   1140.   1161.   1151.   1138.   1225.
  1171.   1150.   1108.   1140.   1142.   1059.   1130.   1079.
  1084.   1088.   1099.   1071.   1107.   1088.   1122.   1064.
  1144.   1151.   1074.   1087.   1053.   1123.   1044.   1077.
  1124.   1104.   1122.   1076.   1116.   1155.   1113.   1146.
  1159.   1108.   1125.   1137.   1116.   1100.   1133.   1154.
  1145.   1120.   1133.   1112.   1108.   1134.   1074.   1140.
  1131.   1146.   1080.   1104.   1105.   1149.   1192.   1112.
  1123.   1138.   1140.   1069.   1049.   1068.   1093.   1022.
  1034.   1034.   1075.   1040.   1010.    984.   1029.   1094.
  1018.   1019.   1011.   1006.    946.    963.    999.   1013.
   955.    962.    975.    868.    884.    898.    881.    825.
   880.    839.    859.    864.    868.    836.    793.    780.
   802.    781.    775.    776.    746.    754.    760.    795.
   725.    761.    760.    761.    728.    777.    746.    698.
   740.    710.    768.    773.    759.    752.    791.    728.
   795.    831.    809.    766.    841.    799.    811.    812.
   840.    815.    839.    877.    905.    855.    890.    900.
   935.    934.    878.    890.    879.    846.    905.    825.
   948.    867.    869.    877.    823.    884.    811.    827.
   795.    780.    826.    800.    847.    821.    813.    802.
   816.    840.    798.    793.    783.    817.    799.    785.
   794.    767.    829.    827.    783.    788.    782.    773.
   771.    801.    814.    799.    812.    777.    702.    777.
   769.    767.    703.    728.    741.    686.    705.    678.
   697.    666.    660.    669.    635.    630.    595.    604.
   631.    621.    642.    605.    597.    585.    569.    540.
   602.    583.    536.    567.    536.    541.    543.    537.
   571.    521.    554.    588.    534.    540.    546.    539.
   535.    535.    506.    490.    524.    490.    493.    517.
   566.    550.    527.    526.    484.    527.    542.    524.
   525.    479.    501.    540.    544.    545.    535.    526.
   513.    514.    549.    533.    531.    540.    531.    515.
   535.    525.    547.    500.    509.    555.    527.    511.
   540.    498.    498.    482.    492.    483.    504.    508.
   511.    525.    514.    511.    508.    499.    535.    518.
   517.    506.    465.    494.    484.    519.    495.    525.
   543.    487.    507.    541.    511.    527.    567.    532.
   526.    555.    530.    557.    550.    518.    529.    540.
   554.    520.    589.    558.    523.    538.    566.    550.
   611.    580.    582.    602.    593.    586.    581.    624.
   639.    649.    625.    625.    626.    630.    646.    659.
   661.    672.    654.    669.    666.    680.    672.    692.
   712.    743.    727.    727.    774.    783.    777.    775.
   771.    810.    861.    874.    850.    865.    867.    869.
   912.    898.    944.    916.    939.    955.    933.    963.
  1038.   1009.   1046.   1040.   1066.   1062.   1120.   1151.
  1150.   1179.   1148.   1260.   1215.   1211.   1285.   1293.
  1308.   1270.   1350.   1330.   1343.   1385.   1320.   1381.
  1441.   1444.   1366.   1450.   1472.   1445.   1510.   1444.
  1556.   1512.   1537.   1556.   1454.   1558.   1542.   1481.
  1532.   1597.   1598.   1566.   1619.   1666.   1622.   1613.
  1609.   1684.   1688.   1708.   1672.   1642.   1695.   1713.
  1727.   1709.   1788.   1809.   1817.   1856.   1869.   1902.
  1842.   1886.   1888.   1830.   1921.   1845.   1885.   1953.
  1978.   1986.   1986.   2006.   1931.   2051.   2019.   1989.
  2071.   2109.   2023.   2182.   2157.   2150.   2083.   2205.
  2057.   2157.   2111.   2128.   2088.   2073.   2125.   2065.
  2135.   2095.   2086.   2088.   2038.   2005.   1979.   1988.
  1983.   1967.   1910.   1974.   1947.   1933.   1958.   1880.
  1809.   1938.   1815.   1734.   1764.   1736.   1754.   1638.
  1688.   1651.   1596.   1632.   1648.   1575.   1529.   1571.
  1458.   1517.   1535.   1439.   1481.   1460.   1463.   1443.
  1511.   1459.   1364.   1397.   1368.   1365.   1384.   1279.
  1305.   1287.   1308.   1323.   1278.   1263.   1248.   1288.
  1229.   1230.   1239.   1243.   1212.   1267.   1206.   1222.
  1204.   1198.   1237.   1180.   1158.   1167.   1219.   1130.
  1106.   1101.   1123.   1155.   1209.   1128.   1136.   1158.
  1127.   1099.   1077.   1099.   1040.   1040.   1082.   1055.
  1074.   1037.   1004.   1071.   1019.    998.   1009.    969.
  1012.   1024.    966.    957.    903.    976.    960.    949.
   948.    939.    985.    961.    950.    915.    958.    932.
   853.    924.    925.    910.    879.    851.    856.    875.
   866.    823.    862.    844.    837.    813.    828.    853.
   820.    856.    844.    832.    775.    769.    779.    825.
   786.    782.    760.    790.    764.    747.    788.    777.
   782.    758.    784.    769.    834.    829.    806.    781.
   742.    779.    735.    763.    732.    802.    741.    761.
   723.    750.    763.    683.    735.    732.    775.    743.
   772.    728.    743.    751.    721.    707.    749.    719.
   744.    737.    723.    715.    723.    740.    721.    706.
   740.    739.    769.    777.    724.    764.    715.    751.
   773.    744.    739.    773.    756.    793.    747.    736.
   755.    764.    748.    762.    770.    785.    772.    739.
   750.    777.    746.    768.    743.    739.    702.    723.
   731.    697.    717.    726.    709.    675.    708.    706.
   697.    690.    672.    716.    665.    678.    702.    681.
   605.    653.    656.    632.    656.    625.    629.    625.
   599.    623.    639.    612.    593.    640.    603.    632.
   613.    586.    607.    568.    612.    594.    597.    625.
   589.    617.    612.    586.    622.    640.    614.    554.
   578.    585.    561.    577.    597.    586.    576.    574.                                     
   539.    596.    585.    616.    618.    558.    618.    611.
   588.    568.    584.    553.    593.    549.    557.    582.
   560.    566.    598.    616.    596.    625.    623.    586.
   612.    584.    590.    621.    601.    634.    637.    652.
   658.    642.    696.    671.    679.    722.    642.    657.
   672.    691.    701.    739.    709.    712.    789.    763.
   764.    815.    787.    775.    782.    819.    771.    799.
   836.    799.    841.    864.    887.    815.    835.    877.
   835.    883.    859.    855.    855.    868.    881.    892.
   861.    888.    889.    896.    899.    904.    914.    920.
   870.    910.    875.    852.    887.    910.    855.    901.
   843.    906.    939.    855.    919.    986.    937.    898.
   883.    931.    876.    838.    914.    903.    911.    940.
   973.    960.    927.    953.    963.    937.    953.    932.
   884.    964.    909.    883.    964.   1000.    879.    995.
   936.    932.    996.    977.    957.    981.    959.    987.
   948.    985.    960.    921.    929.   1005.    993.    965.
   945.    952.    923.    981.    952.    938.    971.    920.
   946.    988.    977.    910.    949.    955.    941.    863.
   964.    969.    878.    913.    885.    895.    911.    894.
   897.    960.    916.    898.    885.    896.    855.    847.
   859.    874.    902.    844.    824.    851.    815.    824.
   835.    872.    844.    849.    864.    823.    807.    792.
   806.    821.    803.    846.    851.    776.    822.    784.
   784.    852.    827.    804.    796.    751.    809.    810.
   789.    825.    837.    808.    844.    764.    864.    864.
   825.    851.    837.    832.    863.    856.    913.    849.
   865.    878.    891.    879.    921.    909.    907.    944.
   945.    951.    931.    962.    959.    961.   1055.    975.
  1028.   1074.    966.    997.   1093.   1106.   1103.   1079.
  1068.   1043.   1134.   1093.   1158.   1123.   1151.   1175.
  1227.   1221.   1241.   1277.   1309.   1304.   1276.   1236.
  1300.   1394.   1333.   1364.   1441.   1448.   1440.   1466.
  1356.   1552.   1535.   1581.   1488.   1492.   1564.   1526.
  1577.   1588.   1560.   1609.   1631.   1665.   1642.   1612.
  1619.   1676.   1588.   1664.   1615.   1656.   1653.   1618.
  1658.   1601.   1705.   1656.   1697.   1684.   1650.   1618.
  1641.   1581.   1592.   1600.   1590.   1605.   1617.   1562.
  1559.   1555.   1582.   1499.   1524.   1399.   1406.   1481.
  1391.   1391.   1339.   1319.   1349.   1322.   1272.   1315.
  1251.   1255.   1216.   1170.   1199.   1163.   1223.   1174.
  1132.   1143.   1087.   1079.   1069.   1038.   1008.   1022.
   963.    973.    987.    993.    978.    984.    966.    967.
   935.    913.    931.    912.    917.    857.    859.    854.
   830.    856.    820.    827.    833.    878.    869.    842.
   867.    842.    832.    826.    811.    828.    877.    806.
   845.    864.    792.    854.    835.    890.    837.    827.
   802.    834.    865.    804.    873.    898.    881.    887.
   891.    872.    913.    915.    901.    907.    920.    897.
   898.    992.    916.    908.    898.    909.    902.    947.
   904.    932.    960.    961.    907.    948.    967.    975.
   943.    957.    976.    968.   1029.    980.    971.   1024.
   927.    992.    979.    977.    949.    955.    913.    953.
   923.    952.    952.    881.    937.    951.    934.    891.
   886.    933.    918.    915.    899.    921.    924.    920.
   877.    966.    958.    929.    924.    927.    893.    900.
   886.    940.    911.    931.    957.    962.    934.    917.
   956.    961.    925.    951.    967.    923.    928.    943.
   892.   1006.   1004.   1019.   1005.    977.   1037.   1041.
  1059.   1053.   1035.   1082.   1041.   1034.   1034.   1161.
  1086.   1059.   1104.   1067.   1135.   1086.   1167.   1216.
  1179.   1263.   1223.   1265.   1256.   1236.   1243.   1300.
  1300.   1310.   1299.   1407.   1299.   1327.   1331.   1319.
  1386.   1425.   1442.   1457.   1367.   1451.   1424.   1363.
  1436.   1453.   1402.   1351.   1412.   1426.   1414.   1390.
  1380.   1372.   1347.   1378.   1443.   1377.   1321.   1291.
  1286.   1308.   1353.   1272.   1272.   1251.   1154.   1295.
  1209.   1161.   1192.   1195.   1122.   1170.   1168.   1194.
  1164.   1131.   1167.   1117.   1129.   1115.   1149.   1136.
  1088.   1106.   1101.   1073.   1082.   1028.   1102.   1095.
  1087.   1107.   1037.   1063.   1065.   1065.    997.   1045.
  1034.   1029.   1073.   1039.   1102.   1061.   1082.   1028.
  1021.   1001.   1035.   1037.   1027.   1084.   1003.   1009.
  1013.   1046.    980.   1082.   1028.   1059.   1038.   1018.
  1047.   1038.   1016.   1008.   1028.    996.    998.    998.
  1057.    983.   1020.   1011.   1034.    998.   1022.   1050.
   991.   1022.   1030.   1040.   1040.   1023.   1048.   1009.
  1110.   1079.   1098.   1090.   1039.   1043.   1090.   1026.
  1093.   1034.   1037.   1000.   1043.   1028.   1014.    970.
   960.    929.    950.    914.    888.    949.    904.    904.
   849.    837.    832.    799.    872.    837.    804.    798.
   780.    786.    777.    771.    739.    725.    779.    713.
   747.    735.    742.    771.    762.    722.    699.    714.
   756.    706.    753.    713.    726.    740.    749.    723.
   732.    711.    712.    745.    685.    724.    719.    701.
   694.    731.    635.    668.    692.    655.    646.    640.
   672.    712.    641.    600.    645.    582.    613.    642.
   628.    619.    582.    564.    581.    584.    599.    599.
   565.    568.    547.    577.    566.    571.    564.    563.
   565.    610.    620.    574.    567.    559.    575.    581.
   579.    561.    551.    548.    588.    591.    570.    612.
   576.    574.    601.    614.    590.    567.    600.    622.
   606.    626.    603.    618.    613.    614.    600.    547.
   612.    676.    617.    606.    620.    592.    632.    587.
   602.    580.    602.    605.    604.    634.    682.    671.
   651.    632.    627.    626.    601.    600.    598.    578.
   616.    600.    569.    630.    597.    578.    588.    556.
   598.    578.    552.    583.    534.    561.    524.    524.
   506.    490.    518.    539.    518.    488.    489.    527.
   492.    487.    507.    456.    474.    483.    463.    500.
   492.    472.    441.    473.    476.    485.    490.    466.
   468.    461.    452.    471.    491.    509.    445.    427.
   447.    456.    426.    427.    431.    442.    417.    460.
   474.    437.    421.    446.    457.    425.    449.    489.
   444.    472.    426.    466.    454.    410.    457.    432.
   425.    446.    437.    464.    439.    426.    461.    452.
   433.    450.    438.    453.    457.    467.    452.    420.
   420.    470.    461.    455.    450.    486.    493.    474.
   483.    463.    472.    470.    483.    474.    495.    451.
   525.    497.    495.    493.    502.    447.    511.    531.
   508.    516.    494.    499.    495.    499.    547.    499.
   520.    485.    517.    501.    476.    507.    495.    529.
   529.    497.    540.    511.    521.    530.    546.    568.
   553.    530.    549.    580.    552.    521.    615.    586.
   600.    621.    615.    563.    583.    629.    613.    573.
   600.    636.    592.    564.    597.    549.    602.    618.
   601.    593.    590.    585.    537.    564.    582.    599.
   578.    588.    637.    612.    565.    563.    557.    577.
   603.    586.    635.    576.    597.    570.    607.    581.
   592.    593.    581.    571.    599.    556.    621.    542.
   571.    593.    604.    590.    581.    584.    629.    594.
   603.    541.    584.    556.    572.    580.    588.    571.
   539.    597.    546.    563.    585.    567.    568.    559.
   595.    575.    563.    588.    570.    584.    594.    593.
   589.    568.    590.    605.    600.    590.    581.    587.
   588.    538.    554.    576.    579.    608.    614.    601.
   541.    532.    580.    572.    552.    585.    512.    527.
   552.    557.    552.    534.    539.    544.    510.    530.
   512.    542.    520.    536.    509.    503.    465.    506.
   502.    507.    498.    498.    485.    483.    503.    485.
   492.    474.    458.    471.    484.    478.    482.    440.
   496.    478.    512.    483.    486.    485.    480.    456.
   461.    496.    461.    478.    483.    481.    497.    490.
   487.    477.    459.    502.    473.    500.    495.    455.
   537.    500.    485.    456.    486.    491.    513.    501.
   559.    537.    538.    523.    521.    532.    504.    474.
   534.    523.    515.    580.    504.    521.    586.    543.
   539.    548.    541.    579.    575.    578.    583.    524.
   590.    540.    569.    589.    559.    576.    565.    563.
   584.    576.    586.    603.    604.    579.    615.    582.
   580.    588.    609.    576.    592.    625.    589.    600.
   582.    619.    611.    588.    628.    651.    644.    642.
   665.    638.    648.    640.    674.    662.    660.    625.
   649.    656.    652.    647.    683.    644.    644.    688.
   725.    676.    677.    660.    669.    668.    651.    678.
   694.    690.    712.    703.    690.    726.    683.    669.
   676.    694.    651.    658.    688.    682.    673.    673.
   671.    664.    702.    641.    636.    717.    650.    707.
   677.    674.    712.    673.    660.    672.    672.    680.
   675.    692.    690.    682.    656.    729.    646.    691.
   686.    719.    703.    732.    723.    716.    703.    719.
   740.    683.    687.    715.    738.    685.    732.    764.
   728.    755.    758.    745.    757.    742.    771.    788.
   766.    755.    795.    817.    803.    796.    820.    845.
   838.    817.    864.    853.    895.    852.    826.    853.
   946.    909.    918.    959.    949.    908.    984.    895.
   946.    944.    989.    931.    972.    960.    938.    920.
   941.    970.    955.    958.    992.    953.   1007.    973.
   971.    992.    950.    975.    924.    941.    991.   1006.
   991.    968.    894.    989.    978.    990.    946.    980.
  1048.    952.    917.    930.    931.   1022.    872.    953.
   915.    941.    868.    869.    801.    882.    836.    832.
   839.    831.    808.    876.    846.    777.    797.    804.
   882.    802.    811.    797.    821.    818.    748.    790.
   752.    769.    772.    782.    765.    746.    743.    773.
   757.    812.    768.    735.    746.    732.    751.    737.
   689.    716.    722.    743.    691.    695.    704.    741.
   698.    665.    681.    707.    697.    710.    622.    694.
   645.    694.    647.    665.    663.    627.    644.    597.
   662.    678.    610.    631.    591.    604.    609.    634.
   563.    620.    547.    553.    590.    586.    591.    570.
   576.    587.    546.    578.    573.    564.    565.    564.
   587.    561.    539.    561.    571.    531.    551.    571.
   564.    574.    602.    571.    560.    600.    607.    594.
   601.    634.    601.    598.    583.    575.    570.    576.
   601.    562.    629.    609.    625.    619.    590.    639.
   582.    599.    633.    640.    614.    602.    664.    639.
   611.    629.    662.    632.    631.    692.    641.    673.
   686.    657.    662.    674.    666.    713.    684.    681.
   669.    688.    640.    696.    719.    734.    699.    714.
   706.    734.    757.    776.    744.    778.    762.    747.
   780.    800.    764.    826.    804.    776.    787.    802.
   807.    788.    809.    821.    866.    852.    803.    869.
   881.    795.    826.    820.    801.    805.    839.    808.
   791.    783.    836.    811.    823.    746.    776.    801.
   803.    790.    794.    795.    747.    806.    795.    804.
   788.    778.    736.    741.    726.    777.    734.    734.
   715.    717.    732.    722.    731.    702.    683.    658.
   715.    642.    689.    663.    677.    697.    674.    658.
   615.    652.    648.    616.    663.    684.    640.    614.
   615.    650.    625.    584.    616.    637.    635.    637.
   595.    614.    599.    608.    598.    629.    590.    585.
   614.    592.    628.    613.    585.    607.    586.    603.
   564.    601.    623.    576.    596.    616.    593.    560.
   538.    541.    540.    550.    563.    565.    503.    566.
   498.    570.    501.    509.    519.    528.    530.    495.
   527.    519.    516.    514.    517.    470.    541.    518.
   505.    547.    525.    504.    525.    508.    517.    538.
   501.    504.    483.    489.    504.    461.    479.    488.
   524.    571.    506.    475.    510.    488.    508.    490.
   480.    506.    513.    485.    513.    494.    466.    476.
   498.    511.    527.    495.    526.    520.    501.    487.
   497.    555.    518.    549.    530.    532.    554.    531.
   521.    485.    566.    573.    532.    545.    584.    571.
   581.    604.    621.    585.    584.    620.    597.    612.
   565.    613.    585.    583.    588.    636.    639.    623.
   611.    599.    597.    571.    618.    607.    599.    585.
   555.    548.    549.    571.    576.    560.    540.    565.
   549.    572.    553.    560.    557.    532.    553.    531.
   504.    510.    501.    485.    503.    520.    500.    451.
   466.    472.    486.    471.    462.    448.    458.    463.
   434.    435.    486.    454.    437.    447.    467.    448.
   460.    439.    464.    426.    396.    458.    420.    456.
   443.    418.    450.    438.    449.    442.    430.    433.
   417.    458.    430.    415.    403.    427.    438.    418.
   423.    396.    439.    449.    431.    466.    405.    389.
   435.    435.    428.    418.    421.    411.    436.    413.
   402.    413.    408.    397.    424.    393.    435.    436.
   422.    400.    403.    406.    413.    435.    422.    400.
   403.    401.    385.    386.    406.    388.    392.    396.
   397.    409.    390.    367.    413.    378.    392.    367.
   394.    427.    421.    404.    408.    404.    385.    369.
   371.    405.    423.    424.    373.    399.    387.    413.
   419.    393.    392.    399.    422.    417.    406.    384.
   393.    399.    422.    381.    414.    397.    369.    404.
   367.    380.    397.    404.    384.    430.    416.    394.
   380.    404.    391.    425.    410.    439.    389.    410.
   394.    378.    413.    419.    415.    431.    396.    379.
   423.    390.    410.    420.    412.    410.    398.    384.
   402.    367.    430.    403.    408.    406.    408.    400.
   366.    434.    433.    433.    420.    415.    383.    411.
   428.    441.    425.    415.    432.    438.    401.    438.
   421.    415.    433.    405.    405.    432.    420.    475.
   452.    444.    442.    468.    424.    438.    475.    430.
   434.    448.    446.    440.    423.    443.    441.    443.
   455.    455.    432.    440.    455.    421.    445.    403.
   380.    432.    406.    412.    443.    413.    407.    435.
   432.    416.    414.    479.    433.    401.    446.    441.
   408.    455.    435.    430.    452.    426.    457.    455.
   483.    464.    403.    463.    418.    407.    442.    413.
   442.    430.    409.    409.    394.    400.    422.    410.
   403.    435.    397.    423.    402.    432.    391.    397.
   403.    421.    433.    425.    430.    393.    413.    411.
   413.    403.    421.    416.    407.    392.    434.    398.
   426.    425.    391.    436.    441.    399.    405.    416.
   390.    428.    430.    408.    441.    407.    436.    419.
   456.    410.    431.    476.    420.    455.    435.    463.
   404.    472.    429.    434.    459.    432.    418.    451.
   468.    441.    448.    490.    454.    485.    485.    471.
   509.    456.    532.    473.    470.    488.    520.    525.
   555.    512.    490.    511.    532.    525.    538.    506.
   527.    523.    538.    505.    562.    528.    501.    534.
   518.    526.    547.    538.    557.    565.    583.    579.
   596.    597.    561.    635.    620.    595.    614.    652.
   617.    603.    621.    594.    645.    666.    605.    659.
   620.    623.    648.    665.    637.    636.    685.    672.
   633.    647.    638.    681.    621.    678.    677.    670.
   670.    687.    642.    658.    709.    693.    661.    717.
   736.    724.    698.    770.    737.    757.    767.    789.
   769.    763.    795.    794.    777.    837.    832.    807.
   839.    836.    803.    873.    853.    875.    843.    836.
   892.    855.    878.    888.    887.    898.    893.    936.
   928.    860.    919.    871.    911.    910.    875.    887.
   870.    888.    901.    846.    832.    854.    858.    849.
   849.    782.    817.    801.    858.    852.    771.    792.
   804.    759.    774.    791.    780.    792.    791.    719.
   756.    722.    752.    730.    706.    726.    730.    725.
   659.    734.    708.    728.    717.    716.    673.    678.
   704.    657.    692.    679.    681.    667.    691.    684.
   706.    684.    663.    654.    675.    686.    675.    679.
   679.    652.    646.    707.    664.    659.    689.    727.
   700.    664.    696.    693.    659.    701.    669.    680.
   654.    674.    701.    690.    732.    623.    708.    730.
   719.    730.    740.    734.    766.    739.    723.    779.
   779.    734.    763.    781.    813.    776.    780.    802.
   823.    766.    823.    796.    819.    847.    794.    802.
   860.    841.    863.    844.    839.    865.    856.    811.
   870.    893.    873.    900.    893.    921.    881.    904.
   951.    854.    925.    913.    932.    920.    928.    946.
   889.    934.    945.    950.    913.    949.    874.    903.
   967.    885.    898.    924.    953.    878.    969.    940.
   949.    901.    889.    948.    935.    954.    930.    934.
   952.    991.    997.    922.    989.    987.    964.    985.
   954.    980.    954.    942.    926.    998.    938.    930.
   960.    969.    907.    970.    952.    984.    924.    977.
   931.    924.    879.    977.    938.    925.    935.    933.
   909.    911.    920.    899.    892.    855.    935.    862.
   860.    890.    888.    876.    832.    849.    884.    834.
   801.    829.    893.    897.    819.    824.    767.    797.
   821.    788.    763.    805.    760.    805.    750.    737.
   779.    734.    783.    775.    781.    750.    741.    704.
   763.    724.    749.    744.    731.    728.    716.    700.
   719.    730.    756.    728.    697.    733.    759.    700.
   676.    721.    696.    736.    745.    734.    732.    699.
   765.    789.    757.    718.    744.    711.    711.    780.
   753.    730.    788.    769.    742.    727.    784.    742.
   760.    706.    722.    751.    767.    731.    719.    762.
   688.    723.    743.    744.    711.    714.    748.    767.
   748.    715.    742.    731.    715.    745.    759.    770.
   699.    738.    766.    777.    751.    794.    782.    754.
   766.    739.    685.    709.    706.    729.    745.    716.
   729.    725.    743.    671.    683.    743.    683.    716.
   674.    692.    730.    734.    715.    713.    701.    680.
   662.    693.    642.    632.    667.    643.    667.    680.
   672.    661.    695.    681.    634.    681.    677.    657.
   684.    707.    693.    616.    694.    663.    658.    653.
   651.    669.    642.    670.    676.    636.    663.    716.
   652.    693.    687.    700.    676.    679.    716.    692.
   755.    692.    738.    777.    774.    705.    737.    728.
   781.    805.    790.    751.    752.    798.    737.    802.
   839.    823.    836.    857.    884.    829.    821.    854.
   881.    871.    837.    863.    882.    918.    915.    918.
   924.    865.    955.    924.    951.    964.    963.    969.
  1018.    993.    948.    979.   1045.   1001.    939.    955.
   985.   1039.   1015.    971.    981.    982.   1020.    977.
  1065.   1033.   1071.   1047.   1076.   1057.   1068.   1041.
  1121.   1058.   1086.   1023.   1118.   1079.   1086.   1133.
  1122.   1178.   1133.   1221.   1175.   1122.   1232.   1234.
  1154.   1257.   1304.   1252.   1301.   1337.   1357.   1324.
  1345.   1326.   1389.   1390.   1440.   1377.   1411.   1405.
  1455.   1484.   1510.   1498.   1474.   1477.   1457.   1478.
  1499.   1555.   1522.   1503.   1508.   1567.   1587.   1553.
  1576.   1533.   1568.   1654.   1588.   1550.   1553.   1610.
  1610.   1564.   1496.   1602.   1533.   1501.   1573.   1558.
  1498.   1572.   1490.   1451.   1475.   1468.   1441.   1495.
  1425.   1410.   1376.   1453.   1445.   1397.   1327.   1373.
  1431.   1398.   1380.   1373.   1371.   1300.   1323.   1323.
  1294.   1336.   1281.   1267.   1251.   1214.   1317.   1298.
  1230.   1228.   1219.   1182.   1243.   1246.   1221.   1217.
  1204.   1199.   1184.   1167.   1175.   1145.   1101.   1084.
  1157.   1035.   1098.   1119.   1090.   1104.    993.   1050.
  1062.   1038.   1044.   1010.   1026.    954.    987.   1003.
   945.    989.    969.    965.   1004.    961.    962.    966.
   958.    959.    931.    945.    913.    883.    902.    927.
   942.    877.    934.    877.    904.    895.    891.    891.
   933.    900.    972.    952.    902.    931.    963.    922.
   923.    931.    907.    941.    929.    986.    950.    903.
   886.    965.    932.    970.    953.    961.    947.    903.
   902.    839.    907.    897.    924.    880.    902.    855.
   903.    865.    881.    885.    854.    871.    914.    884.
   881.    818.    865.    848.    850.    793.    890.    854.
   868.    823.    840.    843.    861.    898.    814.    759.
   810.    858.    787.    805.    813.    835.    832.    842.
   802.    766.    795.    723.    767.    811.    803.    803.
   799.    772.    780.    782.    789.    722.    726.    767.
   768.    747.    743.    760.    740.    774.    763.    753.
   736.    724.    748.    721.    764.    774.    773.    762.
   763.    718.    750.    714.    742.    773.    762.    725.
   779.    725.    748.    768.    781.    787.    783.    763.
   785.    792.    757.    800.    806.    793.    754.    789.
   815.    805.    801.    845.    847.    830.    798.    819.
   800.    818.    910.    867.    860.    883.    925.    883.
   896.    890.    894.    914.    970.    983.    936.    943.
   950.    952.    968.    955.    995.   1040.    994.   1059.
  1020.    973.   1036.   1021.   1096.   1067.   1036.   1071.
  1060.   1046.   1067.   1137.   1147.   1110.   1113.   1152.
  1110.   1095.   1159.   1126.   1119.   1113.   1203.   1122.
  1106.   1073.   1157.   1117.   1133.   1104.   1165.   1098.
  1044.   1087.   1089.   1094.   1106.   1066.   1071.   1048.
  1051.    976.    997.   1008.    965.    990.   1055.   1019.
  1002.    970.    977.    988.    987.   1002.    949.    915.
   937.    871.    874.    905.    870.    925.    901.    840.
   844.    833.    874.    840.    815.    783.    862.    847.
   846.    804.    768.    772.    752.    734.    753.    721.
   741.    751.    730.    760.    738.    776.    775.    752.
   725.    720.    725.    696.    670.    684.    736.    656.
   702.    673.    665.    654.    684.    649.    647.    618.
   640.    610.    603.    603.    630.    631.    639.    631.
   616.    646.    625.    640.    637.    667.    647.    622.
   665.    618.    651.    626.    611.    622.    627.    598.
   583.    587.    618.    593.    592.    615.    604.    624.
   599.    584.    621.    615.    645.    646.    609.    646.
   624.    595.    597.    630.    638.    624.    645.    664.
   664.    633.    577.    670.    652.    630.    617.    639.
   634.    649.    607.    656.    591.    670.    609.    647.
   635.    634.    610.    671.    684.    660.    633.    656.
   633.    634.    636.    647.    627.    636.    596.    644.
   671.    688.    657.    658.    635.    664.    659.    665.
   682.    664.    675.    697.    684.    714.    669.    688.
   643.    623.    699.    736.    661.    663.    666.    734.
   665.    708.    735.    740.    714.    720.    738.    757.
   728.    776.    779.    708.    761.    781.    764.    730.
   759.    814.    742.    757.    781.    788.    757.    770.
   758.    712.    787.    805.    747.    802.    798.    749.
   853.    796.    803.    825.    760.    818.    773.    838.
   824.    794.    837.    793.    834.    836.    807.    824.
   851.    894.    844.    885.    893.    902.    921.    961.
   940.    901.    887.    934.    947.    948.    897.    925.
   876.    936.    945.    921.    938.    946.    972.    922.
   949.    997.    955.    996.    962.    973.    946.    951.
   967.    947.    959.    908.    964.    946.    946.    930.
   936.    935.    966.    936.    971.    928.    949.    971.
   951.    948.    959.    993.   1028.    995.   1048.    995.
  1009.   1055.   1025.    985.   1026.   1038.   1055.   1032.
  1122.   1112.   1058.   1026.   1043.   1040.   1075.   1132.
  1024.   1107.   1062.   1098.   1165.   1214.   1140.   1118.
  1122.   1127.   1120.   1205.   1186.   1229.   1199.   1209.
  1194.   1192.   1207.   1181.   1201.   1199.   1233.   1256.
  1228.   1178.   1212.   1203.   1256.   1228.   1206.   1241.
  1298.   1288.   1242.   1290.   1279.   1228.   1238.   1256.
  1317.   1280.   1287.   1230.   1240.   1220.   1207.   1228.
  1236.   1197.   1219.   1148.   1233.   1195.   1282.   1180.
  1177.   1185.   1132.   1175.   1156.   1178.   1213.   1185.
  1172.   1186.   1106.   1095.   1112.   1151.   1143.   1059.
  1029.   1148.   1101.   1079.   1037.   1044.   1020.   1004.
   995.   1003.   1043.   1014.    984.   1049.    993.   1014.
   981.    952.    985.    968.    982.    986.    957.   1003.
   979.    921.    965.    977.    956.    982.    940.    939.
   960.    932.    969.    939.    923.    933.    918.    928.
   923.    920.    950.   1005.    884.    894.    918.    938.
   892.    929.    897.    900.    915.    888.    936.    871.
   877.    898.    881.    855.    853.    826.    883.    855.
   872.    798.    824.    838.    809.    870.    809.    846.
   773.    849.    814.    784.    716.    761.    813.    809.
   797.    781.    759.    786.    734.    722.    766.    759.
   727.    768.    736.    742.    746.    756.    695.    740.
   761.    729.    757.    739.    729.    742.    740.    722.
   764.    737.    740.    742.    702.    720.    711.    748.
   764.    686.    708.    782.    782.    719.    699.    722.
   706.    714.    683.    708.    716.    699.    724.    695.
   755.    733.    712.    696.    678.    737.    732.    681.
   711.    655.    644.    674.    684.    650.    659.    678.
   710.    685.    683.    621.    643.    689.    657.    706.
   724.    641.    714.    655.    649.    722.    685.    656.
   643.    683.    667.    650.    660.    664.    672.    678.
   653.    700.    646.    690.    669.    704.    706.    679.
   726.    701.    714.    700.    704.    731.    737.    778.
   748.    744.    756.    741.    773.    767.    743.    764.
   773.    780.    776.    818.    778.    796.    840.    854.
   832.    867.    800.    833.    880.    892.    868.    854.
   839.    890.    911.    891.    889.    901.    861.    877.
   857.    904.    857.    835.    866.    874.    856.    892.
   898.    854.    815.    787.    757.    767.    805.    795.
   768.    795.    808.    768.    798.    782.    831.    759.
   763.    838.    768.    798.    788.    755.    733.    793.
   739.    778.    785.    761.    771.    725.    757.    766.
   756.    694.    756.    764.    745.    732.    775.    748.
   771.    734.    750.    715.    738.    717.    764.    781.
   744.    766.    732.    776.    743.    754.    755.    824.
   805.    846.    786.    785.    788.    807.    795.    824.
   791.    803.    812.    874.    830.    854.    809.    857.
   858.    856.    866.    913.    887.    900.    852.    863.
   869.    860.    833.    878.    868.    889.    855.    849.
   884.    851.    831.    887.    885.    861.    886.    880.
   903.    893.    889.    902.    886.    870.    892.    944.
   921.    870.    878.    886.    811.    843.    892.    896.
   858.    864.    876.    859.    821.    889.    891.    863.
   943.    893.    907.    903.    909.    898.    885.    899.
   874.    901.    932.    896.    900.    926.    916.    910.
   925.    901.    916.    962.    925.    930.    935.    940.
   984.    954.    955.    947.    972.    984.    995.    981.
  1009.    988.   1043.    998.   1046.   1035.    985.   1028.
  1056.   1078.   1092.   1058.   1060.   1066.   1086.   1022.
  1112.   1077.   1041.   1123.   1130.   1098.   1118.   1130.
  1121.   1169.   1124.   1142.   1148.   1124.   1126.   1136.
  1077.   1109.   1133.   1143.   1114.   1075.   1140.   1154.
  1108.   1088.   1082.   1104.   1104.   1027.   1045.   1080.
  1070.   1069.   1058.   1047.   1016.   1063.    989.   1069.
   995.   1037.    993.   1007.   1030.   1013.    963.    997.
  1048.    943.    990.   1037.    995.   1008.   1034.   1038.
  1008.    946.   1015.    979.    981.   1004.   1012.    977.
  1013.   1000.   1023.   1026.   1026.    990.    961.   1034.
  1015.   1011.   1011.   1012.    994.    986.   1043.    979.
   988.   1038.   1104.    997.   1036.   1058.   1006.   1030.
  1016.   1074.   1094.   1066.   1040.   1051.   1088.   1092.
  1111.   1057.   1069.   1038.   1065.   1027.   1028.   1058.
  1100.   1077.    967.   1018.   1094.   1054.   1035.   1029.
  1017.   1058.   1001.   1011.   1010.   1054.   1020.   1042.
   989.    984.   1050.   1058.   1003.   1013.   1026.   1007.
   995.   1008.   1055.   1050.    989.   1007.   1011.   1023.
  1064.   1081.   1005.   1008.    989.   1054.   1031.   1062.
  1038.   1049.   1049.   1059.   1098.   1094.   1092.   1042.
  1051.   1062.   1047.   1052.   1131.   1118.   1102.   1081.
  1047.   1057.   1099.   1027.   1111.   1004.   1038.   1022.
  1005.   1067.   1005.   1049.   1056.   1013.   1044.    948.
  1021.    934.   1029.   1014.    998.    981.   1002.    929.
   929.    923.    911.    948.    876.    877.    860.    971.
   848.    902.    835.    875.    843.    864.    827.    790.
   830.    827.    834.    875.    843.    855.    871.    840.
   862.    804.    830.    814.    828.    789.    750.    750.
   805.    780.    730.    762.    737.    754.    738.    750.
   804.    767.    742.    727.    729.    743.    743.    771.
   704.    670.    707.    671.    664.    720.    713.    662.
   671.    677.    666.    626.    655.    675.    626.    690.
   619.    630.    648.    614.    611.    600.    606.    586.
   580.    610.    582.    597.    566.    596.    587.    581.
   543.    560.    554.    591.    567.    560.    554.    551.
   548.    518.    532.    555.    527.    586.    534.    539.
   527.    525.    522.    497.    533.    556.    555.    509.
   508.    550.    595.    526.    517.    541.    483.    517.
   507.    533.    530.    497.    526.    524.    509.    528.
   556.    502.    498.    528.    539.    484.    518.    519.
   510.    472.    489.    487.    486.    511.    495.    532.
   546.    538.    514.    498.    518.    512.    509.    535.
   543.    530.    577.    542.    505.    543.    518.    525.
   555.    546.    537.    518.    553.    546.    564.    526.
   561.    536.    556.    516.    543.    550.    520.    518.
   546.    541.    565.    538.    560.    532.    560.    523.
   559.    518.    561.    580.    539.    531.    520.    530.
   547.    554.    523.    542.    550.    539.    551.    548.
   506.    545.    547.    525.    549.    530.    543.    574.
   549.    552.    552.    534.    532.    536.    523.    555.
   489.    481.    478.    517.    515.    522.    496.    482.
   497.    485.    544.    553.    499.    492.    487.    491.
   488.    462.    472.    481.    502.    520.    533.    458.
   444.    510.    497.    467.    474.    443.    467.    518.
   502.    483.    460.    490.    456.    489.    477.    461.
   464.    473.    472.    467.    466.    450.    464.    452.
   464.    480.    444.    436.    467.    470.    496.    520.
   474.    493.    469.    476.    482.    507.    506.    513.
   421.    483.    450.    436.    425.    486.    460.    464.
   451.    458.    481.    510.    473.    462.    466.    455.
   505.    456.    452.    484.    498.    436.    443.    485.
   438.    453.    501.    465.    477.    472.    447.    470.
   461.    460.    457.    477.    454.    469.    465.    444.
   469.    467.    468.    487.    480.    466.    500.    475.
   502.    474.    459.    479.    474.    461.    479.    459.
   467.    469.    471.    487.    468.    507.    480.    481.
   502.    487.    489.    482.    531.    501.    501.    439.
   504.    491.    463.    499.    517.    496.    480.    513.
   518.    496.    473.    502.    514.    504.    484.    512.
   517.    504.    514.    526.    509.    546.    542.    563.
   545.    545.    517.    551.    556.    569.    532.    550.
   558.    559.    552.    565.    571.    572.    542.    571.
   553.    618.    618.    599.    647.    638.    599.    650.
   640.    659.    676.    640.    677.    651.    684.    716.
   700.    706.    690.    714.    710.    725.    711.    711.
   718.    792.    789.    746.    739.    742.    812.    798.
   803.    783.    817.    846.    818.    826.    842.    896.
   856.    839.    878.    933.    913.    875.    882.    866.
   938.    920.    996.    975.    970.    971.   1073.   1031.
  1102.   1025.   1055.   1061.   1126.   1090.   1144.   1138.
  1117.   1179.   1080.   1155.   1145.   1216.   1187.   1277.
  1259.   1259.   1233.   1296.   1303.   1234.   1291.   1281.
  1335.   1342.   1285.   1372.   1342.   1354.   1376.   1386.
  1420.   1416.   1422.   1399.   1511.   1538.   1531.   1527.
  1568.   1528.   1575.   1544.   1566.   1585.   1617.   1603.
  1583.   1657.   1648.   1611.   1577.   1609.   1683.   1536.
  1642.   1531.   1571.   1667.   1656.   1619.   1643.   1577.
  1655.   1604.   1584.   1573.   1582.   1602.   1535.   1549.
  1557.   1590.   1537.   1541.   1584.   1495.   1480.   1468.
  1508.   1374.   1381.   1410.   1424.   1404.   1430.   1371.
  1364.   1336.   1365.   1328.   1306.   1410.   1374.   1296.
  1229.   1263.   1246.   1298.   1291.   1251.   1267.   1297.
  1272.   1153.   1215.   1215.   1224.   1218.   1261.   1208.
  1238.   1225.   1200.   1239.   1174.   1201.   1200.   1169.
  1189.   1176.   1202.   1126.   1152.   1113.   1139.   1175.
  1129.   1155.   1136.   1122.   1115.   1095.   1116.   1141.
  1095.   1105.   1129.   1080.   1139.   1104.   1167.   1089.
  1088.   1108.   1110.   1124.   1118.   1128.   1088.   1144.
  1128.   1130.   1087.   1122.   1096.   1168.   1099.   1081.
  1061.   1092.   1075.   1113.   1145.   1156.   1156.   1109.
  1045.   1062.   1148.   1142.   1099.   1133.   1068.   1088.
  1080.   1071.   1042.   1046.   1091.   1095.   1026.   1037.
  1057.   1092.   1042.   1092.   1009.   1112.   1035.   1036.
  1078.   1059.   1046.   1075.   1048.   1006.   1038.   1003.
  1050.   1041.   1026.   1016.   1005.    999.    975.    951.
   968.    998.    960.    998.    954.    976.    926.    916.
   960.    958.    978.    951.    942.    914.    909.    927.
   935.    932.    852.    911.    855.    892.    837.    862.
   832.    856.    853.    818.    883.    811.    851.    878.
   814.    851.    850.    808.    838.    870.    865.    812.
   815.    812.    840.    849.    837.    823.    756.    834.
   847.    746.    822.    809.    796.    766.    767.    786.
   787.    777.    767.    777.    773.    753.    772.    806.
   780.    739.    754.    756.    743.    745.    713.    744.
   760.    728.    679.    678.    699.    721.    701.    672.
   705.    679.    685.    619.    690.    687.    680.    670.
   730.    698.    662.    675.    663.    658.    663.    664.
   708.    658.    647.    647.    686.    694.    696.    693.
   643.    668.    641.    700.    672.    648.    699.    662.
   638.    661.    676.    659.    660.    633.    664.    689.
   663.    678.    646.    649.    674.    670.    699.    666.
   642.    679.    645.    653.    691.    718.    616.    694.
   691.    654.    691.    656.    705.    694.    688.    724.
   703.    705.    673.    640.    689.    695.    660.    685.
   672.    658.    705.    712.    669.    659.    741.    723.
   686.    693.    737.    722.    668.    668.    679.    711.
   674.    702.    684.    713.    689.    672.    660.    654.
   682.    694.    704.    685.    648.    641.    681.    685.
   649.    684.    640.    626.    670.    674.    631.    637.
   624.    647.    668.    654.    607.    641.    661.    606.
   655.    594.    629.    597.    603.    635.    600.    640.
   650.    642.    614.    608.    632.    634.    595.    574.
   623.    612.    606.    634.    623.    579.    596.    617.
   648.    603.    614.    688.    629.    672.    607.    630.
   643.    637.    621.    624.    663.    638.    690.    678.
   672.    676.    664.    714.    650.    688.    655.    691.
   666.    672.    745.    751.    687.    727.    725.    742.
   697.    722.    737.    722.    752.    765.    719.    686.
   732.    744.    730.    716.    769.    761.    790.    733.
   783.    752.    745.    788.    738.    760.    751.    769.
   747.    773.    757.    806.    769.    772.    775.    755.
   804.    821.    742.    783.    732.    748.    773.    765.
   739.    751.    765.    756.    755.    763.    716.    685.
   745.    731.    750.    713.    759.    733.    727.    734.
   747.    709.    738.    737.    720.    704.    728.    709.
   740.    665.    705.    703.    695.    768.    712.    744.
   733.    741.    732.    744.    720.    772.    784.    731.
   766.    756.    755.    753.    729.    775.    757.    771.
   773.    826.    796.    822.    817.    829.    817.    800.
   840.    831.    816.    837.    796.    859.    822.    894.
   852.    870.    848.    843.    830.    879.    882.    867.
   867.    909.    931.    881.    904.    893.    931.    933.
   891.    916.    894.    950.    944.    916.    866.    883.
   923.    875.    865.    942.    914.    879.    937.    877.
   848.    868.    852.    902.    899.    880.    860.    825.
   821.    815.    815.    836.    825.    842.    791.    769.
   814.    794.    809.    816.    768.    795.    840.    818.
   787.    804.    739.    801.    807.    760.    750.    829.
   748.    723.    764.    755.    797.    747.    777.    771.
   779.    745.    741.    775.    749.    759.    722.    709.
   717.    705.    748.    769.    727.    680.    752.    749.
   748.    734.    722.    713.    695.    679.    684.    684.
   672.    696.    727.    692.    681.    674.    677.    687.
   693.    661.    713.    650.    663.    641.    687.    604.
   687.    686.    672.    608.    668.    654.    650.    670.
   692.    677.    600.    641.    595.    665.    656.    654.
   632.    709.    695.    653.    621.    626.    667.    674.
   634.    640.    650.    656.    595.    638.    604.    632.
   639.    638.    654.    666.    649.    653.    653.    645.
   663.    655.    653.    639.    642.    665.    661.    639.
   627.    658.    620.    651.    652.    668.    637.    679.
   705.    648.    638.    618.    625.    679.    615.    673.
   631.    657.    629.    639.    647.    650.    652.    644.
   647.    616.    626.    663.    618.    636.    667.    626.
   632.    655.    619.    694.    673.    653.    661.    619.
   653.    700.    645.    641.    647.    656.    698.    710.
   752.    717.    713.    720.    705.    711.    715.    723.
   713.    705.    720.    680.    710.    689.    719.    752.
   689.    741.    718.    776.    738.    740.    778.    712.
   742.    739.    769.    818.    793.    769.    792.    786.
   774.    784.    799.    839.    798.    812.    820.    801.
   818.    862.    791.    850.    823.    836.    811.    857.
   854.    837.    785.    843.    821.    815.    814.    836.
   843.    839.    886.    850.    861.    883.    820.    839.
   866.    863.    845.    858.    825.    837.    845.    839.
   858.    915.    873.    875.    867.    835.    846.    872.
   855.    875.    867.    864.    865.    825.    885.    830.
   831.    817.    851.    812.    778.    804.    866.    813.
   842.    814.    751.    758.    787.    758.    791.    738.
   752.    775.    742.    735.    770.    774.    778.    748.
   725.    726.    731.    710.    694.    697.    671.    758.
   688.    683.    684.    644.    666.    660.    648.    609.
   650.    651.    623.    616.    668.    609.    642.    622.
   626.    637.    655.    635.    586.    631.    629.    610.
   630.    622.    620.    628.    616.    581.    613.    546.
   614.    607.    618.    562.    569.    587.    572.    585.
   581.    579.    567.    607.    540.    548.    611.    566.
   551.    547.    543.    582.    550.    543.    548.    555.
   566.    547.    587.    532.    534.    527.    528.    569.
   528.    554.    549.    544.    565.    532.    554.    533.
   543.    535.    521.    500.    540.    559.    512.    491.
   562.    534.    516.    485.    513.    484.    526.    546.
   503.    527.    502.    518.    490.    524.    483.    514.
   538.    495.    502.    499.    504.    491.    534.    501.
   524.    527.    469.    496.    493.    510.    535.    529.
   517.    500.    534.    513.    490.    505.    540.    549.
   493.    520.    508.    503.    506.    514.    502.    489.
   470.    517.    500.    531.    527.    503.    495.    507.
   546.    540.    534.    508.    523.    534.    484.    510.
   521.    541.    490.    531.    506.    541.    495.    527.
   476.    478.    539.    561.    537.    509.    533.    555.
   469.    520.    535.    578.    508.    507.    516.    513.
   511.    550.    511.    540.    501.    490.    511.    491.
   509.    506.    504.    517.    522.    540.    534.    524.
   543.    515.    478.    523.    522.    547.    539.    519.
   538.    548.    510.    518.    528.    536.    537.    517.
   537.    521.    538.    537.    582.    530.    560.    545.
   556.    515.    568.    547.    589.    584.    559.    575.
   616.    566.    590.    583.    594.    592.    595.    583.
   595.    627.    650.    621.    615.    639.    635.    675.
   619.    664.    692.    627.    639.    642.    697.    665.
   626.    665.    677.    666.    707.    728.    696.    673.
   632.    655.    670.    690.    680.    693.    717.    697.
   678.    685.    714.    699.    687.    672.    702.    720.
   694.    674.    657.    646.    657.    665.    667.    697.
   644.    642.    677.    631.    645.    698.    644.    662.
   640.    668.    636.    663.    659.    666.    621.    591.
   606.    640.    622.    595.    636.    626.    597.    618.
   600.    629.    646.    639.    632.    606.    597.    604.
   592.    614.    607.    624.    615.    661.    637.    577.
   613.    632.    621.    634.    622.    602.    649.    701.
   647.    652.    607.    615.    650.    649.    671.    670.
   642.    652.    614.    672.    632.    647.    693.    706.
   723.    707.    727.    702.    733.    663.    688.    671.
   704.    716.    701.    725.    740.    728.    699.    722.
   766.    732.    678.    722.    732.    707.    724.    748.
   787.    803.    785.    762.    737.    801.    771.    790.
   788.    783.    791.    808.    832.    776.    803.    775.
   808.    801.    829.    866.    840.    822.    834.    847.
   842.    859.    827.    825.    867.    900.    865.    865.
   837.    877.    860.    921.    896.    884.    851.    890.
   866.    860.    832.    905.    866.    863.    899.    872.
   887.    895.    851.    896.    854.    905.    898.    881.
   855.    873.    864.    821.    862.    861.    844.    851.
   828.    877.    862.    827.    814.    893.    835.    815.
   847.    873.    797.    795.    809.    813.    759.    814.
   785.    809.    763.    884.    791.    761.    781.    750.
   818.    756.    777.    782.    777.    745.    787.    808.
   765.    748.    760.    754.    716.    726.    777.    796.
   728.    752.    761.    742.    700.    737.    730.    731.
   744.    728.    707.    773.    699.    786.    729.    740.
   737.    751.    691.    673.    739.    687.    664.    719.
   662.    667.    700.    707.    731.    664.    694.    699.
   709.    626.    667.    676.    645.    666.    711.    648.
   654.    637.    641.    659.    630.    636.    651.    635.
   650.    597.    618.    608.    625.    635.    670.    662.
   637.    643.    616.    628.    652.    607.    634.    612.
   634.    603.    625.    596.    622.    632.    593.    578.
   587.    572.    605.    603.    625.    610.    587.    593.
   602.    603.    587.    605.    581.    606.    567.    600.
   571.    581.    649.    597.    595.    583.    560.    587.
   589.    532.    567.    542.    582.    560.    570.    576.
   598.    556.    570.    607.    576.    568.    581.    540.
   532.    575.    581.    552.    564.    545.    576.    611.
   578.    591.    544.    561.    581.    569.    578.    575.
   584.    554.    609.    606.    574.    600.    580.    581.
   582.    593.    581.    615.    591.    553.    596.    601.
   619.    567.    569.    576.    582.    591.    618.    610.
   553.    604.    592.    636.    585.    593.    582.    636.
   617.    590.    590.    590.    632.    596.    588.    569.
   609.    605.    582.    597.    581.    582.    596.    608.
   571.    614.    584.    628.    645.    606.    561.    610.
   618.    616.    573.    582.    609.    597.    614.    635.
   573.    627.    628.    610.    634.    596.    613.    664.
   590.    611.    626.    652.    657.    618.    626.    631.
   600.    649.    627.    654.    631.    641.    644.    655.
   669.    674.    665.    670.    650.    696.    625.    693.
   653.    676.    675.    617.    620.    636.    661.    666.
   663.    709.    713.    676.    713.    691.    747.    696.
   675.    736.    723.    698.    673.    726.    715.    729.
   753.    733.    750.    712.    718.    768.    749.    719.
   735.    668.    755.    784.    746.    741.    787.    750.
   786.    739.    803.    749.    779.    749.    779.    771.
   784.    807.    745.    724.    776.    787.    815.    745.
   771.    733.    748.    847.    798.    776.    773.    745.
   780.    752.    755.    757.    744.    782.    774.    775.
   770.    769.    760.    828.    795.    758.    783.    777.
   808.    779.    762.    780.    784.    729.    774.    729.
   782.    734.    738.    772.    736.    736.    784.    788.
   790.    779.    747.    735.    793.    733.    747.    744.
   738.    700.    737.    719.    711.    709.    722.    745.
   733.    697.    728.    697.    756.    726.    724.    758.
   725.    730.    768.    723.    702.    744.    758.    700.
   754.    765.    759.    777.    731.    790.    767.    746.
   779.    794.    762.    760.    756.    777.    751.    807.
   810.    753.    742.    810.    784.    820.    799.    785.
   830.    823.    837.    836.    804.    842.    830.    842.
   853.    840.    845.    851.    842.    854.    866.    825.
   873.    843.    902.    863.    871.    878.    882.    839.
   827.    869.    856.    858.    843.    849.    860.    828.
   857.    878.    899.    847.    832.    861.    840.    801.
   857.    845.    819.    858.    854.    827.    871.    819.
   850.    835.    806.    822.    810.    841.    801.    814.
   821.    820.    822.    776.    818.    822.    838.    778.
   797.    821.    775.    794.    804.    813.    796.    784.
   773.    786.    802.    797.    802.    771.    747.    821.
   808.    742.    755.    824.    755.    735.    736.    750.
   738.    688.    717.    734.    739.    759.    743.    747.
   707.    737.    709.    746.    729.    710.    667.    710.
   700.    724.    707.    689.    689.    634.    663.    704.
   646.    663.    655.    689.    618.    635.    669.    609.
   606.    649.    632.    620.    614.    631.    605.    574.
   611.    613.    613.    586.    572.    562.    613.    637.
   623.    553.    567.    535.    573.    562.    545.    538.
   551.    514.    546.    531.    532.    554.    523.    547.
   530.    506.    523.    519.    510.    472.    509.    498.
   479.    494.    494.    470.    489.    507.    525.    521.
   511.    513.    484.    470.    491.    523.    522.    491.
   490.    514.    529.    481.    473.    495.    461.    469.
   503.    459.    465.    497.    486.    462.    476.    504.
   463.    459.    484.    481.    471.    449.    464.    454.
   466.    444.    436.    478.    480.    459.    452.    467.
   443.    461.    468.    416.    447.    421.    442.    464.
   461.    439.    457.    452.    459.    465.    454.    420.
   424.    461.    487.    466.    477.    411.    446.    501.
   422.    414.    452.    474.    425.    460.    460.    426.
   430.    454.    444.    438.    415.    416.    437.    429.
   444.    478.    462.    464.    435.    444.    443.    406.
   426.    437.    413.    435.    419.    461.    427.    402.
   441.    453.    416.    460.    449.    492.    438.    450.
   420.    425.    425.    414.    454.    463.    428.    444.
   440.    402.    415.    406.    435.    451.    441.    456.
   447.    445.    427.    412.    385.    436.    430.    464.
   439.    441.    445.    465.    432.    425.    458.    440.
   437.    450.    471.    428.    443.    432.    425.    430.
   445.    451.    442.    455.    450.    433.    439.    461.
   456.    458.    452.    440.    492.    488.    494.    475.
   456.    476.    457.    474.    496.    476.    464.    455.
   499.    495.    459.    452.    482.    507.    484.    495.
   456.    486.    504.    514.    475.    493.    498.    502.
   478.    511.    516.    498.    500.    521.    516.    557.
   491.    546.    573.    506.    559.    545.    575.    560.
   529.    556.    537.    547.    540.    539.    570.    598.
   605.    597.    594.    582.    594.    592.    638.    629.
   691.    650.    636.    639.    660.    664.    684.    664.
   671.    677.    670.    743.    697.    751.    711.    733.
   788.    758.    772.    798.    779.    801.    781.    725.
   754.    790.    826.    817.    818.    843.    839.    866.
   816.    862.    838.    851.    815.    869.    903.    864.
   895.    845.    917.    906.    887.    888.    878.    839.
   842.    879.    842.    869.    921.    880.    840.    834.
   892.    893.    877.    855.    863.    823.    850.    823.
   805.    789.    808.    815.    799.    786.    808.    790.
   845.    801.    808.    810.    812.    813.    732.    773.
   780.    778.    774.    781.    737.    777.    745.    736.
   742.    710.    729.    727.    710.    701.    691.    628.
   719.    687.    676.    687.    697.    648.    681.    714.
   699.    643.    612.    611.    671.    642.    619.    666.
   635.    603.    633.    593.    621.    643.    619.    591.
   630.    619.    616.    582.    585.    601.    619.    615.
   613.    595.    587.    597.    563.    530.    567.    553.
   573.    557.    593.    545.    609.    565.    568.    547.
   561.    549.    567.    580.    563.    547.    526.    563.
   542.    520.    527.    544.    571.    593.    580.    556.
   553.    536.    560.    538.    548.    573.    541.    534.
   606.    517.    580.    555.    526.    536.    580.    518.
   553.    526.    552.    569.    511.    553.    543.    540.
   503.    547.    545.    525.    507.    569.    564.    568.
   537.    561.    552.    525.    525.    590.    578.    603.
   563.    579.    572.    551.    540.    552.    606.    565.
   600.    601.    527.    576.    583.    586.    578.    603.
   545.    583.    575.    546.    588.    584.    549.    563.
   558.    535.    590.    569.    550.    589.    528.    586.
   565.    567.    537.    574.    588.    517.    537.    536.
   541.    553.    565.    578.    567.    568.    565.    567.
   492.    553.    547.    542.    533.    548.    532.    557.
   530.    564.    580.    540.    534.    540.    542.    582.
   541.    548.    562.    547.    570.    561.    535.    564.
   558.    585.    597.    591.    582.    541.    587.    571.
   602.    594.    556.    570.    626.    639.    625.    610.
   605.    590.    636.    626.    622.    636.    591.    629.
   616.    633.    622.    615.    659.    688.    648.    666.
   634.    698.    688.    689.    664.    637.    658.    671.
   718.    680.    737.    752.    677.    666.    728.    684.
   703.    687.    703.    691.    717.    728.    755.    729.
   730.    782.    745.    717.    741.    764.    753.    744.
   730.    778.    734.    739.    762.    779.    817.    767.
   765.    821.    798.    825.    793.    851.    769.    754.
   780.    805.    813.    859.    785.    860.    802.    802.
   809.    872.    794.    816.    791.    784.    807.    829.
   834.    813.    796.    802.    826.    805.    713.    805.
   776.    773.    803.    782.    782.    776.    789.    736.
   726.    728.    790.    794.    777.    783.    752.    702.
   710.    751.    726.    693.    699.    699.    669.    695.
   713.    695.    690.    707.    663.    657.    697.    654.
   699.    668.    693.    692.    656.    682.    671.    675.
   697.    651.    709.    701.    700.    636.    662.    670.
   657.    687.    645.    676.    641.    695.    680.    656.
   631.    652.    662.    682.    645.    652.    620.    670.
   666.    660.    652.    659.    667.    699.    646.    687.
   661.    656.    705.    672.    676.    717.    644.    686.
   686.    705.    707.    677.    710.    670.    683.    709.
   718.    729.    722.    753.    754.    712.    680.    715.
   788.    736.    760.    731.    707.    697.    710.    767.
   759.    676.    723.    742.    713.    724.    746.    706.
   724.    712.    748.    731.    724.    738.    761.    730.
   706.    719.    716.    676.    686.    711.    764.    670.
   709.    685.    697.    705.    662.    657.    702.    716.
   703.    658.    667.    670.    670.    645.    688.    661.
   680.    658.    692.    629.    661.    635.    633.    626.
   663.    680.    618.    617.    612.    647.    593.    598.
   595.    607.    614.    583.    601.    568.    573.    604.
   582.    608.    589.    588.    588.    540.    597.    609.
   605.    582.    571.    562.    588.    570.    593.    586.
   628.    567.    574.    533.    604.    615.    599.    556.
   578.    517.    564.    552.    581.    541.    555.    550.
   566.    558.    580.    561.    570.    527.    539.    560.
   596.    558.    542.    560.    575.    565.    557.    589.
   574.    562.    539.    577.    517.    493.    538.    563.
   577.    551.    558.    543.    552.    542.    537.    576.
   579.    593.    591.    596.    587.    603.    610.    573.
   547.    594.    555.    585.    595.    570.    590.    538.
   569.    599.    571.    600.    606.    560.    623.    599.
   607.    604.    604.    643.    644.    632.    607.    642.
   633.    641.    674.    651.    659.    683.    690.    681.
   672.    716.    711.    691.    720.    699.    684.    692.
   778.    743.    725.    696.    765.    797.    718.    787.
   735.    769.    773.    803.    731.    793.    790.    778.
   773.    840.    829.    792.    815.    818.    829.    771.
   803.    882.    815.    853.    849.    807.    836.    856.
   879.    924.    834.    879.    855.    851.    867.    875.
   849.    899.    910.    896.    882.    858.    861.    913.
   900.    835.    862.    864.    894.    919.    863.    831.
   848.    852.    870.    921.    834.    863.    843.    901.
   839.    884.    900.    910.    904.    891.    876.    903.
   883.    843.    892.    861.    848.    883.    888.    921.
   876.    888.    869.    959.    848.    879.    966.    929.
   961.    926.    906.    905.    893.    900.    893.    924.
   862.    882.    907.    941.    912.    895.    913.    853.
   875.    864.    858.    906.    898.    851.    859.    886.
   841.    849.    908.    856.    865.    921.    830.    800.
   799.    828.    784.    824.    810.    793.    752.    782.
   774.    796.    746.    788.    754.    736.    759.    776.
   768.    760.    750.    734.    730.    744.    789.    721.
   747.    737.    690.    744.    713.    720.    689.    667.
   684.    703.    659.    658.    675.    693.    650.    648.
   678.    658.    650.    630.    690.    651.    663.    697.
   646.    617.    627.    641.    619.    631.    610.    639.
   616.    622.    658.    668.    643.    592.    585.    633.
   549.    610.    601.    604.    558.    593.    605.    575.
   598.    624.    623.    637.    664.    567.    610.    622.
   619.    582.    602.    611.    606.    628.    632.    579.
   584.    594.    589.    623.    584.    595.    519.    578.
   618.    633.    553.    566.    623.    585.    553.    555.
   585.    570.    574.    564.    509.    535.    543.    554.
   529.    536.    552.    522.    503.    541.    534.    565.
   498.    497.    542.    533.    516.    520.    529.    516.
   483.    486.    510.    497.    498.    526.    509.    539.
   482.    495.    489.    505.    476.    488.    496.    487.
   520.    480.    460.    508.    516.    499.    473.    490.
   511.    480.    498.    491.    505.    475.    469.    467.
   489.    510.    499.    519.    481.    476.    510.    516.
   487.    495.    493.    514.    531.    535.    540.    539.
   516.    555.    509.    496.    492.    507.    509.    507.
   529.    481.    527.    513.    513.    516.    529.    505.
   497.    529.    485.    521.    494.    514.    543.    539.
   515.    518.    515.    526.    513.    521.    477.    512.
   492.    485.    518.    519.    502.    494.    484.    513.
   541.    514.    493.    516.    527.    502.    541.    528.
   514.    504.    535.    508.    500.    529.    552.    526.
   555.    546.    564.    539.    536.    553.    557.    600.
   593.    573.    554.    599.    601.    587.    609.    597.
   663.    584.    613.    602.    645.    616.    643.    656.
   637.    660.    605.    640.    666.    648.    686.    664.
   659.    687.    657.    650.    679.    654.    673.    691.
   675.    682.    671.    705.    683.    637.    691.    717.
   638.    633.    671.    680.    640.    696.    657.    670.
   652.    685.    664.    620.    698.    682.    634.    623.
   668.    638.    595.    665.    613.    641.    670.    619.
   592.    611.    622.    609.    609.    593.    593.    627.
   577.    608.    641.    601.    625.    607.    577.    578.
   611.    612.    645.    580.    566.    602.    533.    585.
   619.    587.    541.    586.    637.    608.    589.    562.
   579.    582.    582.    609.    574.    585.    571.    565.
   551.    567.    593.    583.    589.    584.    528.    557.
   586.    565.    568.    560.    552.    545.    578.    557.
   557.    562.    574.    576.    565.    542.    533.    543.
   555.    514.    577.    567.    570.    516.    554.    572.
   558.    525.    530.    523.    599.    558.    529.    512.
   541.    537.    493.    530.    531.    542.    529.    529.
   535.    570.    577.    523.    513.    553.    524.    474.
   539.    552.    510.    548.    531.    521.    526.    533.
   470.    539.    503.    489.    500.    537.    539.    518.
   493.    513.    552.    549.    537.    545.    528.    530.
   541.    567.    546.    552.    536.    563.    526.    548.
   545.    537.    525.    538.    529.    531.    561.    563.
   527.    505.    497.    543.    552.    560.    547.    549.
   523.    563.    552.    536.    536.    575.    591.    582.
   572.    546.    586.    620.    593.    585.    571.    560.
   585.    566.    603.    591.    540.    580.    553.    544.
   514.    575.    581.    578.    567.    550.    586.    528.
   584.    553.    544.    562.    489.    516.    542.    527.
   517.    528.    513.    533.    514.    529.    502.    510.
   527.    508.    464.    508.    512.    497.    483.    473.
   502.    483.    480.    476.    497.    466.    501.    514.
   484.    500.    552.    477.    524.    501.    511.    463.
   443.    480.    496.    511.    475.    524.    547.    452.
   462.    475.    527.    482.    530.    540.    478.    490.
   509.    504.    477.    473.    473.    467.    491.    514.
   511.    483.    476.    494.    454.    509.    489.    500.
   505.    501.    494.    507.    499.    453.    475.    467.
   501.    525.    521.    493.    480.    455.    512.    505.
   547.    553.    495.    506.    510.    505.    516.    528.
   575.    478.    556.    539.    501.    535.    526.    565.
   517.    523.    523.    524.    509.    528.    574.    546.
   577.    536.    551.    607.    607.    544.    559.    595.
   561.    565.    580.    553.    608.    587.    621.    600.
   605.    637.    651.    577.    621.    606.    681.    589.
   645.    613.    660.    609.    626.    644.    623.    585.
   658.    654.    611.    643.    666.    622.    688.    623.
   662.    642.    673.    669.    648.    611.    665.    680.
   679.    651.    634.    680.    667.    642.    648.    631.
   657.    631.    629.    641.    710.    719.    651.    654.
   641.    649.    687.    678.    605.    635.    667.    651.
   690.    669.    674.    669.    651.    646.    661.    625.
   656.    660.    655.    671.    681.    682.    685.    667.
   674.    668.    624.    680.    729.    712.    672.    715.
   666.    688.    679.    734.    741.    689.    692.    686.
   698.    721.    681.    723.    741.    716.    730.    764.
   761.    792.    745.    748.    764.    795.    759.    742.
   773.    751.    772.    833.    782.    795.    817.    773.
   797.    749.    787.    786.    811.    824.    857.    843.
   807.    803.    824.    821.    820.    832.    843.    821.
   825.    822.    870.    854.    779.    808.    786.    819.
   798.    811.    818.    834.    841.    809.    849.    826.
   883.    861.    837.    837.    829.    854.    809.    903.
   831.    860.    898.    821.    862.    885.    904.    833.
   845.    838.    861.    856.    869.    874.    824.    912.
   894.    904.    891.    902.    892.    849.    852.    875.
   916.    922.    922.    867.    895.    865.    872.    876.
   866.    865.    874.    890.    862.    868.    828.    849.
   828.    841.    862.    861.    897.    817.    832.    835.
   783.    838.    860.    817.    824.    808.    756.    782.
   800.    821.    766.    748.    775.    722.    792.    754.
   778.    734.    755.    788.    774.    745.    725.    728.
   767.    759.    746.    701.    693.    752.    735.    705.
   724.    678.    690.    728.    636.    663.    698.    692.
   681.    657.    678.    703.    666.    726.    668.    717.
   669.    642.    675.    673.    646.    679.    640.    708.
   720.    673.    687.    690.    672.    682.    729.    729.
   685.    687.    682.    669.    683.    708.    691.    685.
   701.    672.    704.    660.    656.    697.    721.    742.
   643.    656.    684.    668.    681.    671.    669.    656.
   664.    654.    630.    701.    652.    641.    672.    635.
   618.    686.    688.    623.    624.    643.    632.    653.
   663.    620.    618.    631.    602.    614.    562.    592.
   607.    603.    657.    627.    604.    593.    608.    609.
   610.    592.    592.    612.    619.    604.    644.    570.
   619.    605.    569.    596.    572.    655.    654.    618.
   573.    604.    626.    644.    617.    578.    616.    600.
   614.    627.    563.    648.    602.    613.    597.    645.
   621.    612.    593.    650.    587.    559.    599.    623.
   650.    639.    631.    658.    605.    657.    612.    622.
   613.    588.    615.    630.    574.    611.    578.    589.
   610.    614.    665.    643.    642.    625.    609.    638.
   615.    582.    649.    614.    610.    633.    644.    608.
   616.    676.    665.    634.    612.    634.    655.    657.
   600.    643.    629.    607.    592.    647.    637.    625.
   592.    608.    588.    593.    605.    595.    630.    580.
   576.    592.    582.    580.    590.    603.    615.    599.
   608.    609.    565.    579.    565.    575.    568.    584.
   575.    577.    580.    568.    593.    571.    534.    548.
   536.    584.    597.    569.    585.    554.    573.    524.
   572.    589.    598.    548.    525.    579.    571.    542.
   522.    529.    563.    532.    518.    569.    532.    537.
   572.    526.    557.    538.    509.    567.    576.    548.
   524.    562.    550.    551.    591.    579.    553.    546.
   512.    497.    557.    549.    551.    571.    537.    539.
   598.    613.    603.    582.    538.    540.    564.    547.
   558.    536.    576.    561.    556.    569.    568.    574.
   605.    543.    579.    553.    612.    612.    546.    548.
   602.    568.    581.    628.    578.    605.    577.    571.
   592.    599.    546.    593.    603.    595.    599.    584.
   598.    626.    626.    620.    633.    591.    585.    591.
   625.    627.    622.    611.    655.    613.    660.    680.
   627.    665.    649.    640.    667.    627.    643.    657.
   676.    633.    645.    644.    662.    654.    679.    648.
   633.    659.    674.    671.    630.    664.    632.    620.
   657.    618.    631.    627.    635.    634.    617.    588.
   608.    589.    602.    642.    591.    558.    605.    586.
   599.    555.    625.    590.    568.    504.    574.    576.
   543.    513.    537.    534.    536.    559.    544.    552.
   557.    531.    520.    542.    559.    523.    581.    555.
   552.    536.    563.    573.    586.    557.    527.    527.
   526.    521.    528.    542.    509.    554.    571.    564.
   567.    533.    557.    541.    532.    630.    553.    559.
   582.    575.    613.    589.    568.    597.    544.    559.
   580.    567.    579.    615.    623.    577.    620.    607.
   626.    626.    597.    600.    621.    611.    623.    617.
   654.    637.    672.    601.    613.    638.    635.    625.
   651.    598.    631.    662.    650.    651.    682.    672.
   690.    661.    713.    700.    674.    632.    663.    671.
   675.    689.    667.    716.    699.    686.    725.    757.
   705.    675.    699.    721.    729.    715.    701.    728.
   738.    743.    758.    702.    705.    797.    678.    772.
   789.    711.    741.    763.    767.    704.    728.    742.
   704.    748.    739.    720.    774.    776.    755.    727.
   729.    695.    680.    729.    732.    767.    743.    705.
   681.    728.    720.    679.    720.    690.    701.    745.
   698.    730.    690.    651.    693.    703.    718.    750.
   694.    675.    719.    682.    680.    670.    697.    662.
   647.    695.    691.    637.    651.    687.    649.    655.
   670.    661.    620.    637.    663.    681.    716.    681.
   663.    618.    613.    611.    657.    641.    659.    633.
   612.    642.    624.    588.    604.    630.    591.    613.
   577.    619.    627.    620.    606.    560.    606.    600.
   613.    517.    564.    564.    582.    530.    576.    551.
   525.    569.    597.    569.    591.    549.    569.    578.
   507.    506.    519.    535.    562.    578.    499.    557.
   538.    488.    526.    489.    514.    522.    517.    495.
   509.    514.    508.    507.    512.    520.    493.    462.
   520.    518.    485.    466.    493.    449.    419.    490.
   477.    482.    455.    463.    435.    467.    493.    436.
   478.    469.    432.    463.    452.    477.    480.    434.
   446.    438.    462.    448.    505.    450.    435.    442.
   426.    468.    429.    431.    409.    473.    438.    456.
   431.    476.    441.    451.    443.    451.    434.    490.
   455.    451.    431.    452.    457.    467.    451.    425.
   446.    427.    417.    452.    432.    448.    469.    473.
   428.    463.    460.    461.    463.    458.    476.    454.
   445.    446.    432.    442.    468.    436.    476.    477.
   432.    422.    458.    426.    467.    449.    451.    434.
   420.    487.    454.    455.    465.    456.    423.    482.
   466.    476.    459.    464.    443.    438.    454.    441.
   454.    514.    480.    470.    486.    463.    474.    488.
   431.    451.    466.    450.    465.    496.    481.    470.
   460.    476.    453.    464.    481.    466.    458.    489.
   476.    464.    450.    498.    446.    506.    510.    463.
   455.    465.    468.    466.    459.    457.    464.    473.
   467.    476.    473.    463.    462.    453.    479.    447.
   435.    439.    486.    465.    478.    469.    449.    457.
   461.    490.    451.    443.    447.    456.    487.    486.
   515.    480.    483.    500.    459.    504.    464.    488.
   481.    470.    485.    521.    510.    486.    531.    490.
   506.    517.    507.    509.    536.    473.    496.    499.
   516.    493.    486.    484.    513.    512.    491.    491.
   506.    459.    507.    492.    476.    496.    529.    526.
   536.    516.    491.    510.    510.    474.    512.    525.
   471.    487.    512.    525.    522.    534.    510.    501.
   505.    486.    528.    501.    498.    528.    515.    523.
   543.    512.    513.    494.    530.    484.    533.    542.
   529.    524.    516.    510.    550.    536.    564.    550.
   536.    552.    569.    576.    519.    540.    490.    550.
   542.    522.    556.    556.    555.    556.    602.    537.
   553.    540.    553.    559.    588.    555.    615.    610.
   552.    614.    576.    631.    623.    574.    641.    581.
   588.    610.    608.    629.    619.    616.    629.    594.
   611.    555.    647.    624.    629.    635.    587.    620.
   621.    679.    677.    651.    636.    653.    678.    658.
   650.    643.    676.    671.    664.    643.    654.    651.
   685.    676.    700.    670.    636.    672.    641.    709.
   666.    656.    667.    642.    672.    696.    691.    689.
   691.    696.    678.    690.    664.    668.    645.    665.
   642.    666.    607.    654.    654.    643.    644.    599.
   675.    677.    675.    679.    724.    661.    660.    672.
   699.    664.    649.    666.    616.    642.    639.    605.
   687.    628.    618.    638.    662.    617.    641.    652.
   603.    632.    636.    609.    618.    616.    646.    624.
   683.    633.    585.    584.    634.    555.    586.    589.
   644.    615.    608.    555.    569.    587.    628.    610.
   605.    607.    567.    560.    603.    545.    565.    553.
   545.    533.    558.    577.    548.    543.    557.    542.
   584.    568.    516.    560.    546.    510.    517.    544.
   551.    533.    513.    539.    548.    545.    555.    549.
   500.    544.    528.    504.    531.    532.    508.    564.
   537.    537.    526.    528.    568.    560.    515.    526.
   471.    541.    486.    533.    500.    504.    525.    523.
   504.    489.    469.    530.    548.    448.    505.    514.
   508.    496.    467.    460.    498.    507.    526.    487.
   461.    499.    504.    512.    479.    486.    482.    475.
   463.    470.    459.    448.    515.    506.    476.    508.
   452.    482.    485.    486.    519.    474.    494.    456.
   488.    452.    451.    484.    501.    469.    461.    456.
   441.    454.    508.    488.    462.    522.    477.    431.
   476.    444.    473.    447.    502.    503.    479.    451.
   503.    475.    531.    461.    509.    506.    499.    485.
   490.    477.    494.    445.    510.    458.    468.    495.
   528.    499.    515.    511.    468.    529.    508.    529.
   498.    472.    512.    525.    537.    513.    512.    486.
   499.    499.    514.    497.    490.    525.    521.    505.
   547.    536.    537.    545.    519.    500.    547.    513.
   519.    548.    505.    502.    526.    532.    500.    540.
   520.    514.    520.    515.    564.    557.    575.    538.
   584.    540.    547.    553.    575.    583.    571.    543.
   562.    542.    571.    580.    577.    559.    586.    598.
   550.    545.    579.    569.    553.    553.    548.    580.
   560.    554.    583.    601.    532.    566.    582.    561.
   558.    537.    548.    631.    545.    597.    602.    605.
   597.    594.    556.    562.    564.    552.    562.    566.
   552.    542.    556.    539.    589.    536.    533.    586.
   551.    585.    581.    541.    593.    558.    541.    515.
   505.    505.    561.    538.    515.    505.    548.    554.
   551.    521.    530.    511.    501.    532.    543.    503.
   603.    524.    521.    552.    518.    510.    490.    485.
   529.    511.    557.    519.    513.    556.    527.    538.
   545.    509.    514.    511.    521.    527.    552.    536.
   502.    485.    523.    512.    544.    519.    539.    510.
   515.    532.    521.    524.    505.    485.    505.    515.
   516.    561.    522.    493.    557.    529.    522.    508.
   496.    487.    484.    530.    511.    516.    450.    473.
   502.    506.    496.    523.    508.    489.    496.    496.
   479.    538.    507.    507.    472.    502.    471.    487.
   514.    494.    500.    503.    497.    488.    478.    478.
   504.    458.    484.    493.    517.    466.    476.    509.
   476.    474.    436.    467.    484.    463.    449.    444.
   484.    498.    445.    483.    517.    489.    459.    469.
   465.    469.    496.    506.    424.    494.    462.    469.
   476.    447.    470.    484.    465.    441.    475.    446.
   444.    441.    422.    434.    439.    417.    432.    469.
   416.    433.    419.    428.    447.    452.    438.    449.
   423.    413.    428.    429.    431.    419.    423.    421.
   408.    419.    429.    418.    445.    413.    422.    413.
   411.    437.    393.    409.    393.    373.    387.    435.
   413.    413.    438.    393.    434.    392.    388.    426.
   436.    412.    426.    403.    419.    418.    389.    432.
   414.    435.    407.    381.    420.    410.    407.    403.
   397.    414.    406.    410.    410.    394.    434.    371.
   407.    386.    380.    401.    402.    415.    420.    392.
   412.    427.    442.    407.    450.    392.    424.    419.
   438.    402.    420.    474.    377.    425.    416.    426.
   406.    397.    435.    414.    420.    429.    416.    453.
   417.    443.    428.    460.    420.    431.    425.    397.
   399.    415.    458.    375.    408.    391.    434.    398.
   434.    418.    428.    398.    402.    407.    413.    443.
   442.    423.    439.    451.    405.    403.    402.    422.
   422.    393.    406.    369.    432.    414.    443.    445.
   419.    405.    387.    377.    400.    409.    397.    418.
   401.    413.    418.    390.    402.    437.    416.    371.
   401.    426.    406.    428.    424.    415.    400.    431.
   361.    371.    410.    389.    404.    381.    387.    364.
   366.    381.    367.    362.    409.    382.    417.    436.
   367.    403.    359.    395.    382.    383.    386.    354.
   416.    406.    351.    370.    386.    379.    380.    398.
   386.    374.    353.    347.    390.    379.    364.    377.
   392.    384.    399.    359.    350.    360.    368.    360.
   324.    357.    389.    363.    361.    374.    371.    399.
   374.    352.    376.    385.    407.    354.    389.    379.
   341.    362.    333.    349.    347.    378.    393.    368.
   358.    342.    371.    367.    379.    375.    359.    377.
   360.    389.    362.    383.    374.    378.    377.    411.
   360.    405.    371.    362.    328.    386.    364.    407.
   402.    378.    392.    385.    392.    374.    397.    347.
   385.    378.    417.    410.    383.    373.    375.    421.
   393.    376.    395.    403.    391.    425.    399.    370.
   410.    397.    395.    395.    375.    378.    399.    388.
   393.    409.    382.    405.    383.    400.    442.    436.
   398.    404.    382.    422.    403.    399.    400.    403.
   432.    427.    415.    394.    417.    399.    430.    403.
   395.    405.    413.    458.    407.    403.    422.    419.
   446.    438.    443.    441.    452.    456.    441.    445.
   445.    424.    430.    438.    434.    416.    452.    436.
   463.    421.    430.    461.    421.    460.    451.    439.
   475.    412.    463.    440.    454.    427.    480.    447.
   435.    442.    472.    449.    443.    430.    466.    455.
   456.    452.    461.    458.    431.    449.    460.    486.
   453.    461.    430.    464.    448.    457.    447.    455.
   450.    439.    458.    454.    444.    410.    466.    417.
   397.    460.    454.    458.    423.    465.    459.    433.
   416.    485.    458.    443.    418.    430.    439.    460.
   444.    441.    426.    419.    413.    455.    458.    437.
   440.    435.    417.    436.    426.    448.    460.    452.
   467.    469.    459.    450.    430.    448.    454.    479.
   463.    445.    438.    428.    446.    442.    454.    463.
   443.    491.    448.    474.    476.    493.    428.    450.
   409.    487.    487.    487.    466.    461.    472.    466.
   464.    482.    490.    470.    490.    486.    499.    484.
   448.    477.    457.    468.    490.    513.    455.    491.
   477.    506.    493.    492.    482.    470.    517.    463.
   486.    475.    500.    494.    491.    522.    491.    517.
   491.    506.    533.    493.    525.    524.    477.    548.
   492.    471.    519.    507.    498.    521.    543.    463.
   549.    511.    470.    507.    540.    516.    478.    498.
   523.    538.    530.    515.    521.    551.    511.    497.
   484.    521.    539.    533.    527.    502.    529.    562.
   565.    548.    541.    528.    528.    531.    555.    511.
   544.    537.    552.    494.    528.    546.    529.    606.
   559.    527.    585.    581.    556.    547.    558.    566.
   531.    544.    583.    536.    561.    550.    534.    524.
   525.    525.    571.    591.    569.    531.    598.    602.
   583.    565.    539.    569.    587.    600.    566.    592.
   552.    608.    565.    591.    615.    569.    598.    608.
   629.    555.    569.    577.    551.    617.    597.    516.
   625.    600.    635.    558.    567.    568.    581.    594.
   580.    551.    542.    543.    552.    559.    572.    541.
   568.    532.    525.    548.    590.    564.    520.    528.
   520.    535.    528.    483.    507.    517.    498.    498.
   479.    503.    509.    454.    496.    471.    488.    486.
   500.    463.    490.    456.    479.    478.    447.    466.
   477.    426.    469.    444.    465.    454.    439.    451.
   456.    476.    435.    415.    412.    421.    428.    459.
   435.    420.    439.    411.    423.    415.    447.    457.
   439.    443.    429.    412.    405.    425.    416.    456.
   432.    390.    448.    378.    397.    444.    448.    445.
   450.    424.    380.    407.    464.    443.    441.    452.
   421.    429.    436.    425.    389.    438.    432.    429.
   429.    426.    436.    450.    448.    389.    410.    437.
   470.    442.    407.    408.    481.    422.    420.    464.
   431.    455.    474.    420.    443.    435.    464.    450.
   445.    425.    405.    434.    466.    492.    475.    471.
   444.    444.    479.    478.    504.    463.    449.    458.
   476.    473.    456.    465.    500.    478.    470.    475.
   502.    470.    469.    477.    512.    476.    439.    468.
   489.    470.    514.    478.    463.    475.    518.    488.
   478.    476.    515.    514.    479.    443.    522.    494.
   496.    491.    528.    508.    539.    527.    474.    483.
   537.    537.    496.    541.    486.    525.    509.    527.
   530.    517.    517.    492.    527.    522.    538.    501.
   491.    539.    527.    522.    559.    526.    558.    528.
   559.    563.    569.    528.    511.    529.    523.    539.
   494.    525.    523.    506.    541.    544.    528.    552.
   540.    526.    550.    533.    520.    498.    506.    556.
   521.    515.    514.    498.    503.    479.    509.    498.
   520.    477.    476.    444.    473.    471.    496.    498.
   479.    469.    525.    474.    490.    466.    484.    464.
   459.    472.    444.    473.    452.    452.    465.    474.
   466.    469.    467.    444.    438.    473.    477.    431.
   444.    420.    471.    504.    457.    461.    428.    459.
   466.    418.    441.    446.    457.    448.    417.    389.
   431.    417.    438.    427.    479.    409.    439.    423.
   426.    416.    426.    446.    424.    426.    422.    427.
   460.    410.    433.    443.    434.    435.    464.    435.
   443.    466.    415.    424.    374.    456.    465.    398.
   402.    437.    441.    447.    432.    432.    448.    432.
   460.    457.    431.    466.    435.    454.    442.    437.
   399.    463.    487.    434.    489.    440.    437.    472.
   428.    490.    469.    433.    429.    457.    462.    444.
   469.    451.    440.    490.    485.    494.    464.    470.
   452.    491.    495.    487.    470.    460.    497.    498.
   476.    495.    464.    461.    486.    504.    469.    425.
   430.    473.    462.    496.    486.    529.    485.    444.
   488.    512.    515.    526.    531.    499.    472.    505.
   508.    509.    518.    483.    483.    519.    515.    516.
   479.    489.    562.    545.    491.    503.    502.    516.
   538.    564.    520.    532.    550.    554.    558.    573.
   581.    579.    581.    564.    579.    591.    589.    574.
   587.    579.    578.    594.    586.    597.    607.    593.
   637.    618.    658.    607.    645.    637.    621.    636.
   663.    668.    709.    674.    696.    676.    677.    679.
   689.    675.    703.    673.    701.    709.    724.    726.
   714.    694.    721.    726.    717.    718.    716.    718.
   727.    729.    794.    778.    791.    801.    744.    766.
   789.    832.    776.    772.    773.    750.    801.    781.
   866.    786.    833.    818.    767.    886.    826.    787.
   852.    846.    866.    879.    874.    893.    863.    836.
   851.    834.    784.    867.    804.    824.    810.    855.
   866.    851.    840.    822.    872.    840.    884.    850.
   830.    802.    836.    793.    792.    841.    834.    794.
   879.    775.    833.    847.    849.    793.    797.    832.
   793.    827.    783.    834.    775.    746.    771.    794.
   810.    751.    773.    750.    760.    752.    770.    708.
   721.    743.    706.    727.    734.    712.    698.    750.
   738.    725.    734.    715.    700.    719.    700.    646.
   647.    670.    669.    654.    719.    691.    652.    675.
   692.    648.    639.    649.    652.    621.    650.    635.
   592.    615.    634.    621.    627.    653.    612.    626.
   595.    623.    604.    646.    607.    571.    592.    654.
   573.    637.    607.    596.    575.    616.    572.    597.
   611.    600.    577.    600.    608.    598.    615.    644.
   607.    617.    616.    628.    613.    606.    606.    608.
   588.    610.    590.    583.    568.    586.    602.    569.
   563.    583.    575.    605.    592.    593.    576.    571.
   579.    585.    562.    590.    565.    569.    590.    619.
   591.    558.    571.    604.    574.    515.    567.    550.
   571.    537.    565.    583.    563.    580.    599.    598.
   622.    601.    560.    546.    538.    555.    557.    535.
   565.    506.    553.    554.    532.    569.    559.    544.
   562.    549.    559.    543.    561.    572.    559.    545.
   525.    499.    507.    503.    542.    474.    514.    514.
   537.    502.    495.    533.    538.    531.    504.    531.
   532.    565.    550.    507.    493.    472.    508.    513.
   524.    489.    450.    473.    477.    512.    492.    471.
   513.    474.    484.    468.    482.    479.    478.    479.
   505.    470.    492.    495.    505.    486.    510.    497.
   460.    449.    486.    467.    453.    445.    505.    478.
   451.    455.    499.    503.    467.    479.    459.    507.
   482.    479.    467.    442.    458.    458.    449.    448.
   470.    439.    463.    461.    436.    441.    475.    472.
   472.    477.    473.    446.    443.    476.    487.    459.
   496.    467.    421.    453.    452.    456.    445.    478.
   449.    460.    465.    468.    491.    472.    447.    494.
   458.    456.    486.    466.    504.    495.    486.    490.
   453.    482.    506.    461.    474.    514.    460.    494.
   480.    493.    459.    477.    472.    484.    490.    495.
   488.    477.    495.    475.    522.    517.    523.    482.
   502.    511.    502.    498.    527.    502.    521.    488.
   524.    476.    514.    542.    523.    538.    523.    477.
   491.    531.    506.    555.    480.    524.    515.    496.
   498.    524.    513.    520.    511.    539.    548.    542.
   527.    547.    521.    533.    533.    509.    509.    525.
   508.    508.    514.    519.    523.    535.    591.    517.
   539.    524.    539.    582.    531.    555.    489.    512.
   506.    544.    550.    522.    538.    524.    563.    617.
   541.    572.    567.    563.    578.    589.    581.    577.
   551.    550.    603.    587.    616.    596.    629.    574.
   619.    564.    548.    582.    614.    589.    587.    611.
   590.    612.    556.    635.    611.    627.    582.    636.
   614.    626.    587.    602.    622.    623.    656.    621.
   667.    637.    617.    626.    639.    629.    668.    684.
   629.    620.    665.    639.    641.    673.    654.    617.
   607.    613.    618.    620.    598.    601.    621.    654.
   662.    634.    609.    681.    633.    616.    602.    641.
   632.    670.    634.    632.    644.    568.    611.    595.
   607.    617.    593.    619.    587.    555.    602.    619.
   555.    579.    640.    568.    600.    591.    588.    608.
   621.    539.    564.    572.    555.    555.    566.    532.
   560.    563.    566.    536.    569.    563.    550.    530.
   578.    537.    566.    544.    563.    504.    516.    535.
   515.    558.    507.    536.    531.    492.    530.    558.
   518.    517.    501.    531.    548.    541.    521.    518.
   524.    524.    568.    543.    501.    548.    590.    533.
   505.    514.    553.    533.    535.    548.    522.    504.
   507.    511.    546.    520.    547.    550.    563.    524.
   501.    518.    511.    550.    552.    529.    490.    505.
   569.    551.    528.    561.    569.    597.    576.    537.
   557.    559.    605.    609.    603.    588.    575.    559.
   565.    574.    560.    546.    602.    565.    560.    566.
   567.    560.    606.    587.    590.    593.    637.    603.
   637.    590.    617.    610.    623.    611.    621.    629.
   615.    630.    613.    674.    631.    596.    623.    609.
   608.    619.    619.    621.    604.    660.    635.    623.
   625.    645.    662.    633.    629.    625.    605.    630.
   627.    655.    620.    652.    588.    646.    655.    626.
   623.    607.    619.    607.    602.    639.    623.    605.
   653.    652.    608.    605.    636.    580.    645.    597.
   592.    619.    680.    587.    601.    603.    607.    632.
   591.    577.    652.    576.    620.    627.    602.    593.
   580.    597.    655.    572.    597.    564.    601.    569.
   572.    596.    540.    577.    611.    610.    610.    591.
   570.    547.    586.    556.    564.    575.    586.    615.
   591.    553.    568.    592.    555.    550.    589.    574.
   574.    587.    557.    583.    554.    592.    551.    563.
   585.    582.    591.    511.    578.    600.    554.    575.
   586.    583.    580.    597.    576.    609.    617.    587.
   615.    583.    573.    604.    628.    599.    582.    595.
   619.    589.    592.    617.    614.    571.    567.    548.
   588.    575.    602.    594.    587.    579.    586.    617.
   598.    587.    613.    604.    612.    615.    606.    584.
   586.    580.    624.    553.    614.    585.    561.    524.
   580.    589.    582.    630.    628.    592.    587.    595.
   597.    607.    623.    593.    556.    579.    594.    598.
   606.    574.    572.    538.    541.    564.    595.    589.
   556.    573.    599.    546.    591.    528.    570.    533.
   518.    548.    554.    557.    562.    622.    553.    553.
   543.    561.    543.    581.    551.    551.    550.    554.
   515.    535.    533.    540.    520.    571.    553.    558.
   562.    519.    560.    557.    539.    537.    545.    554.
   523.    542.    532.    519.    530.    531.    512.    536.
   543.    573.    519.    554.    544.    531.    508.    521.
   511.    536.    552.    566.    546.    498.    552.    523.
   506.    502.    524.    561.    588.    517.    531.    551.
   553.    534.    558.    535.    567.    543.    582.    550.
   506.    529.    570.    499.    542.    511.    519.    519.
   531.    513.    567.    547.    533.    516.    511.    539.
   544.    528.    505.    523.    512.    524.    518.    498.
   516.    539.    533.    521.    538.    549.    541.    515.
   513.    520.    528.    540.    569.    550.    527.    547.
   559.    525.    527.    522.    535.    522.    530.    555.
   548.    558.    575.    538.    542.    537.    531.    471.
   524.    564.    587.    511.    585.    579.    583.    527.
   538.    518.    494.    564.    547.    559.    592.    591.
   563.    560.    551.    530.    509.    562.    592.    588.
   570.    574.    556.    545.    582.    571.    580.    566.
   573.    574.    574.    536.    581.    574.    604.    587.
   568.    577.    562.    584.    598.    558.    589.    531.
   560.    543.    568.    557.    560.    571.    587.    578.
   565.    547.    584.    600.    533.    603.    590.    528.
   567.    592.    536.    578.    579.    592.    602.    584.
   561.    584.    582.    590.    595.    560.    570.    568.
   586.    566.    582.    555.    581.    573.    587.    552.
   604.    580.    589.    557.    602.    600.    598.    597.
   618.    637.    578.    619.    582.    590.    577.    628.
   585.    569.    569.    611.    546.    631.    595.    589.
   641.    646.    643.    639.    618.    632.    621.    618.
   593.    624.    660.    640.    700.    639.    637.    634.
   650.    632.    649.    628.    656.    628.    659.    676.
   640.    656.    648.    653.    725.    658.    671.    664.
   710.    703.    660.    621.    657.    685.    629.    666.
   670.    706.    721.    713.    734.    717.    679.    734.
   721.    669.    731.    677.    740.    718.    693.    697.
   688.    735.    692.    674.    709.    716.    683.    675.
   713.    738.    695.    712.    691.    671.    652.    696.
   690.    675.    710.    650.    649.    677.    632.    635.
   731.    666.    697.    636.    605.    666.    666.    610.
   694.    640.    629.    640.    644.    679.    628.    630.
   675.    640.    639.    641.    651.    617.    656.    652.
   607.    624.    635.    669.    656.    631.    638.    627.
   634.    631.    650.    631.    610.    601.    589.    657.
   649.    633.    628.    631.    625.    651.    623.    634.
   612.    618.    610.    654.    617.    652.    671.    619.
   655.    637.    644.    602.    637.    618.    615.    679.
   636.    663.    634.    620.    623.    655.    652.    599.
   643.    643.    673.    660.    613.    657.    631.    663.
   659.    624.    649.    672.    655.    659.    691.    658.
   657.    689.    659.    642.    691.    718.    678.    693.
   664.    659.    664.    699.    712.    711.    702.    695.
   669.    697.    666.    670.    697.    701.    752.    701.
   698.    724.    696.    672.    734.    688.    721.    694.
   642.    675.    712.    683.    710.    639.    695.    671.
   729.    695.    698.    704.    735.    644.    681.    680.
   702.    718.    705.    675.    746.    684.    681.    679.
   709.    730.    686.    712.    650.    645.    683.    641.
   683.    684.    690.    684.    720.    698.    644.    724.
   671.    679.    695.    687.    661.    715.    724.    726.
   679.    707.    655.    718.    674.    693.    706.    682.
   706.    715.    707.    710.    694.    703.    751.    732.
   708.    745.    749.    770.    715.    695.    710.    761.
   755.    724.    691.    724.    721.    737.    733.    712.
   781.    764.    766.    779.    722.    727.    709.    797.
   759.    763.    702.    721.    713.    740.    745.    733.
   734.    773.    765.    745.    743.    761.    727.    694.
   719.    698.    721.    767.    779.    707.    738.    777.
   758.    733.    747.    682.    701.    692.    719.    707.
   712.    734.    710.    738.    693.    750.    656.    757.
   689.    726.    704.    681.    732.    703.    671.    710.
   703.    659.    642.    670.    673.    674.    665.    688.
   685.    634.    680.    654.    672.    676.    658.    641.
   637.    650.    661.    646.    681.    621.    674.    636.
   616.    618.    619.    623.    593.    616.    595.    622.
   616.    597.    635.    648.    600.    571.    613.    619.
   604.    584.    616.    597.    578.    556.    600.    555.
   586.    558.    580.    585.    620.    585.    608.    586.
   547.    544.    575.    573.    585.    582.    513.    571.
   531.    552.    560.    565.    546.    520.    551.    564.
   546.    560.    574.    577.    507.    533.    552.    553.
   535.    541.    554.    528.    542.    557.    521.    549.
   546.    528.    536.    561.    547.    522.    577.    565.
   553.    586.    561.    516.    572.    555.    546.    596.
   559.    560.    564.    587.    574.    572.    576.    563.
   601.    565.    582.    543.    531.    580.    550.    584.
   558.    582.    577.    554.    579.    565.    570.    580.
   558.    617.    565.    559.    565.    576.    496.    531.
   542.    583.    555.    533.    549.    591.    517.    534.
   547.    529.    534.    522.    595.    565.    571.    544.
   561.    551.    535.    561.    541.    521.    534.    524.
   563.    514.    509.    509.    533.    546.    525.    523.
   492.    533.    539.    512.    532.    525.    510.    523.
   512.    518.    538.    527.    496.    528.    502.    464.
   494.    516.    477.    493.    477.    506.    519.    528.
   475.    482.    464.    467.    487.    486.    504.    481.
   493.    474.    475.    465.    472.    459.    481.    467.
   476.    481.    483.    482.    493.    506.    455.    469.
   454.    502.    481.    486.    484.    467.    451.    471.
   447.    475.    445.    468.    473.    431.    450.    470.
   467.    471.    458.    445.    488.    490.    425.    452.
   460.    412.    403.    481.    440.    462.    439.    461.
   488.    457.    455.    499.    471.    485.    478.    444.
   435.    458.    476.    472.    510.    449.    502.    503.
   458.    449.    482.    451.    424.    441.    475.    487.
   496.    500.    495.    477.    427.    497.    493.    491.
   498.    540.    486.    498.    493.    488.    497.    443.
   489.    515.    515.    478.    473.    493.    501.    489.
   514.    542.    484.    469.    491.    453.    491.    461.
   538.    513.    502.    485.    542.    526.    500.    523.
   518.    486.    497.    517.    500.    448.    499.    503.
   521.    483.    487.    513.    515.    510.    482.    514.
   474.    497.    504.    473.    495.    526.    492.    492.
   516.    509.    505.    467.    480.    472.    462.    465.
   509.    495.    482.    476.    460.    497.    490.    503.
   493.    497.    464.    443.    459.    464.    481.    455.
   479.    434.    465.    428.    494.    447.    464.    452.
   476.    450.    447.    472.    438.    452.    465.    428.
   445.    432.    437.    389.    452.    440.    430.    398.
   459.    455.    432.    454.    408.    453.    476.    428.
   471.    445.    398.    395.    468.    429.    395.    413.
   405.    408.    430.    405.    425.    427.    419.    428.
   425.    410.    420.    439.    393.    420.    445.    421.
   405.    429.    411.    440.    438.    406.    420.    427.
   466.    454.    416.    437.    431.    426.    427.    442.
   429.    430.    415.    408.    427.    426.    380.    428.
   444.    447.    441.    426.    435.    445.    420.    429.
   463.    438.    420.    463.    443.    479.    399.    432.
   442.    452.    445.    440.    433.    430.    439.    475.
   446.    447.    438.    417.    447.    450.    477.    473.
   473.    486.    457.    485.    508.    483.    503.    525.
   520.    510.    469.    508.    486.    521.    462.    507.
   530.    485.    492.    509.    510.    481.    496.    540.
   506.    534.    499.    535.    531.    532.    510.    464.
   532.    539.    539.    568.    531.    564.    529.    528.
   507.    534.    535.    560.    585.    553.    564.    602.
   543.    563.    566.    559.    558.    551.    547.    578.
   555.    539.    553.    543.    553.    563.    578.    604.
   577.    598.    591.    566.    572.    585.    563.    588.
   560.    629.    583.    590.    571.    593.    579.    578.
   555.    606.    620.    540.    575.    603.    594.    587.
   580.    587.    592.    554.    552.    616.    601.    563.
   613.    588.    543.    563.    544.    572.    588.    555.
   572.    531.    520.    530.    533.    587.    548.    529.
   542.    524.    531.    507.    539.    562.    541.    533.
   544.    560.    509.    529.    536.    549.    529.    527.
   500.    494.    492.    495.    533.    509.    497.    529.
   547.    491.    495.    513.    529.    509.    541.    542.
   511.    510.    518.    496.    530.    537.    520.    477.
   453.    506.    479.    481.    495.    483.    505.    498.
   499.    514.    498.    489.    505.    515.    487.    466.
   500.    490.    478.    475.    488.    482.    498.    529.
   463.    484.    444.    481.    444.    450.    455.    506.
   483.    442.    472.    478.    453.    476.    465.    466.
   438.    487.    466.    425.    472.    475.    443.    442.
   474.    448.    477.    444.    461.    457.    466.    463.
   440.    438.    434.    465.    443.    443.    416.    427.
   450.    463.    474.    414.    433.    426.    435.    478.
   441.    422.    460.    436.    443.    427.    488.    456.
   427.    461.    420.    417.    415.    429.    478.    439.
   462.    407.    439.    431.    462.    464.    442.    432.
   470.    432.    425.    455.    396.    438.    411.    405.
   459.    449.    405.    455.    451.    424.    427.    398.
   449.    419.    400.    421.    451.    453.    439.    483.
   459.    447.    438.    440.    418.    426.    410.    409.
   444.    433.    432.    451.    446.    484.    452.    453.
   421.    459.    428.    427.    459.    453.    469.    473.
   497.    438.    437.    446.    454.    454.    458.    421.
   429.    425.    428.    462.    469.    448.    447.    435.
   451.    413.    449.    455.    455.    452.    483.    454.
   487.    460.    475.    432.    454.    452.    442.    435.
   481.    468.    484.    508.    443.    466.    457.    448.
   486.    450.    461.    453.    448.    489.    462.    462.
   503.    443.    484.    477.    465.    461.    490.    461.
   480.    456.    482.    498.    482.    488.    503.    470.
   445.    528.    505.    497.    480.    465.    434.    469.
   465.    497.    533.    486.    442.    445.    502.    465.
   472.    469.    468.    478.    500.    489.    479.    466.
   480.    480.    498.    444.    448.    487.    462.    457.
   488.    463.    496.    460.    504.    457.    488.    484.
   485.    449.    483.    505.    495.    472.    463.    474.
   517.    519.    519.    495.    503.    509.    488.    481.
   499.    466.    492.    517.    508.    487.    480.    509.
   458.    486.    526.    475.    468.    482.    444.    506.
   498.    463.    524.    524.    480.    470.    472.    463.
   471.    474.    474.    487.    481.    484.    504.    492.
   481.    462.    531.    501.    445.    461.    494.    543.
   537.    513.    515.    466.    463.    457.    491.    458.
   509.    480.    492.    501.    487.    487.    496.    511.
   510.    502.    514.    499.    506.    490.    474.    496.
   455.    482.    503.    478.    489.    491.    500.    514.
   499.    523.    500.    491.    493.    512.    534.    509.
   498.    537.    482.    506.    507.    512.    490.    534.
   510.    518.    545.    513.    499.    546.    539.    538.
   506.    519.    513.    540.    499.    511.    502.    493.
   513.    504.    523.    497.    521.    555.    506.    516.
   501.    533.    478.    509.    515.    541.    524.    530.
   515.    522.    530.    563.    498.    493.    520.    522.
   533.    530.    552.    546.    517.    511.    572.    532.
   560.    537.    526.    544.    553.    506.    529.    548.
   519.    513.    533.    539.    522.    549.    541.    542.
   554.    548.    518.    536.    552.    542.    523.    507.
   538.    512.    525.    558.    509.    527.    544.    534.
   512.    525.    549.    501.    552.    573.    564.    543.
   563.    509.    525.    569.    526.    545.    524.    540.
   540.    547.    539.    540.    573.    533.    536.    546.
   543.    525.    566.    554.    541.    552.    575.    533.
   517.    557.    551.    546.    541.    516.    538.    561.
   531.    504.    529.    554.    521.    558.    566.    567.
   536.    543.    517.    527.    517.    560.    534.    558.
   561.    571.    531.    518.    553.    550.    513.    587.
   530.    539.    550.    494.    526.    560.    532.    495.
   535.    526.    523.    532.    508.    554.    496.    538.
   535.    494.    484.    531.    515.    503.    537.    496.
   495.    502.    539.    510.    482.    509.    528.    525.
   480.    506.    494.    495.    532.    504.    541.    513.
   517.    503.    518.    522.    478.    503.    513.    496.
   533.    499.    514.    510.    509.    509.    527.    528.
   472.    512.    500.    536.    462.    495.    510.    467.
   483.    497.    488.    455.    495.    511.    516.    506.
   490.    510.    494.    478.    474.    472.    490.    469.
   459.    457.    475.    496.    477.    491.    515.    474.
   486.    497.    512.    497.    489.    453.    498.    470.
   500.    481.    493.    499.    472.    454.    481.    499.
   518.    488.    537.    491.    496.    547.    522.    492.
   492.    505.    428.    519.    507.    504.    531.    526.
   468.    498.    485.    555.    493.    541.    499.    581.
   521.    507.    530.    552.    516.    527.    517.    565.
   536.    538.    545.    559.    527.    554.    592.    574.
   548.    529.    584.    615.    581.    580.    577.    539.
   589.    569.    533.    553.    519.    572.    570.    568.
   595.    553.    581.    559.    569.    572.    550.    545.
   611.    556.    576.    628.    570.    564.    578.    616.
   571.    549.    583.    566.    604.    589.    609.    601.
   588.    583.    611.    601.    582.    564.    552.    565.
   570.    563.    522.    534.    533.    551.    611.    592.
   595.    567.    603.    530.    562.    563.    562.    569.
   551.    539.    561.    570.    558.    532.    549.    565.
   508.    531.    537.    566.    549.    572.    582.    520.
   551.    579.    543.    536.    522.    590.    572.    543.
   627.    561.    571.    534.    589.    592.    567.    527.
   572.    569.    582.    574.    564.    506.    526.    570.
   508.    560.    521.    513.    536.    527.    564.    548.
   528.    542.    540.    551.    537.    539.    533.    531.
   515.    509.    535.    548.    527.    494.    538.    526.
   504.    518.    517.    521.    559.    537.    519.    543.
   561.    542.    528.    553.    522.    536.    515.    555.
   555.    554.    568.    514.    568.    579.    493.    539.
   522.    551.    554.    528.    577.    569.    532.    575.
   551.    583.    515.    556.    553.    550.    592.    580.
   623.    576.    570.    547.    538.    563.    583.    580.
   558.    598.    559.    572.    569.    579.    548.    575.
   574.    576.    605.    602.    559.    613.    574.    593.
   583.    594.    599.    578.    648.    603.    573.    624.
   594.    588.    580.    538.    619.    612.    619.    645.
   620.    588.    591.    597.    628.    590.    572.    610.
   586.    607.    617.    626.    638.    605.    609.    582.
   607.    626.    586.    589.    583.    624.    636.    665.
   637.    582.    638.    661.    608.    630.    581.    624.
   630.    633.    617.    625.    620.    632.    630.    599.
   591.    586.    629.    633.    629.    619.    593.    633.
   644.    642.    605.    650.    622.    611.    630.    637.
   643.    655.    586.    650.    611.    570.    627.    601.
   575.    610.    653.    599.    613.    626.    618.    576.
   570.    592.    594.    613.    585.    588.    575.    574.
   552.    578.    611.    555.    540.    555.    599.    528.
   575.    585.    553.    594.    572.    578.    537.    515.
   561.    529.    602.    500.    532.    537.    538.    523.
   524.    547.    524.    541.    518.    514.    522.    513.
   488.    521.    486.    511.    540.    534.    521.    501.
   553.    494.    531.    464.    476.    482.    469.    487.
   487.    528.    486.    493.    531.    497.    449.    487.
   511.    490.    502.    485.    501.    449.    483.    470.
   504.    515.    427.    490.    461.    440.    471.    465.
   436.    473.    450.    474.    484.    474.    476.    507.
   468.    473.    438.    479.    462.    459.    456.    468.
   459.    466.    453.    464.    498.    469.    448.    507.
   455.    485.    444.    442.    471.    472.    457.    443.
   456.    481.    445.    453.    511.    450.    480.    461.
   476.    501.    486.    480.    469.    456.    448.    484.
   468.    449.    457.    459.    437.    471.    465.    478.
   453.    443.    461.    503.    474.    441.    485.    426.
   443.    428.    422.    440.    444.    475.    416.    422.
   416.    470.    478.    461.    480.    425.    457.    457.
   432.    426.    435.    441.    455.    444.    432.    427.
   446.    412.    467.    473.    454.    432.    465.    428.
   429.    435.    428.    459.    413.    462.    475.    417.
   436.    475.    465.    466.    428.    440.    435.    445.
   432.    437.    462.    468.    457.    450.    482.    478.
   443.    479.    451.    486.    457.    458.    460.    473.
   470.    455.    467.    465.    442.    467.    465.    424.
   438.    504.    458.    455.    485.    510.    456.    457.
   445.    459.    440.    473.    465.    420.    473.    467.
   495.    500.    487.    478.    511.    483.    476.    486.
   440.    471.    473.    456.    521.    485.    497.    498.
   489.    487.    531.    488.    504.    535.    457.    475.
   493.    466.    524.    538.    500.    505.    508.    548.
   485.    501.    525.    494.    577.    549.    511.    507.
   515.    561.    541.    496.    523.    551.    544.    584.
   514.    570.    554.    547.    558.    556.    549.    530.
   551.    579.    568.    596.    578.    589.    568.    573.
   589.    595.    592.    560.    583.    573.    557.    565.
   544.    533.    530.    601.    583.    582.    602.    605.
   552.    583.    581.    588.    603.    557.    598.    571.
   602.    578.    567.    594.    548.    565.    587.    606.
   562.    554.    591.    539.    540.    605.    592.    577.
   552.    586.    568.    601.    572.    531.    511.    519.
   572.    596.    551.    563.    556.    516.    548.    534.
   553.    511.    511.    535.    550.    566.    522.    528.
   553.    525.    542.    503.    527.    492.    516.    489.
   506.    472.    502.    507.    504.    503.    495.    515.
   523.    488.    508.    453.    498.    484.    512.    505.
   497.    510.    486.    492.    490.    494.    464.    455.
   472.    466.    496.    499.    471.    447.    446.    466.
   469.    414.    438.    475.    442.    457.    427.    461.
   461.    428.    474.    461.    435.    452.    448.    440.
   442.    444.    448.    465.    468.    438.    454.    450.
   469.    468.    472.    456.    441.    465.    446.    441.
   485.    471.    448.    428.    437.    446.    428.    416.
   426.    464.    439.    459.    450.    459.    400.    456.
   421.    484.    447.    436.    446.    461.    421.    460.
   421.    448.    449.    433.    457.    443.    403.    428.
   441.    461.    451.    456.    424.    437.    449.    423.
   443.    455.    435.    389.    426.    458.    435.    432.
   449.    446.    455.    440.    442.    438.    425.    453.
   430.    459.    432.    432.    440.    453.    440.    478.
   438.    428.    460.    420.    452.    434.    408.    425.
   444.    422.    471.    417.    437.    413.    427.    440.
   444.    449.    451.    464.    425.    426.    437.    443.
   415.    461.    454.    426.    426.    448.    446.    427.
   459.    418.    474.    436.    435.    400.    419.    399.
   369.    464.    423.    434.    446.    419.    469.    474.
   485.    411.    404.    461.    461.    470.    432.    432.
   433.    425.    471.    479.    485.    436.    441.    400.
   460.    434.    437.    444.    420.    431.    467.    436.
   449.    456.    448.    467.    473.    454.    421.    445.
   493.    464.    420.    504.    460.    426.    451.    423.
   490.    507.    517.    455.    482.    471.    477.    495.
   466.    480.    461.    456.    455.    489.    494.    475.
   513.    484.    476.    523.    474.    487.    485.    505.
   493.    490.    499.    491.    499.    488.    510.    490.
   508.    510.    471.    491.    502.    513.    467.    522.
   523.    504.    505.    516.    519.    507.    497.    481.
   497.    507.    540.    477.    473.    462.    511.    505.
   500.    553.    523.    498.    485.    520.    541.    515.
   531.    534.    504.    487.    502.    524.    512.    496.
   520.    489.    517.    523.    525.    505.    509.    469.
   512.    505.    492.    516.    504.    503.    512.    498.
   511.    496.    498.    453.    476.    496.    508.    504.
   499.    519.    535.    519.    491.    480.    520.    475.
   491.    480.    494.    487.    496.    494.    473.    502.
   492.    487.    520.    497.    460.    526.    489.    529.
   480.    475.    478.    501.    506.    520.    505.    518.
   537.    498.    532.    486.    518.    472.    439.    505.
   490.    471.    501.    506.    494.    479.    486.    482.
   487.    515.    489.    481.    479.    505.    482.    487.
   493.    531.    505.    490.    483.    492.    496.    507.
   502.    487.    509.    566.    491.    476.    523.    530.
   520.    487.    526.    516.    498.    543.    525.    476.
   548.    520.    513.    552.    493.    505.    528.    531.
   518.    539.    509.    539.    553.    523.    521.    577.
   533.    509.    562.    580.    528.    576.    531.    524.
   566.    556.    571.    528.    583.    551.    537.    539.
   525.    559.    572.    563.    539.    565.    533.    542.
   585.    545.    571.    547.    545.    540.    562.    557.
   563.    566.    556.    552.    575.    581.    558.    564.
   597.    573.    574.    579.    598.    561.    559.    569.
   521.    570.    601.    538.    598.    576.    580.    602.
   580.    551.    573.    584.    581.    563.    549.    515.
   543.    557.    569.    555.    570.    559.    571.    549.
   560.    563.    565.    540.    605.    520.    551.    575.
   515.    530.    557.    547.    547.    532.    558.    531.
   537.    544.    500.    534.    558.    517.    517.    561.
   543.    564.    522.    537.    510.    507.    554.    534.
   541.    525.    535.    530.    524.    527.    535.    524.
   494.    484.    531.    529.    502.    526.    551.    488.
   494.    516.    525.    504.    524.    534.    563.    538.
   532.    546.    536.    549.    506.    521.    532.    535.
   533.    505.    507.    528.    519.    554.    532.    551.
   507.    536.    543.    540.    502.    509.    535.    523.
   538.    521.    531.    552.    546.    534.    527.    553.
   534.    551.    576.    589.    544.    510.    541.    505.
   512.    548.    516.    497.    521.    568.    533.    549.
   499.    505.    530.    523.    516.    510.    558.    560.
   562.    543.    485.    541.    548.    577.    573.    573.
   551.    559.    538.    537.    575.    571.    532.    532.
   531.    523.    554.    539.    531.    544.    523.    552.
   527.    557.    511.    491.    548.    545.    567.    525.
   519.    512.    535.    513.    504.    516.    546.    526.
   535.    514.    518.    536.    517.    540.    501.    492.
   505.    532.    498.    508.    504.    469.    521.    491.
   489.    455.    507.    508.    479.    493.    482.    516.
   464.    460.    487.    504.    523.    457.    484.    491.
   479.    458.    449.    479.    492.    510.    496.    461.
   471.    490.    424.    476.    468.    504.    478.    482.
   452.    465.    435.    449.    459.    445.    481.    478.
   463.    471.    459.    438.    453.    449.    433.    469.
   438.    475.    475.    460.    432.    440.    459.    450.
   439.    462.    445.    443.    447.    438.    473.    416.
   442.    422.    427.    417.    432.    452.    422.    466.
   457.    456.    434.    426.    447.    412.    446.    452.
   411.    433.    425.    444.    385.    427.    428.    437.
   426.    425.    440.    452.    423.    431.    428.    426.
   433.    414.    417.    448.    394.    426.    404.    409.
   404.    457.    398.    418.    398.    358.    361.    413.
   421.    420.    427.    439.    395.    436.    388.    403.
   395.    434.    416.    400.    393.    417.    417.    423.
   400.    432.    410.    416.    440.    422.    429.    409.
   406.    443.    422.    442.    453.    421.    418.    439.
   436.    441.    417.    416.    435.    438.    466.    409.
   437.    462.    429.    471.    448.    453.    480.    469.
   441.    444.    464.    448.    420.    464.    480.    458.
   442.    464.    429.    472.    478.    452.    477.    494.
   501.    481.    439.    473.    432.    454.    455.    472.
   479.    491.    504.    480.    509.    498.    471.    474.
   429.    487.    441.    490.    471.    495.    482.    513.
   487.    496.    478.    509.    479.    467.    498.    446.
   445.    519.    492.    460.    439.    522.    502.    485.
   527.    512.    489.    469.    506.    503.    473.    482.
   464.    452.    454.    501.    471.    440.    440.    454.
   450.    435.    482.    506.    471.    473.    485.    491.
   477.    468.    493.    509.    485.    509.    507.    473.
   481.    499.    502.    468.    465.    473.    500.    472.
   492.    487.    480.    545.    476.    503.    515.    528.
   497.    495.    522.    503.    505.    497.    480.    534.
   505.    508.    507.    490.    570.    501.    519.    553.
   524.    550.    482.    500.    488.    542.    536.    516.
   509.    494.    573.    525.    501.    520.    532.    516.
   538.    508.    485.    502.    492.    493.    509.    498.
   512.    493.    499.    524.    489.    507.    515.    494.
   516.    473.    507.    523.    501.    557.    520.    512.
   525.    497.    536.    529.    522.    521.    527.    537.
   506.    507.    479.    525.    516.    497.    509.    518.
   524.    516.    529.    548.    511.    556.    497.    524.
   549.    525.    553.    513.    551.    540.    534.    519.
   567.    527.    486.    511.    565.    537.    553.    534.
   548.    529.    527.    581.    576.    541.    542.    548.
   501.    541.    543.    541.    526.    564.    559.    538.
   505.    588.    551.    540.    530.    512.    537.    551.
   549.    522.    535.    510.    509.    535.    558.    544.
   505.    549.    530.    507.    545.    538.    496.    493.
   545.    531.    535.    509.    523.    554.    515.    525.
   487.    555.    547.    535.    519.    562.    511.    543.
   539.    539.    523.    507.    539.    541.    516.    532.
   530.    546.    540.    494.    528.    515.    528.    552.
   538.    535.    538.    467.    526.    532.    513.    524.
   532.    517.    535.    556.    507.    513.    512.    531.
   532.    513.    499.    506.    553.    528.    568.    555.
   530.    505.    572.    506.    529.    512.    566.    556.
   543.    515.    525.    508.    503.    520.    557.    545.
   555.    538.    533.    565.    518.    524.    517.    537.
   527.    515.    581.    578.    538.    541.    563.    559.
   542.    518.    521.    541.    583.    516.    557.    564.
   543.    564.    619.    531.    537.    569.    573.    576.
   575.    554.    557.    582.    568.    605.    587.    570.
   551.    581.    545.    525.    558.    585.    599.    577.
   611.    600.    605.    581.    593.    590.    611.    589.
   607.    630.    602.    584.    630.    621.    619.    575.
   595.    583.    605.    652.    587.    569.    581.    628.
   618.    601.    610.    593.    628.    597.    616.    582.
   621.    578.    596.    652.    611.    614.    591.    596.
   617.    599.    607.    631.    610.    554.    611.    592.
   621.    654.    621.    623.    603.    597.    640.    622.
   626.    592.    609.    638.    645.    591.    584.    623.
   601.    599.    614.    588.    607.    594.    597.    588.
   588.    600.    578.    580.    589.    621.    597.    587.
   625.    635.    577.    595.    590.    590.    578.    568.
   569.    585.    561.    630.    599.    587.    589.    584.
   578.    624.    590.    584.    616.    629.    612.    594.
   592.    599.    613.    620.    596.    598.    584.    603.
   576.    593.    616.    610.    598.    609.    586.    588.
   584.    578.    598.    598.    601.    597.    577.    569.
   612.    593.    604.    616.    624.    621.    632.    605.
   633.    563.    596.    589.    578.    593.    628.    653.
   609.    556.    586.    585.    597.    569.    585.    629.
   617.    551.    563.    572.    623.    583.    604.    594.
   574.    548.    620.    599.    582.    575.    582.    577.
   539.    577.    560.    560.    554.    574.    562.    579.
   564.    585.    563.    547.    600.    552.    565.    535.
   543.    571.    562.    557.    519.    530.    519.    534.
   524.    494.    555.    515.    500.    525.    514.    515.
   572.    539.    530.    551.    529.    493.    522.    499.
   516.    470.    507.    528.    502.    516.    497.    504.
   475.    470.    501.    455.    521.    485.    491.    482.
   474.    502.    489.    435.    511.    474.    488.    484.
   455.    437.    473.    468.    509.    444.    465.    466.
   470.    449.    488.    446.    483.    470.    487.    486.
   491.    464.    457.    493.    456.    444.    450.    433.
   467.    429.    492.    456.    418.    449.    472.    446.
   460.    442.    443.    442.    447.    440.    475.    476.
   452.    480.    445.    447.    450.    462.    437.    441.
   487.    465.    457.    513.    455.    475.    455.    452.
   468.    460.    450.    428.    434.    414.    436.    443.
   447.    452.    461.    450.    444.    483.    439.    435.
   418.    449.    454.    423.    444.    454.    445.    450.
   443.    460.    451.    456.    449.    412.    423.    408.
   437.    435.    448.    424.    448.    433.    436.    444.
   458.    437.    452.    440.    414.    427.    407.    433.
   426.    466.    466.    422.    469.    445.    413.    430.
   481.    417.    445.    402.    413.    427.    435.    421.
   445.    416.    423.    445.    442.    410.    432.    423.
   444.    415.    409.    426.    447.    385.    438.    484.
   431.    473.    425.    404.    426.    407.    434.    459.
   455.    423.    448.    421.    444.    409.    443.    404.
   448.    417.    413.    436.    416.    448.    400.    413.
   468.    444.    475.    470.    410.    423.    434.    442.
   430.    440.    450.    462.    453.    474.    438.    448.
   431.    419.    431.    432.    469.    473.    408.    441.
   452.    430.    462.    449.    441.    438.    443.    430.
   463.    489.    433.    436.    403.    427.    447.    473.
   437.    475.    435.    432.    435.    428.    430.    436.
   439.    435.    434.    434.    451.    449.    429.    448.
   457.    419.    416.    435.    425.    449.    439.    420.
   425.    438.    437.    421.    443.    431.    439.    473.
   415.    436.    450.    415.    436.    463.    455.    429.
   408.    430.    439.    439.    497.    480.    444.    467.
   390.    417.    471.    429.    407.    446.    452.    452.
   461.    420.    475.    453.    439.    437.    415.    429.
   455.    446.    442.    417.    471.    451.    443.    435.
   473.    476.    485.    461.    448.    461.    466.    441.
   466.    465.    453.    419.    431.    495.    440.    473.
   479.    465.    461.    457.    479.    455.    480.    471.
   449.    496.    478.    505.    462.    450.    449.    485.
   429.    436.    466.    470.    481.    480.    481.    493.
   462.    465.    493.    478.    485.    476.    474.    456.
   457.    439.    485.    498.    469.    444.    490.    490.
   483.    472.    443.    457.    480.    465.    455.    444.
   465.    492.    471.    434.    479.    482.    431.    481.
   477.    467.    447.    464.    442.    475.    455.    477.
   470.    512.    446.    422.    462.    406.    509.    486.
   506.    482.    444.    493.    424.    421.    439.    463.
   426.    458.    475.    432.    453.    442.    438.    461.
   440.    496.    471.    451.    439.    452.    434.    445.
   403.    384.    478.    419.    457.    443.    470.    420.
   482.    475.    435.    450.    442.    421.    450.    452.
   419.    427.    438.    426.    439.    468.    429.    408.
   436.    423.    419.    424.    420.    463.    460.    439.
   421.    424.    452.    403.    431.    436.    453.    394.
   404.    407.    402.    410.    429.    422.    443.    431.
   410.    411.    425.    430.    433.    432.    414.    437.
   448.    372.    483.    450.    433.    436.    437.    402.
   401.    407.    423.    425.    431.    448.    383.    386.
   424.    448.    430.    422.    419.    442.    423.    441.
   443.    414.    400.    445.    410.    454.    399.    443.
   425.    443.    417.    405.    446.    440.    436.    465.
   436.    404.    464.    452.    445.    423.    435.    434.
   445.    427.    427.    437.    443.    422.    401.    426.
   440.    466.    440.    464.    405.    456.    423.    424.
   448.    488.    408.    446.    478.    433.    437.    441.
   430.    409.    459.    487.    428.    410.    425.    449.
   432.    434.    418.    467.    497.    458.    451.    471.
   483.    441.    454.    432.    438.    443.    438.    453.
   435.    504.    442.    440.    442.    464.    453.    458.
   428.    461.    469.    455.    461.    473.    459.    469.
   467.    495.    464.    450.    454.    495.    501.    486.
   440.    445.    497.    508.    479.    482.    495.    472.
   488.    482.    464.    491.    473.    485.    481.    444.
   520.    464.    477.    483.    513.    475.    503.    487.
   448.    486.    465.    486.    471.    485.    512.    446.
   462.    486.    473.    463.    521.    525.    476.    467.
   483.    509.    450.    479.    493.    460.    485.    458.
   477.    471.    452.    464.    499.    522.    469.    517.
   464.    478.    459.    488.    467.    503.    483.    473.
   503.    464.    486.    491.    486.    484.    494.    489.
   492.    527.    459.    464.    491.    511.    527.    492.
   474.    484.    477.    497.    492.    500.    482.    471.
   468.    497.    505.    476.    482.    460.    453.    467.
   464.    491.    500.    469.    510.    461.    452.    472.
   480.    485.    468.    438.    457.    477.    461.    465.
   501.    471.    450.    460.    433.    449.    450.    451.
   488.    429.    477.    428.    416.    408.    444.    454.
   485.    428.    463.    449.    473.    432.    433.    438.
   466.    434.    453.    427.    446.    465.    436.    449.
   459.    443.    442.    486.    461.    450.    457.    453.
   439.    451.    467.    434.    468.    490.    481.    456.
   467.    423.    472.    484.    438.    478.    469.    468.
   459.    403.    438.    439.    457.    429.    451.    484.
   472.    413.    481.    457.    439.    434.    475.    467.
   454.    470.    467.    459.    498.    457.    479.    465.
   464.    424.    451.    442.    472.    465.    470.    436.
   462.    456.    444.    467.    468.    448.    456.    424.
   449.    476.    471.    433.    454.    478.    493.    494.
   452.    457.    427.    458.    455.    440.    495.    453.
   436.    473.    440.    456.    451.    457.    456.    436.
   446.    436.    458.    472.    455.    448.    485.    437.
   470.    456.    476.    410.    420.    477.    445.    463.
   455.    452.    464.    475.    451.    447.    436.    447.
   397.    406.    406.    420.    442.    462.    422.    466.
   432.    443.    392.    449.    391.    416.    411.    444.
   451.    443.    432.    442.    410.    423.    440.    460.
   429.    449.    416.    424.    406.    422.    443.    410.
   431.    412.    427.    443.    438.    450.    399.    432.
   433.    437.    415.    426.    407.    411.    437.    410.
   401.    464.    417.    428.    386.    397.    418.    413.
   458.    415.    411.    396.    428.    429.    457.    431.
   437.    401.    437.    429.    476.    397.    459.    429.
   421.    422.    437.    400.    455.    418.    404.    425.
   413.    437.    415.    410.    403.    407.    410.    431.
   421.    452.    407.    414.    424.    401.    414.    419.
   434.    405.    443.    432.    428.    397.    428.    439.
   424.    385.    434.    383.    397.    412.    418.    412.
   397.    409.    450.    434.    419.    398.    414.    425.
   408.    405.    403.    436.    394.    411.    410.    430.
   384.    415.    417.    405.    404.    405.    399.    407.
   384.    408.    402.    382.    415.    382.    414.    421.
   437.    397.    405.    389.    385.    394.    428.    422.
   408.    420.    393.    367.    404.    377.    367.    408.
   419.    391.    377.    382.    394.    406.    401.    405.
   383.    372.    385.    405.    393.    394.    400.    394.
   421.    400.    388.    405.    386.    413.    373.    369.
   390.    392.    403.    364.    402.    403.    402.    395.
   418.    393.    406.    396.    404.    381.    356.    371.
   372.    358.    402.    388.    347.    388.    395.    401.
   350.    403.    374.    440.    410.    367.    380.    418.
   369.    406.    389.    402.    361.    409.    404.    389.
   407.    372.    404.    395.    407.    404.    393.    392.
   392.    420.    415.    388.    405.    382.    369.    414.
   421.    440.    425.    410.    396.    388.    409.    393.
   388.    401.    384.    412.    393.    432.    426.    412.
   387.    374.    382.    379.    421.    387.    427.    403.
   375.    399.    417.    397.    393.    391.    372.    371.
   377.    416.    432.    418.    392.    362.    441.    407.
   427.    434.    400.    371.    418.    417.    407.    402.
   410.    416.    427.    401.    384.    395.    377.    409.
   384.    426.    402.    397.    396.    410.    386.    385.
   415.    421.    439.    413.    396.    395.    386.    380.
   424.    417.    409.    394.    422.    375.    413.    409.
   388.    403.    402.    402.    403.    400.    422.    436.
   403.    397.    418.    409.    416.    382.    416.    418.
   400.    421.    399.    338.    409.    395.    404.    407.
   377.    415.    393.    425.    369.    338.    395.    391.
   421.    376.    336.    406.    406.    390.    362.    426.
   387.    420.    387.    403.    407.    405.    407.    421.
   406.    414.    449.    399.    425.    429.    450.    384.
   411.    421.    422.    413.    395.    432.    398.    427.
   443.    412.    404.    411.    403.    430.    424.    421.
   409.    457.    428.    419.    424.    429.    415.    407.
   426.    446.    405.    412.    431.    398.    427.    397.
   460.    445.    420.    451.    463.    411.    467.    428.
   407.    430.    425.    468.    432.    446.    457.    442.
   423.    413.    461.    413.    481.    455.    448.    449.
   478.    448.    443.    446.    444.    451.    434.    450.
   432.    427.    455.    434.    470.    480.    432.    461.
   449.    417.    459.    430.    456.    424.    461.    472.
   456.    443.    418.    477.    435.    435.    439.    441.
   475.    464.    460.    434.    451.    439.    431.    449.
   476.    477.    466.    432.    479.    469.    457.    483.
   442.    493.    476.    445.    455.    465.    435.    463.
   470.    477.    461.    501.    455.    451.    450.    473.
   457.    464.    467.    466.    466.    462.    452.    497.
   496.    439.    451.    452.    468.    479.    464.    471.
   503.    473.    479.    456.    427.    517.    459.    434.
   417.    457.    493.    483.    471.    491.    491.    408.
   490.    494.    478.    501.    459.    475.    475.    457.
   464.    520.    454.    476.    525.    463.    510.    487.
   480.    504.    543.    500.    501.    465.    468.    508.
   456.    501.    535.    520.    498.    507.    483.    507.
   530.    546.    534.    542.    551.    485.    507.    486.
   539.    531.    509.    509.    479.    502.    506.    523.
   463.    498.    535.    528.    490.    496.    492.    495.
   503.    520.    514.    538.    542.    512.    490.    532.
   474.    530.    507.    490.    495.    483.    508.    526.
   497.    472.    532.    502.    496.    525.    514.    532.
   519.    502.    497.    523.    535.    522.    540.    521.
   513.    518.    502.    507.    551.    510.    483.    516.
   558.    487.    505.    519.    508.    492.    502.    492.
   508.    516.    522.    537.    569.    503.    526.    477.
   516.    484.    516.    501.    504.    514.    497.    511.
   457.    485.    517.    490.    538.    543.    530.    508.
   507.    511.    535.    491.    513.    541.    498.    568.
   487.    560.    519.    521.    552.    498.    573.    508.
   528.    522.    559.    509.    525.    498.    538.    537.
   490.    521.    504.    512.    513.    518.    541.    531.
   549.    561.    508.    548.    533.    526.    512.    521.
   500.    562.    542.    549.    522.    517.    545.    566.
   544.    543.    531.    561.    553.    546.    561.    546.
   514.    569.    575.    540.    570.    565.    552.    550.
   556.    581.    553.    542.    535.    532.    516.    519.
   544.    542.    551.    570.    586.    573.    529.    566.
   557.    548.    577.    541.    608.    553.    565.    549.
   590.    534.    526.    546.    558.    568.    557.    541.
   567.    531.    533.    523.    578.    541.    549.    519.
   533.    546.    558.    600.    539.    540.    559.    573.
   546.    535.    540.    572.    556.    555.    571.    555.
   564.    534.    548.    589.    565.    521.    538.    560.
   555.    560.    531.    532.    553.    547.    584.    575.
   570.    566.    559.    550.    573.    561.    546.    592.
   507.    524.    574.    576.    549.    538.    557.    566.
   590.    535.    556.    577.    545.    529.    597.    551.
   503.    521.    498.    552.    529.    559.    542.    528.
   514.    552.    530.    560.    536.    495.    556.    545.
   543.    528.    515.    478.    535.    524.    516.    502.
   494.    513.    500.    512.    485.    528.    539.    509.
   497.    513.    514.    521.    492.    510.    472.    460.
   505.    474.    498.    495.    489.    460.    478.    491.
   480.    486.    464.    449.    485.    494.    505.    507.
   499.    522.    444.    479.    499.    493.    469.    485.
   465.    470.    485.    463.    463.    472.    471.    445.
   471.    465.    467.    463.    474.    463.    451.    463.
   431.    455.    455.    452.    441.    471.    449.    463.
   431.    463.    459.    485.    457.    424.    451.    471.
   463.    439.    416.    456.    460.    461.    431.    450.
   459.    449.    464.    432.    444.    465.    429.    427.
   446.    432.    458.    448.    432.    397.    461.    439.
   471.    450.    478.    457.    487.    456.    435.    466.
   434.    447.    466.    472.    429.    433.    454.    478.
   468.    503.    490.    453.    465.    466.    457.    450.
   448.    457.    468.    494.    441.    484.    440.    455.
   468.    458.    462.    455.    454.    450.    449.    468.
   432.    452.    414.    445.    476.    460.    490.    477.
   479.    464.    485.    494.    461.    448.    469.    471.
   443.    409.    470.    479.    482.    478.    454.    470.
   457.    537.    457.    491.    440.    474.    456.    489.
   469.    484.    457.    423.    477.    513.    441.    457.
   465.    435.    462.    449.    453.    502.    493.    510.
   475.    470.    435.    501.    476.    499.    454.    430.
   471.    492.    468.    465.    483.    455.    500.    493.
   474.    508.    459.    496.    485.    499.    464.    504.
   482.    497.    500.    472.    474.    477.    480.    470.
   471.    521.    454.    488.    458.    552.    485.    470.
   499.    467.    465.    492.    464.    518.    460.    459.
   480.    477.    464.    493.    516.    478.    476.    486.
   451.    480.    479.    476.    481.    487.    485.    479.
   458.    469.    467.    463.    465.    483.    461.    480.
   471.    431.    474.    453.    484.    470.    443.    458.
   459.    479.    458.    448.    456.    416.    496.    467.
   452.    455.    477.    467.    469.    494.    481.    441.
   445.    457.    448.    444.    482.    426.    461.    484.
   473.    511.    503.    468.    459.    489.    475.    463.
   477.    513.    457.    448.    475.    433.    478.    461.
   467.    463.    471.    491.    482.    468.    458.    459.
   486.    487.    502.    482.    455.    477.    437.    482.
   467.    489.    502.    452.    432.    449.    480.    454.
   460.    477.    445.    457.    431.    476.    466.    488.
   482.    481.    417.    481.    478.    456.    446.    469.
   468.    413.    451.    468.    430.    481.    494.    494.
   466.    452.    486.    470.    434.    486.    495.    466.
   454.    479.    446.    448.    412.    452.    452.    459.
   436.    464.    449.    479.    497.    479.    442.    478.
   447.    478.    476.    434.    471.    430.    462.    450.
   476.    491.    468.    455.    484.    499.    464.    455.
   476.    454.    479.    482.    458.    436.    441.    447.
   458.    474.    470.    462.    472.    471.    443.    431.
   468.    486.    485.    481.    473.    457.    448.    456.
   456.    474.    484.    435.    464.    410.    475.    468.
   452.    434.    456.    474.    482.    463.    416.    438.
   422.    443.    431.    427.    456.    464.    462.    464.
   454.    473.    432.    480.    456.    454.    440.    451.
   470.    425.    459.    433.    463.    455.    443.    447.
   472.    462.    459.    433.    441.    410.    445.    470.
   465.    452.    460.    449.    442.    471.    471.    439.
   470.    452.    422.    486.    473.    449.    470.    428.
   484.    465.    507.    436.    480.    442.    443.    467.
   432.    430.    462.    431.    427.    448.    460.    466.
   434.    477.    456.    467.    461.    478.    463.    464.
   467.    442.    488.    500.    489.    463.    451.    448.
   474.    507.    486.    474.    493.    494.    479.    514.
   499.    473.    475.    480.    485.    458.    504.    516.
   489.    522.    497.    520.    505.    505.    540.    478.
   473.    480.    486.    522.    489.    478.    506.    504.
   506.    536.    537.    522.    502.    472.    481.    503.
   528.    528.    508.    503.    510.    500.    500.    523.
   497.    514.    512.    478.    529.    507.    483.    472.
   483.    475.    504.    463.    551.    517.    515.    516.
   532.    485.    518.    510.    500.    496.    461.    547.
   472.    515.    489.    523.    463.    520.    493.    502.
   481.    481.    484.    524.    476.    509.    495.    473.
   465.    501.    463.    497.    489.    478.    510.    491.
   480.    454.    486.    491.    530.    502.    478.    468.
   488.    482.    476.    464.    431.    479.    462.    483.
   449.    457.    472.    483.    497.    466.    471.    467.
   503.    477.    476.    445.    475.    487.    463.    466.
   475.    451.    493.    475.    486.    490.    499.    485.
   467.    450.    474.    463.    468.    465.    458.    464.
   437.    477.    452.    472.    448.    455.    462.    433.
   453.    482.    451.    456.    481.    449.    462.    463.
   501.    467.    464.    499.    466.    472.    477.    471.
   447.    418.    442.    465.    445.    442.    401.    435.
   461.    465.    481.    484.    424.    443.    433.    487.
   479.    466.    417.    455.    455.    477.    448.    431.
   424.    463.    398.    439.    442.    460.    448.    431.
   420.    422.    450.    462.    426.    435.    470.    437.
   448.    433.    415.    416.    440.    422.    392.    449.
   431.    417.    437.    409.    459.    422.    402.    435.
   430.    414.    386.    418.    415.    420.    421.    416.
   409.    382.    419.    448.    396.    415.    393.    384.
   419.    405.    422.    429.    384.    424.    416.    393.
   416.    377.    400.    425.    391.    415.    409.    382.
   387.    385.    398.    416.    423.    377.    414.    400.
   413.    381.    390.    397.    355.    391.    367.    384.
   364.    391.    399.    379.    364.    364.    397.    378.
   398.    372.    412.    380.    370.    377.    341.    367.
   384.    363.    349.    373.    383.    349.    377.    359.
   356.    387.    410.    424.    359.    345.    359.    385.
   379.    384.    345.    373.    335.    373.    373.    373.
   349.    393.    406.    361.    390.    368.    360.    396.
   352.    395.    334.    342.    384.    392.    359.    367.
   343.    371.    361.    362.    349.    375.    367.    335.
   351.    368.    430.    343.    337.    378.    356.    353.
   377.    358.    325.    371.    368.    350.    392.    392.
   349.    370.    370.    358.    362.    349.    359.    335.
   374.    360.    353.    359.    365.    373.    388.    374.
   413.    408.    353.    368.    402.    394.    357.    377.
   375.    386.    370.    361.    374.    367.    388.    386.
   356.    349.    387.    368.    370.    364.    385.    351.
   375.    360.    373.    378.    381.    340.    339.    378.
   340.    381.    368.    347.    382.    390.    411.    397.
   389.    367.    378.    332.    383.    385.    408.    382.
   381.    397.    389.    394.    391.    416.    367.    399.
   389.    408.    402.    389.    414.    367.    412.    378.
   395.    422.    422.    381.    398.    372.    410.    427.
   376.    423.    375.    399.    426.    415.    422.    376.
   361.    427.    394.    396.    414.    431.    397.    378.
   403.    431.    395.    393.    400.    407.    432.    405.
   402.    422.    401.    381.    386.    395.    435.    420.
   404.    419.    476.    416.    398.    412.    383.    403.
   403.    409.    442.    408.    394.    394.    412.    443.
   414.    427.    430.    448.    426.    395.    477.    420.
   404.    435.    394.    408.    437.    412.    437.    459.
   411.    443.    514.    451.    438.    445.    449.    433.
   450.    408.    447.    427.    452.    455.    446.    432.
   421.    442.    431.    420.    449.    461.    454.    455.
   385.    419.    412.    466.    468.    441.    478.    455.
   438.    429.    448.    482.    462.    451.    489.    489.
   422.    474.    453.    502.    474.    448.    458.    419.
   455.    457.    464.    459.    489.    433.    487.    459.
   497.    488.    481.    514.    491.    498.    459.    486.
   512.    455.    493.    484.    486.    516.    490.    521.
   518.    484.    471.    466.    454.    484.    489.    488.
   500.    482.    492.    478.    503.    502.    470.    467.
   465.    503.    524.    493.    507.    558.    508.    481.
   472.    502.    474.    459.    489.    505.    492.    491.
   536.    479.    464.    503.    471.    491.    470.    448.
   477.    512.    499.    496.    510.    502.    473.    537.
   486.    501.    468.    471.    492.    449.    493.    496.
   478.    477.    469.    526.    509.    483.    484.    482.
   489.    503.    482.    463.    490.    495.    476.    497.
   474.    510.    476.    457.    425.    446.    452.    480.
   441.    472.    469.    466.    457.    507.    467.    480.
   470.    451.    449.    438.    461.    457.    427.    462.
   486.    460.    454.    412.    447.    460.    440.    425.
   415.    422.    452.    424.    454.    432.    420.    442.
   418.    455.    422.    445.    427.    427.    387.    421.
   440.    429.    418.    433.    424.    420.    440.    369.
   418.    430.    423.    380.    395.    424.    390.    373.
   390.    409.    424.    412.    426.    410.    391.    386.
   428.    390.    423.    403.    388.    417.    401.    437.
   409.    397.    412.    403.    388.    420.    416.    379.
   385.    404.    393.    386.    399.    397.    427.    395.
   434.    399.    425.    399.    389.    422.    376.    412.
   438.    399.    394.    402.    404.    423.    414.    388.
   401.    369.    408.    390.    427.    412.    422.    393.
   388.    383.    401.    433.    401.    428.    420.    382.
   445.    432.    434.    429.    392.    443.    435.    419.
   407.    423.    392.    412.    420.    430.    420.    427.
   407.    425.    433.    410.    407.    395.    444.    425.
   436.    433.    413.    406.    423.    392.    441.    408.
   459.    414.    445.    447.    417.    396.    407.    418.
   449.    439.    399.    417.    446.    422.    424.    430.
   455.    473.    434.    441.    446.    422.    469.    472.
   408.    430.    432.    440.    442.    442.    464.    451.
   429.    446.    452.    480.    454.    440.    478.    477.
   471.    455.    448.    443.    436.    453.    442.    441.
   461.    438.    441.    442.    433.    450.    433.    456.
   425.    451.    478.    469.    489.    508.    464.    491.
   458.    500.    453.    457.    449.    500.    528.    465.
   443.    495.    479.    479.    521.    487.    499.    486.
   446.    524.    476.    504.    513.    500.    479.    489.
   476.    543.    513.    522.    513.    526.    517.    474.
   504.    484.    490.    514.    522.    496.    496.    484.
   481.    502.    536.    528.    503.    517.    511.    510.
   508.    568.    500.    509.    516.    522.    534.    500.
   502.    475.    547.    503.    543.    519.    515.    530.
   532.    474.    469.    552.    499.    533.    472.    547.
   499.    502.    483.    498.    503.    490.    513.    501.
   473.    518.    487.    478.    514.    518.    514.    500.
   495.    521.    508.    487.    499.    528.    482.    547.
   489.    504.    477.    504.    502.    499.    487.    511.
   471.    459.    519.    503.    483.    466.    491.    487.
   484.    506.    479.    490.    488.    480.    491.    483.
   463.    494.    481.    481.    513.    486.    502.    477.
   487.    493.    501.    505.    537.    510.    487.    476.
   474.    511.    522.    509.    508.    485.    483.    446.
   466.    504.    490.    518.    460.    470.    498.    488.
   478.    521.    479.    469.    482.    480.    489.    513.
   473.    504.    484.    494.    471.    461.    444.    443.
   471.    461.    468.    468.    479.    508.    427.    450.
   497.    496.    495.    484.    467.    443.    469.    480.
   445.    480.    446.    446.    454.    463.    446.    457.
   472.    458.    450.    496.    480.    478.    455.    497.
   440.    473.    454.    446.    444.    469.    444.    450.
   484.    457.    454.    467.    455.    443.    453.    468.
   441.    443.    468.    417.    451.    483.    479.    482.
   462.    456.    449.    449.    455.    494.    467.    412.
   450.    442.    439.    444.    444.    484.    468.    473.
   459.    457.    448.    425.    423.    470.    461.    459.
   411.    428.    400.    445.    441.    448.    411.    431.
   439.    426.    439.    443.    433.    431.    448.    441.
   408.    447.    441.    426.    454.    435.    398.    413.
   413.    403.    409.    431.    436.    411.    396.    439.
   438.    436.    414.    385.    422.    377.    417.    412.
   402.    420.    414.    424.    418.    401.    382.    410.
   419.    427.    419.    430.    404.    417.    425.    405.
   402.    405.    404.    384.    405.    412.    427.    400.
   420.    401.    370.    395.    422.    409.    405.    429.
   430.    400.    419.    436.    419.    408.    407.    437.
   432.    410.    430.    402.    436.    438.    396.    379.
   405.    397.    415.    401.    406.    413.    397.    412.
   429.    418.    431.    385.    414.    409.    413.    420.
   426.    381.    405.    390.    399.    425.    445.    396.
   394.    419.    411.    406.    433.    410.    403.    460.
   397.    419.    455.    458.    438.    471.    449.    459.
   418.    431.    422.    438.    417.    448.    432.    453.
   458.    447.    421.    434.    452.    433.    420.    464.
   474.    446.    424.    415.    417.    439.    388.    432.
   471.    436.    437.    450.    444.    457.    456.    482.
   432.    457.    433.    443.    436.    444.    424.    409.
   423.    469.    473.    426.    445.    459.    417.    411.
   420.    450.    448.    439.    456.    472.    388.    446.
   455.    433.    453.    449.    408.    425.    434.    440.
   454.    431.    412.    436.    438.    465.    464.    515.
   454.    445.    432.    436.    408.    457.    462.    448.
   478.    457.    448.    477.    410.    449.    450.    430.
   492.    448.    458.    440.    456.    445.    453.    506.
   463.    476.    475.    493.    440.    459.    453.    472.
   412.    422.    475.    458.    421.    465.    431.    446.
   473.    444.    410.    427.    446.    442.    416.    409.
   417.    434.    399.    445.    457.    441.    412.    439.
   442.    425.    431.    387.    445.    436.    439.    433.
   450.    425.    436.    434.    448.    441.    417.    428.
   430.    424.    425.    443.    430.    406.    439.    438.
   443.    435.    430.    420.    428.    410.    416.    441.
   457.    449.    437.    448.    431.    429.    408.    403.
   422.    442.    435.    447.    397.    454.    444.    459.
   443.    475.    425.    454.    463.    391.    444.    468.
   454.    421.    469.    473.    426.    445.    413.    425.
   423.    465.    424.    444.    418.    406.    418.    408.
   432.    448.    443.    436.    462.    422.    442.    439.
   421.    438.    434.    448.    458.    441.    448.    430.
   434.    422.    447.    455.    435.    445.    427.    478.
   419.    410.    407.    460.    449.    460.    463.    422.
   418.    404.    464.    481.    474.    478.    394.    432.
   443.    443.    443.    469.    474.    424.    432.    468.
   455.    462.    410.    438.    429.    450.    440.    476.
   477.    421.    446.    434.    414.    456.    448.    476.
   446.    480.    424.    442.    431.    474.    469.    447.
   418.    413.    439.    440.    453.    451.    464.    469.
   464.    438.    445.    452.    463.    455.    480.    463.
   432.    482.    445.    440.    448.    479.    436.    456.
   480.    495.    509.    463.    483.    460.    442.    476.
   469.    440.    498.    474.    455.    449.    454.    462.
   419.    455.    461.    436.    457.    437.    459.    458.
   485.    471.    509.    495.    465.    434.    432.    478.
   445.    491.    490.    458.    489.    449.    480.    462.
   452.    438.    471.    456.    502.    438.    468.    462.
   474.    462.    471.    440.    460.    440.    454.    489.
   487.    458.    444.    471.    468.    467.    412.    439.
   415.    413.    449.    434.    453.    444.    463.    415.
   404.    438.    453.    467.    423.    456.    452.    411.
   411.    441.    461.    431.    421.    439.    480.    443.
   423.    444.    450.    442.    431.    419.    390.    427.
   425.    401.    444.    387.    424.    429.    415.    444.
   424.    424.    400.    389.    413.    397.    412.    437.
   438.    414.    429.    428.    438.    408.    465.    438.
   415.    400.    394.    393.    392.    396.    414.    388.
   416.    417.    410.    390.    402.    420.    428.    398.
   385.    408.    387.    370.    357.    354.    401.    385.
   410.    378.    365.    425.    390.    375.    385.    402.
   359.    389.    366.    360.    354.    375.    365.    374.
   351.    380.    351.    400.    406.    420.    373.    360.
   374.    370.    373.    360.    364.    358.    375.    369.
   387.    382.    383.    354.    358.    378.    378.    355.
   368.    371.    398.    372.    357.    365.    401.    373.
   352.    374.    356.    394.    367.    370.    352.    358.
   385.    360.    360.    332.    366.    326.    368.    332.
   347.    380.    403.    359.    389.    345.    359.    385.
   371.    353.    367.    355.    353.    397.    376.    359.
   336.    368.    367.    343.    363.    364.    367.    384.
   401.    366.    369.    355.    381.    327.    367.    378.
   361.    368.    378.    347.    359.    390.    354.    364.
   355.    353.    360.    370.    402.    352.    363.    331.
   372.    346.    375.    352.    334.    360.    349.    369.
   337.    350.    389.    348.    359.    372.    342.    354.
   323.    367.    330.    319.    317.    339.    351.    379.
   343.    356.    330.    370.    362.    341.    362.    362.
   365.    368.    344.    334.    334.    372.    343.    347.
   340.    357.    352.    339.    337.    356.    355.    358.
   358.    368.    372.    354.    367.    346.    346.    383.
   356.    334.    370.    379.    334.    364.    359.    383.
   382.    368.    340.    368.    399.    374.    354.    340.
   352.    353.    363.    370.    376.    356.    365.    374.
   371.    368.    365.    357.    367.    376.    358.    370.
   363.    368.    393.    370.    366.    360.    340.    355.
   363.    381.    330.    360.    375.    376.    390.    392.
   362.    374.    395.    369.    378.    358.    376.    371.
   406.    376.    332.    365.    351.    388.    366.    363.
   354.    369.    345.    317.    342.    362.    370.    400.
   366.    373.    367.    362.    383.    388.    365.    410.
   373.    345.    352.    403.    385.    387.    354.    349.
   404.    346.    397.    385.    361.    393.    345.    362.
   388.    376.    386.    388.    381.    368.    359.    358.
   349.    360.    344.    351.    360.    369.    376.    384.
   384.    374.    357.    355.    370.    391.    367.    365.
   370.    383.    370.    337.    385.    378.    387.    370.
   396.    372.    330.    375.    373.    361.    388.    343.
   370.    363.    362.    366.    352.    380.    364.    348.
   359.    384.    366.    342.    359.    373.    398.    391.
   350.    354.    382.    339.    372.    336.    357.    384.
   374.    356.    377.    376.    370.    360.    385.    357.
   373.    340.    353.    387.    362.    386.    399.    360.
   368.    364.    366.    390.    380.    371.    382.    379.
   378.    386.    384.    363.    356.    399.    401.    356.
   372.    374.    359.    387.    368.    341.    420.    389.
   393.    361.    361.    379.    354.    368.    373.    404.
   347.    381.    382.    379.    389.    385.    380.    381.
   381.    362.    375.    371.    364.    362.    367.    381.
   358.    357.    369.    390.    352.    368.    358.    352.
   350.    377.    412.    357.    375.    362.    360.    371.
   376.    381.    376.    359.    360.    364.    360.    344.
   364.    369.    372.    336.    359.    358.    369.    378.
   367.    381.    366.    370.    368.    379.    404.    348.
   395.    348.    373.    379.    336.    357.    409.    395.
   348.    354.    359.    337.    368.    393.    355.    344.
   351.    354.    373.    398.    371.    402.    326.    381.
   360.    346.    355.    368.    356.    356.    368.    396.
   349.    373.    364.    361.    376.    358.    355.    354.
   365.    343.    354.    389.    353.    347.    356.    345.
   342.    377.    339.    341.    365.    370.    362.    364.
   325.    361.    370.    349.    336.    354.    337.    334.
   345.    329.    352.    376.    385.    365.    357.    366.
   359.    338.    383.    398.    334.    368.    367.    357.
   371.    371.    364.    373.    350.    359.    341.    340.
   360.    350.    367.    374.    368.    368.    353.    330.
   360.    393.    387.    362.    348.    321.    370.    347.
   352.    369.    377.    343.    326.    336.    348.    313.
   343.    351.    346.    339.    349.    372.    339.    360.
   359.    317.    366.    366.    327.    349.    367.    342.
   371.    367.    341.    357.    347.    367.    343.    356.
   365.    382.    356.    359.    352.    339.    356.    344.
   371.    334.    356.    341.    374.    346.    341.    332.
   360.    371.    364.    358.    369.    352.    348.    370.
   349.    365.    358.    358.    348.    369.    372.    359.
   333.    316.    339.    341.    361.    361.    361.    353.
   324.    366.    341.    349.    340.    372.    363.    383.
   347.    360.    351.    349.    368.    389.    379.    391.
   361.    307.    369.    369.    390.    375.    371.    376.
   355.    355.    371.    384.    361.    370.    325.    369.
   363.    385.    377.    353.    373.    375.    343.    347.
   364.    400.    406.    356.    358.    353.    387.    379.
   403.    363.    378.    381.    401.    390.    333.    350.
   377.    371.    391.    384.    394.    363.    402.    361.
   346.    352.    373.    373.    399.    371.    358.    353.
   403.    399.    373.    376.    398.    385.    374.    411.
   395.    398.    412.    377.    389.    404.    404.    382.
   400.    397.    406.    382.    385.    408.    398.    392.
   386.    400.    352.    388.    411.    402.    408.    391.
   394.    369.    421.    380.    366.    409.    408.    403.
   369.    413.    419.    431.    449.    413.    385.    410.
   369.    418.    404.    440.    414.    393.    413.    389.
   416.    413.    404.    380.    410.    412.    413.    414.
   414.    419.    380.    355.    400.    392.    429.    431.
   404.    371.    370.    387.    449.    396.    409.    410.
   391.    384.    395.    371.    406.    382.    370.    424.
   381.    392.    405.    391.    357.    400.    394.    403.
   362.    376.    393.    381.    384.    353.    381.    381.
   367.    382.    358.    381.    388.    386.    386.    393.
   336.    388.    388.    391.    355.    400.    408.    362.
   357.    373.    357.    357.    394.    374.    360.    367.
   364.    394.    400.    374.    365.    383.    374.    357.
   339.    358.    384.    372.    390.    406.    367.    369.
   362.    386.    391.    365.    335.    372.    363.    356.
   377.    368.    359.    393.    361.    370.    381.    365.
   360.    391.    370.    377.    350.    395.    387.    395.
   376.    363.    395.    389.    406.    400.    368.    337.
   383.    364.    350.    351.    337.    342.    377.    385.
   397.    374.    370.    373.    367.    389.    370.    406.
   344.    362.    387.    399.    356.    374.    359.    353.
   369.    355.    372.    338.    365.    369.    384.    358.
   400.    365.    372.    377.    389.    372.    346.    353.
   343.    389.    391.    355.    361.    358.    354.    352.
   384.    387.    388.    374.    364.    384.    390.    409.
   361.    345.    375.    360.    380.    360.    376.    357.
   355.    359.    386.    384.    342.    379.    343.    378.
   360.    369.    365.    394.    353.    359.    365.    380.
   381.    397.    374.    383.    394.    358.    381.    393.
   354.    384.    353.    350.    389.    330.    363.    382.
   373.    390.    348.    362.    392.    364.    351.    358.
   378.    379.    384.    368.    362.    354.    380.    361.
   377.    388.    373.    364.    371.    326.    357.    340.
   354.    362.    370.    367.    347.    360.    324.    359.
   364.    357.    400.    377.    378.    388.    364.    357.
   357.    338.    347.    333.    370.    366.    360.    376.
   368.    363.    348.    387.    367.    365.    373.    358.
   368.    376.    347.    358.    354.    349.    384.    373.
   359.    333.    371.    369.    355.    353.    389.    373.            
   384.    362.    375.    372.    384.    383.    381.    400.
   379.    386.    388.    382.    401.    416.    351.    372.
   376.    367.    363.    388.    356.    345.    373.    400.
   401.    395.    385.    397.    382.    388.    395.    364.
   370.    401.    402.    368.    403.    386.    387.    361.
   387.    394.    366.    393.    410.    372.    388.    399.
   401.    391.    395.    423.    360.    382.    400.    403.
   442.    383.    427.    449.    397.    391.    445.    366.
   415.    381.    389.    385.    386.    390.    391.    394.
   386.    367.    370.    410.    379.    388.    370.    388.
   382.    393.    409.    417.    418.    399.    411.    390.
   402.    407.    400.    422.    410.    384.    424.    393.
   395.    404.    392.    413.    388.    391.    379.    362.
   400.    364.    345.    361.    408.    389.    407.    389.
   389.    373.    425.    361.    384.    382.    407.    412.
   377.    396.    426.    392.    387.    365.    396.    354.
   400.    390.    412.    377.    397.    395.    399.    385.
   395.    412.    396.    386.    403.    416.    401.    411.
   411.    379.    396.    416.    397.    390.    400.    406.
   430.    378.    405.    422.    403.    432.    420.    389.
   378.    381.    393.    403.    389.    384.    425.    386.
   424.    364.    421.    419.    449.    430.    401.    406.
   358.    389.    410.    431.    413.    412.    415.    426.
   401.    395.    423.    409.    405.    384.    436.    409.
   387.    416.    423.    390.    430.    416.    408.    414.
   399.    406.    426.    392.    459.    405.    406.    402.
   449.    437.    435.    397.    424.    400.    456.    447.
   382.    450.    413.    430.    421.    434.    433.    424.
   419.    406.    417.    399.    449.    444.    445.    391.
   417.    460.    472.    442.    431.    411.    424.    416.
   411.    411.    433.    431.    457.    414.    418.    431.
   437.    447.    470.    487.    436.    449.    402.    430.
   407.    419.    428.    447.    450.    434.    454.    435.
   424.    481.    425.    465.    427.    459.    444.    430.
   456.    467.    460.    451.    445.    439.    410.    450.
   438.    425.    451.    447.    453.    444.    440.    477.
   455.    448.    443.    480.    462.    465.    462.    421.
   432.    444.    411.    438.    466.    494.    458.    486.
   486.    462.    473.    485.    448.    467.    452.    436.
   470.    453.    511.    419.    426.    452.    473.    454.
   429.    443.    467.    469.    474.    502.    517.    457.
   454.    449.    440.    444.    440.    464.    488.    449.
   464.    459.    455.    438.    432.    433.    437.    456.
   444.    452.    441.    450.    436.    448.    447.    432.
   442.    443.    439.    445.    454.    462.    433.    444.
   381.    393.    453.    443.    409.    435.    423.    427.
   407.    389.    438.    428.    415.    409.    426.    411.
   414.    371.    410.    406.    392.    372.    410.    349.
   441.    411.    386.    430.    418.    447.    407.    425.
   396.    406.    410.    377.    400.    420.    397.    433.
   390.    406.    376.    415.    398.    388.    414.    424.
   414.    422.    387.    384.    427.    387.    397.    375.
   396.    398.    387.    428.    376.    400.    371.    345.
   403.    392.    397.    407.    357.    379.    407.    393.
   366.    411.    397.    377.    414.    341.    392.    419.
   385.    390.    394.    376.    368.    372.    385.    383.
   399.    380.    412.    367.    375.    414.    378.    375.
   377.    399.    402.    400.    408.    380.    370.    383.
   367.    398.    365.    429.    387.    403.    369.    392.
   380.    372.    394.    380.    359.    362.    408.    391.
   410.    369.    409.    387.    378.    370.    362.    382.
   363.    383.    375.    422.    380.    386.    329.    360.
   363.    401.    381.    375.    360.    366.    360.    384.
   406.    430.    392.    408.    378.    395.    382.    381.
   387.    356.    418.    347.    393.    394.    352.    352.
   386.    365.    395.    367.    388.    426.    412.    382.
   362.    414.    399.    394.    406.    380.    387.    397.
   359.    377.    401.    396.    399.    381.    408.    363.
   386.    394.    372.    392.    408.    395.    384.    392.
   407.    381.    395.    380.    406.    384.    381.    413.
   390.    409.    396.    388.    423.    387.    378.    414.
   374.    409.    398.    379.    407.    394.    384.    360.
   414.    415.    415.    404.    392.    398.    414.    383.
   395.    430.    380.    360.    416.    381.    343.    373.
   401.    379.    371.    377.    385.    398.    395.    401.
   368.    411.    420.    408.    387.    363.    377.    372.
   363.    404.    389.    403.    394.    373.    396.    385.
   394.    382.    388.    402.    367.    400.    366.    390.
   378.    395.    403.    364.    345.    385.    390.    372.
   395.    406.    389.    353.    396.    365.    394.    394.
   396.    378.    373.    388.    371.    421.    385.    401.
   370.    388.    397.    403.    367.    403.    370.    408.
   386.    353.    359.    396.    393.    412.    355.    395.
   384.    366.    375.    391.    347.    348.    400.    359.
   367.    381.    390.    368.    390.    358.    394.    394.
   363.    357.    373.    357.    423.    364.    388.    368.
   368.    385.    374.    386.    378.    400.    375.    351.
   390.    344.    364.    336.    365.    374.    350.    362.
   380.    366.    372.    365.    387.    388.    420.    387.
   380.    374.    361.    373.    368.    374.    359.    400.
   396.    410.    410.    406.    401.    408.    380.    379.
   381.    409.    362.    393.    405.    372.    377.    368.
   364.    413.    399.    393.    393.    389.    397.    386.
   402.    375.    398.    382.    406.    403.    414.    394.
   427.    387.    404.    425.    405.    403.    377.    379.
   390.    366.    405.    349.    376.    369.    402.    432.
   392.    383.    427.    395.    426.    404.    399.    402.
   404.    415.    412.    423.    390.    376.    379.    383.
   419.    426.    420.    416.    381.    407.    417.    391.
   434.    441.    402.    366.    392.    402.    419.    407.
   393.    431.    409.    394.    384.    388.    379.    420.
   395.    407.    409.    400.    408.    405.    409.    434.
   430.    404.    416.    390.    397.    422.    415.    423.
   405.    432.    421.    393.    402.    467.    432.    442.
   390.    415.    430.    404.    421.    424.    434.    400.
   431.    414.    416.    418.    432.    431.    414.    436.
   421.    419.    398.    385.    429.    398.    406.    402.
   441.    444.    417.    428.    396.    418.    391.    436.
   435.    405.    414.    446.    438.    438.    417.    426.
   391.    418.    452.    429.    425.    416.    414.    418.
   421.    398.    457.    385.    425.    417.    407.    425.
   402.    408.    389.    426.    479.    443.    426.    414.
   379.    440.    415.    424.    433.    423.    431.    425.
   417.    427.    419.    429.    427.    405.    422.    453.
   436.    402.    406.    397.    417.    388.    422.    417.
   403.    385.    397.    389.    452.    445.    441.    424.
   427.    403.    421.    438.    418.    392.    413.    421.
   384.    388.    418.    393.    424.    384.    405.    421.
   429.    406.    417.    438.    409.    402.    407.    416.
   415.    404.    371.    411.    417.    409.    404.    415.
   408.    423.    386.    398.    381.    394.    401.    438.
   412.    445.    395.    371.    389.    407.    407.    387.
   376.    381.    387.    376.    386.    401.    419.    416.
   418.    389.    410.    409.    392.    398.    432.    356.
   374.    398.    386.    364.    426.    371.    356.    385.
   440.    420.    401.    399.    428.    414.    403.    416.
   422.    417.    396.    387.    406.    409.    394.    424.
   437.    396.    363.    403.    422.    398.    431.    396.
   428.    416.    405.    427.    398.    397.    397.    367.
   404.    405.    407.    389.    391.    409.    408.    412.
   456.    420.    403.    414.    399.    414.    412.    440.
   405.    373.    405.    409.    361.    371.    362.    412.
   387.    427.    402.    386.    402.    400.    419.    397.
   386.    392.    416.    403.    399.    420.    414.    413.
   407.    397.    409.    369.    375.    418.    410.    399.
   409.    393.    419.    429.    442.    421.    404.    427.
   435.    409.    408.    396.    387.    404.    435.    446.
   427.    422.    399.    389.    422.    419.    391.    407.
   423.    428.    397.    410.    402.    403.    445.    409.
   419.    379.    410.    405.    422.    428.    413.    409.
   412.    429.    421.    416.    442.    420.    422.    440.
   418.    389.    432.    434.    423.    423.    444.    401.
   403.    420.    407.    402.    412.    407.    430.    393.
   428.    384.    419.    409.    429.    391.    373.    422.
   415.    441.    416.    440.    423.    438.    422.    397.
   445.    459.    435.    421.    395.    434.    393.    409.
   425.    425.    406.    404.    405.    430.    445.    415.
   422.    428.    437.    400.    405.    416.    428.    449.
   433.    442.    445.    433.    456.    427.    422.    451.
   418.    414.    428.    423.    400.    407.    422.    444.
   403.    439.    437.    435.    403.    388.    425.    430.
   426.    433.    393.    435.    425.    420.    454.    427.
   421.    390.    411.    435.    426.    407.    403.    453.
   423.    433.    435.    424.    383.    406.    424.    429.
   452.    417.    407.    442.    418.    390.    433.    380.
   388.    417.    443.    441.    430.    418.    409.    458.
   408.    422.    389.    373.    436.    433.    409.    414.
   415.    400.    409.    398.    391.    405.    395.    415.
   421.    381.    407.    442.    400.    409.    401.    395.
   375.    408.    403.    406.    380.    411.    374.    408.
   413.    367.    405.    407.    405.    376.    397.    398.
   396.    406.    403.    392.    424.    401.    360.    418.
   361.    387.    371.    376.    373.    389.    394.    363.
   373.    366.    394.    395.    382.    366.    382.    367.
   380.    384.    366.    345.    353.    414.    356.    400.
   371.    403.    423.    394.    376.    366.    403.    370.
   374.    393.    386.    376.    366.    377.    385.    357.
   366.    366.    365.    365.    411.    404.    389.    361.
   359.    366.    369.    368.    382.    372.    393.    389.
   364.    349.    385.    346.    375.    374.    380.    393.
   377.    385.    353.    378.    351.    365.    383.    375.
   366.    371.    399.    369.    331.    354.    424.    352.
   378.    380.    373.    389.    374.    369.    368.    368.
   374.    366.    385.    360.    369.    380.    386.    389.
   374.    373.    354.    383.    367.    383.    356.    386.
   367.    376.    369.    380.    373.    362.    404.    348.
   374.    379.    375.    414.    345.    349.    373.    366.
   395.    372.    392.    390.    350.    351.    371.    372.
   390.    346.    381.    373.    363.    393.    352.    359.
   372.    366.    355.    375.    364.    375.    380.    369.
   352.    360.    339.    343.    374.    392.    361.    345.
   390.    372.    350.    370.    378.    397.    400.    351.
   363.    363.    348.    371.    368.    369.    370.    370.
   348.    371.    364.    390.    355.    365.    376.    392.
   372.    381.    371.    359.    397.    375.    363.    347.
   374.    385.    339.    379.    368.    327.    364.    319.
   366.    363.    338.    347.    388.    389.    397.    372.
   375.    350.    352.    376.    363.    359.    380.    354.
   352.    370.    375.    338.    336.    333.    350.    367.
   377.    347.    374.    347.    349.    344.    361.    378.
   339.    355.    350.    368.    370.    376.    353.    328.
   342.    383.    331.    329.    355.    331.    352.    351.
   349.    353.    376.    352.    364.    330.    353.    348.
   330.    358.    341.    364.    362.    373.    352.    358.
   343.    341.    371.    360.    375.    381.    350.    374.
   350.    344.    348.    340.    345.    336.    316.    349.
   340.    358.    365.    319.    362.    360.    328.    330.
   314.    355.    353.    344.    370.    328.    368.    370.
   350.    376.    338.    328.    373.    345.    344.    348.
   348.    361.    348.    358.    333.    350.    350.    333.
   363.    347.    326.    359.    341.    352.    325.    333.
   363.    327.    349.    350.    339.    302.    336.    357.
   321.    333.    326.    353.    342.    320.    343.    323.
   349.    353.    374.    330.    330.    328.    339.    346.
   355.    343.    346.    328.    323.    319.    350.    332.
   326.    362.    364.    319.    353.    366.    342.    377.
   341.    346.    342.    337.    317.    311.    367.    332.
   336.    318.    320.    331.    353.    364.    362.    323.
   340.    338.    349.    343.    335.    334.    328.    368.
   350.    348.    335.    342.    334.    331.    328.    358.
   345.    347.    309.    326.    335.    318.    349.    346.
   337.    348.    336.    363.    340.    335.    311.    350.
   343.    343.    362.    327.    369.    332.    352.    368.
   301.    322.    314.    338.    363.    319.    369.    348.
   326.    337.    331.    349.    338.    344.    335.    351.
   326.    321.    333.    318.    322.    372.    357.    332.
   366.    349.    324.    351.    332.    346.    345.    315.
   355.    329.    335.    331.    327.    335.    356.    343.
   318.    355.    351.    368.    341.    362.    360.    336.
   364.    359.    336.    362.    366.    338.    313.    369.
   360.    377.    372.    356.    332.    352.    331.    372.
   349.    341.    361.    330.    325.    361.    361.    345.
   379.    371.    360.    349.    345.    359.    363.    372.
   336.    364.    338.    359.    342.    375.    360.    314.
   344.    370.    357.    329.    365.    382.    343.    362.
   364.    377.    348.    355.    361.    385.    352.    389.
   353.    377.    389.    360.    355.    408.    389.    342.
   359.    370.    373.    390.    362.    360.    346.    341.
   362.    377.    384.    379.    365.    369.    365.    404.
   387.    373.    355.    335.    343.    378.    356.    357.
   371.    370.    357.    365.    412.    386.    372.    380.
   360.    369.    361.    353.    367.    372.    357.    392.
   355.    363.    382.    403.    383.    369.    389.    329.
   372.    386.    370.    369.    352.    367.    374.    366.
   374.    407.    360.    348.    390.    397.    357.    387.
   379.    379.    378.    349.    360.    374.    349.    373.
   383.    362.    392.    394.    359.    375.    406.    383.
   366.    368.    361.    327.    378.    337.    382.    399.
   384.    369.    363.    358.    388.    394.    392.    370.
   371.    374.    393.    397.    372.    394.    372.    346.
   385.    366.    383.    404.    403.    383.    386.    357.
   407.    404.    362.    381.    388.    355.    389.    353.
   378.    390.    363.    379.    410.    403.    406.    398.
   388.    371.    399.    398.    368.    393.    362.    372.
   393.    392.    414.    408.    399.    427.    351.    409.
   391.    408.    386.    435.    401.    382.    365.    398.
   383.    395.    370.    405.    403.    373.    360.    383.
   422.    400.    393.    390.    389.    425.    403.    403.
   416.    409.    400.    406.    401.    360.    392.    379.
   404.    414.    416.    375.    403.    402.    376.    392.
   375.    377.    389.    387.    365.    406.    400.    407.
   369.    402.    377.    408.    406.    401.    389.    388.
   380.    375.    389.    410.    406.    369.    367.    397.
   386.    372.    400.    369.    378.    374.    366.    394.
   401.    379.    357.    369.    384.    383.    390.    354.
   367.    385.    387.    357.    367.    329.    364.    375.
   374.    380.    389.    392.    352.    381.    361.    355.
   362.    368.    363.    309.    353.    364.    358.    362.
   351.    355.    331.    342.    332.    374.    356.    329.
   341.    358.    359.    359.    342.    343.    330.    378.
   369.    331.    348.    345.    375.    330.    360.    355.
   340.    344.    369.    372.    328.    340.    334.    331.
   379.    342.    341.    356.    335.    333.    354.    333.
   347.    377.    327.    347.    380.    356.    340.    343.
   363.    350.    357.    347.    330.    317.    310.    376.
   335.    350.    325.    362.    352.    360.    358.    355.
   354.    371.    360.    347.    354.    347.    335.    325.
   314.    351.    338.    366.    347.    346.    343.    341.
   315.    360.    339.    344.    332.    316.    338.    344.
   366.    349.    364.    366.    360.    367.    362.    351.
   375.    338.    364.    357.    356.    353.    355.    336.
   334.    372.    332.    355.    382.    325.    349.    364.
   349.    378.    369.    379.    361.    347.    353.    350.
   357.    350.    305.    367.    339.    372.    338.    358.
   361.    344.    345.    364.    338.    387.    369.    364.
   356.    361.    298.    366.    338.    330.    360.    358.
   362.    338.    338.    390.    368.    368.    373.    350.
   378.    393.    358.    348.    386.    374.    359.    396.
   349.    347.    376.    333.    356.    334.    380.    360.
   382.    372.    369.    374.    356.    388.    363.    350.
   375.    375.    389.    365.    379.    376.    380.    363.
   349.    376.    405.    381.    364.    346.    339.    382.
   391.    377.    364.    350.    371.    387.    358.    370.
   368.    370.    354.    372.    345.    353.    360.    371.
   357.    366.    356.    373.    372.    376.    352.    366.
   358.    377.    393.    399.    326.    364.    356.    373.
   374.    367.    358.    392.    376.    400.    372.    357.
   365.    376.    372.    383.    380.    365.    355.    340.
   355.    365.    380.    353.    351.    353.    402.    362.
   376.    341.    374.    351.    339.    381.    376.    358.
   384.    395.    358.    319.    377.    355.    357.    354.
   386.    362.    352.    355.    349.    373.    339.    371.
   350.    319.    330.    338.    353.    362.    325.    356.
   368.    359.    344.    369.    360.    339.    347.    348.
   368.    365.    352.    332.    341.    360.    353.    345.
   360.    346.    353.    345.    365.    345.    349.    344.
   333.    334.    339.    327.    342.    362.    353.    330.
   344.    323.    341.    339.    341.    333.    353.    356.
   332.    339.    344.    359.    331.    334.    334.    362.
   347.    322.    309.    374.    363.    335.    369.    363.
   337.    356.    353.    349.    357.    343.    333.    337.
   335.    352.    345.    329.    349.    355.    351.    324.
   359.    350.    327.    347.    337.    342.    337.    346.
   322.    348.    364.    354.    341.    341.    337.    345.
   331.    338.    346.    314.    351.    324.    348.    343.
   339.    330.    359.    352.    360.    340.    340.    366.
   325.    332.    325.    340.    349.    326.    326.    387.
   367.    324.    346.    324.    353.    347.    342.    347.
   329.    356.    356.    350.    343.    315.    336.    337.
   361.    315.    346.    331.    345.    336.    385.    341.
   332.    330.    319.    337.    324.    338.    356.    344.
   350.    343.    337.    383.    335.    306.    339.    319.
   341.    342.    335.    325.    344.    308.    331.    338.
   357.    339.    357.    353.    329.    337.    344.    329.
   326.    347.    323.    334.    317.    357.    342.    325.
   330.    357.    343.    359.    357.    342.    330.    344.
   341.    322.    346.    342.    346.    333.    321.    337.
   297.    337.    320.    344.    342.    326.    347.    368.
   331.    363.    340.    366.    332.    389.    350.    332.
   344.    330.    357.    353.    331.    348.    325.    357.
   357.    333.    353.    371.    362.    373.    330.    344.
   316.    361.    341.    326.    374.    374.    344.    349.
   352.    370.    360.    352.    345.    344.    368.    337.
   334.    353.    374.    407.    365.    386.    335.    340.
   335.    358.    361.    323.    350.    372.    352.    380.
   363.    338.    360.    363.    359.    371.    375.    354.
   335.    339.    349.    369.    339.    363.    374.    368.
   327.    350.    355.    385.    365.    374.    370.    388.
   364.    361.    351.    346.    345.    340.    350.    356.
   360.    342.    358.    379.    357.    342.    338.    363.
   344.    391.    351.    369.    358.    347.    352.    325.
   364.    397.    334.    345.    380.    348.    367.    351.
   373.    340.    362.    371.    368.    369.    380.    369.
   369.    368.    371.    345.    359.    350.    360.    346.
   350.    355.    380.    355.    375.    383.    360.    349.
   401.    352.    338.    367.    362.    370.    338.    342.
   350.    365.    375.    359.    359.    333.    370.    373.
   372.    364.    338.    347.    356.    348.    353.    324.
   370.    383.    378.    329.    341.    362.    360.    396.
   352.    354.    355.    379.    386.    326.    337.    350.
   384.    365.    353.    361.    343.    342.    343.    340.
   372.    368.    337.    369.    353.    401.    364.    395.
   376.    358.    378.    360.    353.    368.    359.    348.
   358.    394.    353.    353.    392.    351.    344.    340.
   364.    345.    348.    375.    357.    337.    386.    360.
   361.    373.    372.    356.    329.    310.    356.    371.
   348.    341.    352.    351.    342.    374.    348.    377.
   365.    363.    351.    360.    337.    357.    353.    353.
   344.    344.    329.    353.    337.    319.    344.    334.
   359.    362.    348.    364.    338.    345.    375.    364.
   351.    356.    377.    390.    361.    364.    330.    344.
   367.    365.    368.    345.    347.    361.    348.    361.
   344.    342.    370.    368.    350.    364.    360.    362.
   357.    331.    353.    376.    377.    369.    369.    366.
   374.    337.    386.    379.    428.    369.    369.    389.
   352.    377.    373.    371.    402.    361.    406.    375.
   329.    315.    391.    359.    342.    361.    383.    378.
   379.    385.    379.    349.    366.    407.    371.    349.
   367.    387.    369.    378.    378.    368.    335.    364.
   385.    361.    371.    378.    400.    363.    354.    363.
   403.    376.    381.    350.    366.    376.    358.    366.
   358.    349.    372.    376.    386.    343.    378.    359.
   372.    360.    385.    362.    343.    334.    325.    379.
   395.    335.    374.    357.    375.    332.    355.    374.
   349.    374.    386.    341.    369.    373.    338.    360.
   361.    369.    381.    322.    364.    361.    368.    367.
   361.    337.    332.    367.    393.    361.    375.    362.
   359.    353.    369.    346.    353.    362.    314.    325.
   361.    350.    344.    367.    346.    368.    354.    357.
   364.    342.    358.    336.    355.    376.    352.    357.
   373.    356.    371.    381.    354.    363.    353.    350.
   351.    379.    359.    340.    330.    357.    339.    338.
   348.    364.    330.    338.    354.    356.    349.    371.
   327.    348.    356.    321.    358.    345.    341.    354.
   339.    364.    356.    325.    330.    348.    354.    353.
   352.    334.    341.    317.    332.    339.    331.    329.
   317.    328.    322.    347.    335.    348.    325.    354.
   336.    329.    319.    331.    327.    340.    346.    327.
   352.    340.    336.    357.    347.    299.    314.    346.
   350.    333.    351.    321.    326.    362.    311.    346.
   330.    353.    329.    321.    332.    323.    309.    319.
   317.    352.    301.    339.    329.    320.    338.    338.
   316.    318.    320.    334.    314.    334.    322.    315.
   311.    333.    329.    307.    324.    323.    349.    334.
   310.    312.    344.    319.    330.    330.    333.    329.
   322.    317.    342.    330.    307.    300.    319.    295.
   335.    344.    322.    306.    310.    320.    289.    316.
   305.    310.    316.    327.    311.    283.    290.    329.
   317.    314.    303.    318.    316.    306.    334.    327.
   316.    283.    299.    290.    317.    331.    317.    317.
   305.    315.    310.    291.    328.    316.    315.    317.
   336.    304.    316.    301.    328.    299.    301.    302.
   295.    300.    304.    308.    298.    311.    317.    314.
   338.    293.    317.    285.    309.    310.    324.    303.
   334.    318.    308.    304.    332.    333.    326.    300.
   285.    301.    291.    300.    308.    313.    332.    316.
   318.    300.    334.    343.    302.    313.    338.    289.
   313.    309.    321.    315.    284.    311.    328.    320.
   336.    314.    315.    323.    311.    314.    296.    340.
   321.    302.    291.    311.    314.    312.    294.    310.
   316.    330.    283.    304.    311.    322.    307.    298.
   314.    292.    301.    316.    318.    317.    347.    334.
   326.    345.    339.    328.    305.    304.    329.    337.
   320.    310.    333.    322.    337.    329.    314.    319.
   315.    299.    312.    351.    317.    338.    328.    335.
   328.    319.    337.    315.    314.    349.    363.    305.
   311.    323.    358.    338.    319.    298.    311.    327.
   312.    313.    354.    321.    317.    348.    349.    339.
   318.    303.    331.    314.    339.    305.    351.    350.
   331.    365.    343.    313.    327.    332.    338.    355.
   301.    314.    317.    303.    330.    312.    305.    313.
   348.    333.    329.    344.    330.    338.    341.    333.
   319.    350.    339.    322.    328.    314.    307.    318.
   329.    313.    338.    333.    303.    311.    293.    305.
   307.    317.    315.    346.    350.    327.    324.    314.
   332.    311.    334.    308.    311.    341.    308.    318.
   340.    335.    322.    319.    322.    321.    318.    323.
   324.    306.    341.    341.    325.    359.    302.    318.
   324.    348.    338.    327.    310.    327.    305.    348.
   359.    316.    319.    329.    329.    321.    326.    330.
   321.    307.    334.    313.    309.    315.    319.    324.
   307.    294.    311.    349.    322.    324.    329.    330.
   317.    312.    323.    312.    317.    337.    333.    320.
   351.    319.    310.    296.    334.    305.    313.    333.
   297.    287.    331.    330.    308.    301.    336.    350.
   335.    323.    323.    310.    313.    314.    291.    320.
   330.    324.    341.    316.    318.    311.    337.    318.
   343.    322.    317.    331.    319.    356.    321.    326.
   323.    355.    310.    341.    326.    344.    300.    298.
   319.    312.    320.    367.    338.    319.    336.    351.
   337.    307.    347.    337.    300.    332.    309.    299.
   303.    320.    322.    323.    341.    328.    333.    334.
   313.    343.    328.    317.    332.    350.    318.    338.
   331.    344.    325.    357.    342.    302.    313.    327.
   332.    326.    346.    308.    320.    312.    337.    342.
   319.    339.    337.    329.    320.    333.    316.    307.
   298.    312.    346.    347.    306.    275.    308.    342.
   310.    331.    310.    333.    345.    319.    326.    322.
   341.    335.    350.    345.    318.    326.    325.    319.
   343.    348.    343.    338.    326.    337.    328.    316.
   312.    327.    341.    328.    312.    308.    312.    330.
   311.    319.    328.    335.    335.    333.    315.    314.
   335.    327.    295.    288.    351.    317.    317.    361.
   324.    342.    323.    318.    350.    323.    327.    340.
   339.    339.    331.    324.    314.    358.    327.    307.
   319.    321.    300.    317.    317.    327.    296.    325.
   336.    353.    319.    315.    312.    357.    315.    329.
   328.    341.    341.    324.    312.    319.    345.    345.
   327.    327.    298.    283.    329.    327.    315.    334.
   310.    320.    343.    318.    311.    327.    342.    334.
   307.    296.    311.    321.    336.    319.    309.    297.
   348.    318.    317.    305.    314.    312.    335.    324.
   296.    310.    327.    330.    326.    319.    316.    328.
   338.    308.    327.    338.    341.    320.    339.    346.
   333.    333.    323.    355.    319.    327.    340.    318.
   329.    310.    288.    344.    348.    320.    335.    303.
   317.    316.    334.    342.    350.    350.    304.    328.
   320.    339.    316.    338.    345.    348.    324.    346.
   293.    335.    326.    319.    328.    331.    343.    349.
   351.    344.    349.    340.    370.    341.    372.    330.
   329.    371.    317.    325.    309.    327.    320.    316.
   322.    346.    335.    337.    326.    313.    314.    317.
   347.    339.    351.    356.    366.    335.    369.    337.
   323.    347.    321.    311.    333.    333.    354.    356.
   329.    330.    364.    326.    322.    322.    342.    325.
   336.    309.    342.    369.    351.    325.    354.    350.
   344.    358.    327.    331.    341.    366.    362.    356.
   361.    369.    351.    351.    343.    353.    345.    329.
   354.    322.    359.    356.    325.    332.    335.    374.
   332.    352.    347.    365.    382.    358.    366.    340.
   368.    365.    346.    371.    340.    324.    382.    351.
   347.    344.    373.    375.    355.    332.    338.    338.
   348.    334.    336.    360.    372.    352.    326.    340.
   350.    374.    329.    367.    362.    341.    361.    361.
   366.    347.    321.    350.    350.    341.    348.    341.
   332.    334.    320.    367.    348.    349.    360.    376.
   341.    344.    365.    333.    345.    356.    343.    339.
   333.    335.    342.    333.    349.    347.    367.    368.
   354.    335.    348.    335.    377.    341.    356.    329.
   339.    345.    377.    338.    340.    338.    321.    336.
   365.    378.    349.    327.    335.    372.    360.    357.
   343.    339.    377.    345.    350.    329.    331.    379.
   344.    342.    350.    341.    347.    337.    340.    360.
   356.    340.    370.    349.    325.    334.    354.    357.
   362.    371.    363.    353.    368.    353.    355.    337.
   350.    353.    338.    348.    342.    354.    355.    321.
   365.    343.    362.    364.    382.    324.    333.    364.
   354.    346.    347.    366.    341.    316.    349.    332.
   356.    364.    355.    350.    353.    346.    352.    345.
   361.    341.    364.    364.    356.    371.    358.    341.
   338.    330.    374.    355.    339.    346.    345.    357.
   368.    357.    337.    325.    338.    365.    347.    321.
   359.    350.    332.    371.    366.    341.    340.    329.
   335.    356.    353.    343.    336.    385.    360.    338.
   354.    342.    345.    353.    331.    370.    331.    344.
   360.    326.    361.    369.    343.    355.    339.    356.
   340.    332.    334.    341.    335.    338.    341.    347.
   337.    326.    353.    383.    342.    355.    352.    318.
   346.    353.    336.    328.    368.    348.    359.    364.
   328.    340.    335.    359.    363.    348.    348.    371.
   352.    343.    350.    326.    361.    325.    371.    348.
   346.    343.    363.    360.    349.    332.    313.    344.
   340.    333.    338.    339.    378.    322.    345.    336.
   350.    331.    346.    347.    334.    320.    300.    318.
   346.    357.    362.    322.    343.    309.    331.    349.
   328.    346.    357.    333.    318.    327.    338.    333.
   332.    339.    333.    310.    343.    338.    334.    336.
   331.    338.    335.    358.    343.    351.    338.    330.
   324.    362.    332.    342.    318.    316.    322.    334.
   342.    329.    317.    332.    338.    345.    352.    353.
   325.    337.    331.    342.    326.    327.    338.    359.
   302.    329.    315.    338.    358.    343.    322.    348.
   320.    310.    322.    305.    330.    332.    339.    343.
   319.    310.    311.    321.    319.    329.    328.    313.
   320.    337.    320.    319.    329.    326.    327.    306.
   366.    328.    326.    329.    334.    340.    334.    341.
   309.    309.    309.    317.    319.    344.    337.    318.
   297.    320.    302.    310.    347.    317.    302.    335.
   312.    289.    290.    314.    307.    330.    326.    291.
   326.    342.    332.    342.    311.    332.    311.    306.
   331.    359.    316.    303.    317.    319.    317.    318.
   289.    307.    342.    298.    292.    299.    337.    324.
   324.    308.    330.    322.    320.    293.    318.    311.
   318.    277.    327.    312.    328.    329.    317.    326.
   301.    313.    332.    306.    314.    304.    303.    295.
   338.    344.    312.    315.    296.    301.    325.    320.
   292.    314.    335.    332.    323.    288.    300.    349.
   306.    299.    317.    277.    330.    311.    265.    333.
   298.    304.    308.    331.    308.    295.    296.    308.
   320.    322.    308.    297.    267.    325.    310.    323.
   349.    303.    297.    305.    310.    319.    338.    309.
   321.    318.    332.    299.    353.    305.    323.    301.
   334.    314.    322.    315.    285.    327.    298.    293.
   302.    325.    326.    330.    327.    321.    310.    306.
   334.    302.    303.    328.    291.    315.    332.    316.
   326.    338.    310.    299.    318.    315.    306.    330.
   299.    309.    353.    342.    289.    324.    330.    308.
   294.    305.    279.    341.    308.    306.    308.    312.
   325.    333.    295.    309.    307.    316.    309.    305.
   311.    306.    320.    316.    323.    296.    288.    310.
   311.    325.    310.    312.    312.    316.    302.    303.
   320.    299.    315.    322.    344.    284.    316.    320.
   315.    285.    290.    313.    321.    310.    290.    315.
   323.    331.    313.    331.    308.    299.    305.    267.
   306.    312.    312.    285.    326.    301.    302.    305.
   298.    300.    297.    325.    318.    322.    289.    317.
   308.    316.    313.    336.    305.    290.    295.    293.
   302.    292.    306.    317.    303.    324.    301.    304.
   305.    306.    334.    282.    339.    306.    315.    307.
   298.    303.    319.    317.    289.    300.    303.    291.
   280.    336.    309.    316.    308.    302.    315.    311.
   307.    284.    298.    296.    305.    306.    297.    294.
   318.    296.    294.    328.    318.    298.    312.    297.
   311.    305.    292.    329.    328.    300.    310.    312.
   302.    311.    310.    329.    309.    317.    343.    311.
   311.    305.    321.    303.    301.    317.    309.    314.
   315.    338.    291.    322.    311.    303.    294.    321.
   304.    329.    316.    342.    315.    334.    337.    344.
   311.    341.    317.    294.    318.    324.    352.    332.
   315.    327.    332.    343.    354.    317.    312.    343.
   351.    350.    305.    326.    313.    349.    314.    347.
   315.    315.    340.    365.    348.    348.    320.    333.
   321.    345.    366.    332.    338.    332.    357.    362.
   335.    326.    350.    329.    337.    344.    309.    335.
   339.    367.    325.    353.    341.    353.    351.    337.
   331.    328.    349.    388.    354.    372.    340.    356.
   359.    331.    308.    366.    351.    358.    318.    350.
   322.    344.    379.    351.    335.    331.    358.    375.
   384.    381.    342.    354.    353.    369.    350.    351.
   371.    348.    344.    350.    363.    359.    357.    344.
   354.    358.    332.    372.    358.    350.    348.    371.
   358.    351.    341.    356.    372.    345.    398.    362.
   357.    323.    367.    347.    358.    334.    382.    348.
   369.    333.    341.    346.    342.    350.    364.    372.
   352.    365.    355.    380.    355.    353.    341.    347.
   370.    352.    357.    348.    370.    354.    358.    367.
   359.    344.    343.    355.    374.    355.    376.    343.
   324.    321.    358.    340.    345.    363.    335.    350.
   346.    332.    366.    366.    326.    328.    326.    343.
   349.    356.    341.    342.    343.    327.    332.    367.
   354.    348.    350.    353.    324.    333.    313.    352.
   345.    355.    326.    333.    366.    323.    343.    356.
   371.    355.    305.    325.    360.    333.    342.    350.
   363.    318.    322.    361.    360.    362.    339.    356.
   365.    314.    311.    347.    333.    328.    350.    340.
   334.    323.    338.    334.    320.    342.    313.    296.
   307.    346.    306.    324.    324.    341.    349.    364.
   321.    336.    364.    313.    314.    318.    289.    325.
   321.    322.    334.    326.    352.    340.    328.    327.
   329.    325.    336.    333.    328.    325.    347.    337.
   295.    296.    318.    313.    305.    349.    341.    307.
   320.    330.    337.    317.    315.    343.    351.    304.
   339.    317.    324.    301.    295.    329.    323.    301.
   316.    301.    303.    341.    318.    312.    319.    323.
   331.    311.    323.    349.    308.    327.    323.    318.
   313.    328.    351.    322.    314.    326.    317.    325.
   332.    313.    329.    319.    324.    316.    325.    328.
   303.    331.    321.    297.    301.    317.    307.    288.
   337.    321.    324.    326.    286.    321.    304.    321.
   316.    279.    283.    330.    330.    327.    280.    315.
   313.    325.    315.    328.    313.    335.    309.    315.
   291.    308.    288.    288.    322.    301.    325.    319.
   306.    322.    325.    316.    304.    311.    322.    300.
   292.    327.    310.    311.    323.    315.    319.    306.
   293.    318.    311.    274.    306.    315.    309.    322.
   297.    326.    311.    321.    325.    297.    311.    325.
   316.    300.    311.    324.    316.    286.    303.    320.
   291.    329.    285.    267.    301.    295.    301.    304.
   286.    291.    306.    302.    286.    321.    295.    295.
   291.    290.    321.    310.    284.    288.    289.    309.
   304.    304.    305.    302.    350.    323.    316.    316.
   299.    318.    318.    292.    324.    292.    309.    337.
   290.    283.    284.    296.    296.    330.    287.    290.
   327.    321.    302.    273.    305.    310.    325.    293.
   293.    302.    307.    293.    285.    292.    287.    293.
   295.    288.    316.    317.    297.    272.    301.    330.
   303.    312.    291.    319.    300.    316.    313.    284.
   302.    308.    314.    302.    295.    296.    298.    323.
   325.    292.    311.    312.    302.    300.    310.    289.
   284.    313.    314.    287.    313.    302.    311.    290.
   299.    297.    282.    307.    310.    296.    297.    320.
   305.    295.    330.    323.    336.    329.    301.    323.
   305.    312.    316.    321.    332.    321.    304.    300.
   304.    321.    305.    324.    273.    287.    290.    308.
   286.    309.    300.    318.    309.    293.    327.    293.
   319.    282.    321.    287.    320.    307.    333.    283.
   315.    326.    308.    316.    339.    306.    305.    321.
   314.    321.    306.    318.    290.    295.    274.    304.
   331.    307.    350.    306.    319.    329.    315.    319.
   317.    325.    333.    291.    323.    309.    325.    327.
   294.    300.    319.    319.    324.    315.    302.    292.
   296.    302.    292.    341.    326.    345.    327.    315.
   331.    324.    344.    293.    337.    334.    326.    302.
   332.    319.    342.    320.    315.    329.    300.    311.
   334.    327.    319.    313.    320.    321.    297.    306.
   309.    342.    337.    335.    308.    317.    332.    352.
   315.    344.    314.    328.    339.    348.    305.    327.
   336.    291.    315.    309.    343.    330.    336.    318.
   341.    316.    315.    332.    326.    321.    315.    333.
   301.    330.    328.    336.    337.    309.    339.    340.
   321.    336.    293.    308.    328.    328.    329.    303.
   295.    319.    321.    322.    339.    340.    318.    320.
   345.    328.    311.    344.    321.    335.    328.    319.
   311.    344.    342.    337.    321.    327.    322.    304.
   321.    324.    302.    327.    340.    331.    316.    345.
   341.    326.    317.    312.    347.    325.    319.    325.
   332.    336.    307.    314.    298.    302.    327.    321.
   310.    304.    325.    319.    316.    303.    317.    290.
   299.    303.    295.    321.    310.    319.    322.    310.
   319.    306.    360.    333.    320.    332.    283.    312.
   315.    315.    310.    302.    325.    319.    314.    299.
   335.    302.    306.    341.    302.    341.    315.    339.
   309.    312.    316.    290.    310.    322.    306.    312.
   307.    319.    306.    330.    325.    320.    328.    331.
   320.    341.    318.    312.    299.    299.    315.    296.
   335.    289.    348.    336.    322.    310.    295.    309.
   335.    295.    297.    329.    318.    311.    328.    321.
   313.    331.    345.    296.    312.    280.    292.    318.
   283.    311.    303.    336.    329.    336.    308.    308.
   301.    338.    310.    310.    325.    335.    317.    310.
   333.    289.    313.    311.    330.    327.    326.    328.
   312.    321.    313.    327.    335.    305.    288.    305.
   317.    331.    330.    332.    326.    315.    336.    316.
   293.    333.    311.    305.    284.    306.    315.    344.
   317.    324.    314.    303.    330.    292.    302.    285.
   340.    296.    321.    323.    337.    341.    325.    329.
   316.    343.    321.    307.    317.    310.    330.    320.
   326.    351.    334.    339.    307.    339.    351.    318.
   336.    348.    353.    316.    364.    324.    320.    336.
   335.    339.    334.    343.    307.    342.    344.    341.
   319.    345.    328.    334.    341.    317.    314.    332.
   341.    313.    334.    329.    315.    340.    349.    339.
   319.    356.    324.    320.    298.    314.    338.    313.
   329.    335.    298.    310.    305.    321.    309.    303.
   304.    306.    323.    345.    326.    351.    301.    303.
   325.    303.    302.    316.    340.    336.    295.    298.
   327.    325.    306.    323.    301.    290.    294.    318.
   322.    283.    317.    325.    319.    323.    323.    342.
   309.    319.    332.    309.    292.    336.    300.    329.
   317.    319.    306.    289.    319.    313.    306.    311.
   297.    281.    322.    289.    305.    307.    302.    303.
   323.    314.    345.    321.    306.    305.    327.    315.
   335.    301.    319.    309.    314.    323.    270.    308.
   293.    299.    322.    316.    304.    324.    323.    293.
   302.    306.    311.    332.    339.    303.    316.    309.
   314.    304.    321.    313.    320.    314.    305.    338.
   318.    321.    313.    272.    323.    303.    301.    290.
   304.    327.    310.    310.    305.    302.    299.    304.
   310.    313.    320.    305.    328.    302.    319.    311.
   315.    309.    312.    325.    311.    315.    318.    321.
   315.    303.    295.    301.    318.    318.    325.    285.
   296.    302.    314.    317.    323.    308.    314.    326.
   305.    312.    321.    332.    298.    316.    309.    307.
   296.    303.    329.    321.    324.    309.    335.    337.
   314.    316.    305.    317.    322.    333.    334.    318.
   308.    309.    315.    314.    321.    318.    333.    315.
   305.    333.    319.    334.    333.    300.    323.    315.
   311.    337.    308.    310.    333.    306.    330.    329.
   322.    325.    332.    314.    352.    340.    327.    350.
   333.    337.    344.    323.    329.    316.    323.    352.
   332.    377.    356.    343.    336.    310.    379.    347.
   343.    317.    314.    327.    327.    314.    326.    309.
   322.    323.    354.    351.    337.    344.    337.    323.
   306.    335.    332.    359.    321.    320.    327.    324.
   336.    334.    343.    313.    361.    358.    332.    331.
   330.    339.    315.    328.    307.    347.    343.    333.
   316.    341.    317.    341.    335.    343.    332.    325.
   339.    333.    320.    336.    330.    328.    318.    319.
   345.    367.    348.    349.    326.    335.    339.    305.
   356.    348.    319.    347.    331.    318.    343.    333.
   353.    331.    337.    321.    314.    307.    351.    335.
   334.    315.    355.    322.    302.    356.    326.    309.
   315.    301.    314.    340.    347.    380.    335.    320.
   334.    321.    336.    335.    319.    296.    335.    318.
   336.    345.    322.    344.    326.    340.    334.    322.
   320.    320.    351.    349.    318.    323.    319.    337.
   320.    329.    323.    312.    341.    335.    331.    332.
   317.    285.    288.    340.    320.    323.    317.    306.
   342.    310.    315.    339.    313.    341.    331.    307.
   332.    310.    315.    305.    324.    335.    338.    332.
   341.    342.    328.    295.    346.    331.    319.    316.
   321.    303.    330.    319.    324.    332.    316.    298.
   343.    321.    337.    336.    339.    288.    321.    324.
   327.    316.    324.    322.    302.    317.    316.    335.
   309.    307.    328.    328.    307.    316.    320.    339.
   294.    309.    317.    322.    329.    342.    312.    344.
   329.    318.    347.    304.    298.    304.    300.    323.
   325.    335.    349.    307.    304.    322.    332.    317.
   318.    311.    319.    312.    313.    303.    310.    307.
   347.    315.    297.    315.    318.    323.    335.    331.
   287.    292.    318.    307.    310.    314.    319.    325.
   314.    318.    331.    326.    335.    333.    298.    325.
   327.    305.    333.    304.    307.    326.    326.    302.
   327.    315.    327.    323.    311.    301.    319.    310.
   284.    317.    330.    341.    281.    327.    333.    320.
   304.    324.    314.    331.    330.    325.    318.    330.
   345.    341.    341.    293.    327.    352.    332.    325.
   304.    329.    336.    336.    312.    310.    310.    314.
   304.    316.    334.    321.    328.    324.    309.    355.
   321.    357.    316.    317.    343.    308.    323.    327.
   333.    343.    333.    331.    300.    319.    342.    341.
   321.    350.    332.    315.    343.    310.    309.    335.
   325.    333.    325.    329.    349.    333.    317.    293.
   335.    305.    335.    323.    330.    321.    314.    337.
   326.    334.    313.    306.    326.    339.    314.    308.
   327.    339.    342.    332.    315.    318.    306.    304.
   301.    304.    320.    325.    339.    332.    301.    328.
   338.    334.    298.    324.    329.    349.    324.    334.
   315.    319.    309.    299.    345.    306.    306.    321.
   314.    325.    327.    320.    316.    338.    335.    312.
   313.    331.    322.    330.    311.    333.    298.    321.
   311.    305.    322.    301.    297.    303.    352.    289.
   311.    290.    309.    335.    331.    318.    322.    314.
   294.    321.    300.    322.    322.    301.    331.    294.
   322.    290.    279.    332.    314.    297.    309.    334.
   305.    290.    313.    322.    311.    314.    322.    308.
   319.    323.    335.    336.    332.    301.    313.    273.
   291.    314.    323.    324.    296.    294.    341.    319.
   337.    326.    314.    308.    322.    321.    317.    326.
   325.    319.    351.    327.    311.    290.    322.    303.
   294.    355.    327.    332.    316.    326.    326.    299.
   315.    315.    302.    309.    325.    317.    278.    300.
   306.    325.    295.    306.    301.    309.    322.    316.
   289.    294.    330.    302.    318.    310.    330.    328.
   334.    312.    324.    341.    335.    307.    305.    330.
   283.    311.    300.    305.    297.    324.    314.    314.
   319.    297.    303.    337.    335.    322.    321.    341.
   308.    299.    315.    306.    327.    299.    318.    308.
   297.    334.    301.    276.    327.    300.    315.    322.
   322.    320.    283.    353.    322.    306.    278.    297.
   328.    330.    310.    294.    346.    330.    324.    325.
   291.    295.    319.    311.    326.    302.    302.    310.
   311.    306.    322.    341.    317.    349.    326.    300.
   327.    333.    326.    328.    317.    307.    297.    341.
   316.    288.    316.    294.    305.    329.    303.    313.
   356.    308.    370.    330.    330.    310.    308.    324.
   329.    343.    336.    336.    330.    322.    324.    312.
   326.    321.    341.    321.    313.    327.    324.    311.
   327.    318.    314.    327.    299.    367.    323.    288.
   340.    343.    314.    311.    298.    348.    330.    299.
   300.    317.    355.    353.    310.    332.    320.    322.
   307.    320.    345.    325.    315.    358.    343.    317.
   325.    331.    302.    334.    344.    343.    359.    313.
   316.    308.    329.    352.    338.    331.    350.    326.
   296.    332.    334.    315.    342.    336.    328.    335.
   343.    339.    317.    322.    343.    323.    314.    316.
   314.    330.    318.    330.    321.    340.    380.    340.
   349.    323.    385.    330.    298.    321.    314.    321.
   330.    304.    331.    371.    320.    312.    344.    309.
   342.    336.    285.    327.    312.    327.    321.    334.
   347.    322.    331.    311.    338.    338.    321.    318.
   334.    333.    344.    310.    336.    306.    315.    340.
   358.    318.    305.    316.    315.    307.    330.    289.
   331.    334.    319.    336.    333.    300.    293.    317.
   351.    346.    293.    315.    327.    333.    316.    358.
   319.    349.    323.    310.    292.    312.    318.    341.
   346.    309.    309.    313.    340.    343.    301.    321.
   320.    355.    329.    313.    319.    338.    341.    301.
   349.    342.    318.    326.    322.    310.    307.    311.
   295.    279.    308.    284.    289.    297.    289.    299.
   315.    294.    307.    311.    284.    322.    294.    313.
   308.    296.    318.    307.    340.    301.    312.    299.
   314.    298.    334.    291.    302.    320.    307.    334.
   304.    310.    305.    309.    306.    304.    285.    300.
   321.    290.    304.    305.    330.    327.    312.    292.
   304.    287.    309.    295.    311.    310.    318.    278.
   291.    296.    294.    315.    304.    281.    308.    326.
   317.    322.    282.    309.    291.    285.    320.    311.
   313.    327.    313.    272.    305.    308.    334.    312.
   307.    288.    289.    301.    325.    317.    302.    292.
   286.    306.    282.    305.    292.    295.    285.    298.
   310.    299.    300.    290.    287.    318.    299.    290.
   292.    297.    299.    298.    302.    309.    303.    288.
   282.    286.    301.    289.    268.    280.    293.    285.
   296.    300.    278.    264.    290.    292.    277.    306.
   303.    280.    306.    305.    277.    288.    302.    297.
   287.    267.    294.    265.    310.    289.    295.    298.
   292.    285.    293.    287.    272.    273.    294.    279.
   282.    316.    297.    320.    273.    278.    325.    294.
   309.    289.    314.    313.    311.    299.    273.    284.
   283.    291.    281.    293.    269.    286.    279.    256.
   274.    290.    272.    292.    281.    289.    283.    267.
   295.    289.    279.    291.    278.    291.    287.    289.
   254.    289.    292.    286.    261.    285.    295.    270.
   286.    309.    298.    267.    278.    294.    289.    292.
   291.    290.    308.    280.    292.    286.    281.    306.
   255.    298.    294.    289.    276.    283.    286.    276.
   306.    309.    300.    298.    294.    299.    296.    278.
   304.    302.    307.    246.    286.    292.    295.    312.
   300.    258.    272.    283.    274.    289.    282.    292.
   263.    281.    302.    294.    305.    285.    300.    297.
   311.    287.    299.    314.    289.    285.    288.    294.
   273.    336.    280.    303.    290.    283.    278.    311.
   290.    280.    288.    294.    297.    298.    272.    289.
   302.    284.    295.    273.    288.    306.    292.    291.
   295.    332.    290.    307.    306.    283.    298.    310.
   298.    289.    288.    307.    276.    303.    270.    299.
   294.    305.    317.    270.    293.    302.    294.    300.
   284.    316.    316.    302.    305.    306.    269.    301.
   289.    291.    318.    296.    306.    305.    294.    274.
   305.    289.    312.    328.    327.    287.    300.    289.
   284.    310.    280.    314.    285.    286.    286.    320.
   275.    320.    308.    302.    303.    301.    293.    306.
   296.    306.    314.    301.    327.    320.    320.    286.
   282.    314.    311.    311.    321.    310.    316.    314.
   276.    304.    300.    310.    315.    307.    293.    316.
   319.    291.    323.    296.    292.    321.    299.    301.
   319.    295.    315.    293.    303.    311.    298.    297.
   288.    303.    306.    267.    312.    295.    316.    324.
   291.    314.    331.    309.    309.    322.    348.    302.
   298.    329.    317.    310.    302.    307.    315.    290.
   307.    334.    298.    314.    301.    321.    324.    303.
   350.    304.    312.    328.    310.    309.    296.    294.
   338.    304.    332.    322.    304.    308.    291.    341.
   289.    306.    296.    328.    330.    316.    317.    310.
   320.    312.    318.    313.    306.    321.    293.    335.
   308.    317.    322.    323.    314.    314.    291.    313.
   329.    304.    334.    300.    299.    322.    330.    319.
   334.    324.    313.    322.    305.    300.    319.    325.
   314.    294.    305.    314.    321.    332.    345.    322.
   312.    330.    340.    343.    297.    315.    320.    307.
   320.    344.    318.    325.    306.    323.    325.    326.
   309.    314.    327.    350.    321.    345.    340.    323.
   309.    318.    325.    339.    344.    338.    319.    327.
   307.    320.    325.    335.    334.    342.    333.    352.
   331.    318.    322.    330.    344.    328.    360.    348.
   329.    346.    337.    312.    318.    318.    349.    357.
   342.    350.    340.    347.    335.    317.    328.    345.
   331.    325.    317.    362.    354.    326.    330.    352.
   342.    353.    325.    340.    336.    296.    334.    340.
   291.    341.    326.    328.    324.    344.    329.    334.
   346.    307.    334.    329.    312.    335.    331.    332.
   333.    318.    351.    328.    361.    314.    334.    338.
   338.    330.    335.    328.    336.    339.    302.    279.
   312.    326.    330.    307.    355.    333.    343.    319.
   339.    337.    323.    324.    344.    316.    322.    304.
   344.    347.    338.    317.    327.    336.    315.    300.
   329.    290.    357.    334.    314.    331.    331.    338.
   319.    349.    320.    336.    353.    289.    296.    327.
   302.    338.    318.    309.    311.    290.    302.    334.
   289.    294.    331.    335.    329.    324.    304.    315.
   297.    313.    324.    311.    328.    322.    296.    314.
   318.    303.    309.    307.    301.    324.    278.    290.
   291.    298.    326.    335.    304.    297.    296.    272.
   311.    293.    332.    302.    299.    321.    307.    300.
   301.    310.    294.    300.    297.    301.    321.    328.
   323.    319.    286.    301.    321.    312.    314.    273.
   305.    294.    286.    313.    276.    293.    309.    299.
   282.    292.    320.    316.    314.    308.    273.    280.
   284.    296.    339.    287.    281.    306.    303.    287.
   308.    293.    304.    321.    278.    288.    284.    289.
   284.    298.    310.    285.    286.    315.    314.    320.
   312.    309.    300.    343.    312.    293.    271.    288.
   298.    296.    276.    301.    303.    312.    319.    302.
   320.    311.    297.    316.    332.    294.    301.    320.
   299.    304.    310.    317.    301.    302.    288.    293.
   308.    318.    318.    329.    285.    298.    291.    294.
   305.    298.    321.    316.    278.    281.    282.    299.
   297.    314.    316.    300.    269.    293.    314.    295.
   327.    295.    318.    308.    328.    295.    326.    307.
   303.    294.    291.    308.    327.    294.    314.    334.
   312.    311.    308.    290.    287.    322.    323.    303.
   318.    312.    305.    320.    308.    334.    305.    327.
   355.    289.    315.    326.    315.    289.    325.    323.
   305.    308.    315.    320.    309.    316.    346.    285.
   318.    308.    319.    327.    354.    324.    315.    331.
   306.    304.    305.    361.    329.    323.    338.    317.
   320.    337.    297.    303.    307.    333.    313.    322.
   361.    321.    346.    327.    329.    291.    295.    315.
   318.    333.    320.    314.    303.    316.    367.    363.
   345.    327.    341.    332.    300.    344.    311.    327.
   358.    325.    330.    298.    304.    309.    289.    339.
   342.    339.    306.    318.    308.    323.    333.    328.
   321.    325.    335.    344.    325.    317.    335.    335.
   325.    321.    332.    312.    317.    333.    336.    304.
   313.    319.    330.    338.    338.    358.    339.    315.
   324.    303.    326.    333.    322.    317.    332.    326.
   315.    324.    335.    318.    336.    326.    329.    333.
   306.    283.    300.    301.    316.    319.    319.    345.
   316.    332.    335.    305.    337.    330.    353.    327.
   319.    330.    310.    327.    328.    306.    315.    309.
   295.    310.    305.    315.    311.    308.    298.    340.
   282.    315.    305.    320.    295.    327.    312.    319.
   294.    321.    324.    317.    324.    305.    348.    309.
   312.    293.    331.    327.    312.    310.    344.    332.
   312.    325.    306.    294.    305.    302.    316.    336.
   299.    294.    334.    296.    304.    292.    296.    305.
   313.    342.    322.    310.    306.    313.    308.    296.
   311.    283.    315.    277.    325.    293.    307.    332.
   289.    309.    304.    302.    295.    315.    310.    275.
   311.    340.    273.    285.    307.    314.    309.    312.
   283.    293.    314.    294.    306.    321.    287.    325.
   328.    299.    299.    306.    297.    310.    310.    295.
   303.    323.    305.    288.    302.    292.    283.    310.
   329.    311.    297.    314.    308.    304.    299.    318.
   322.    306.    316.    310.    330.    301.    300.    304.
   309.    330.    298.    325.    278.    306.    308.    285.
   312.    305.    292.    305.    330.    317.    338.    308.
   284.    331.    314.    322.    336.    313.    296.    326.
   318.    331.    302.    311.    338.    326.    307.    317.
   331.    314.    307.    295.    314.    324.    309.    307.
   277.    317.    321.    310.    337.    311.    330.    323.
   318.    303.    341.    321.    346.    307.    300.    330.
   316.    340.    336.    307.    326.    331.    302.    305.
   308.    344.    320.    323.    316.    316.    340.    337.
   305.    325.    297.    319.    317.    331.    350.    338.
   307.    285.    330.    336.    302.    316.    306.    277.
   299.    305.    311.    307.    325.    301.    318.    328.
   319.    300.    334.    300.    325.    327.    307.    298.
   300.    321.    312.    308.    335.    310.    335.    308.
   318.    308.    304.    321.    314.    317.    309.    345.
   325.    302.    330.    343.    329.    327.    319.    310.
   320.    308.    305.    309.    300.    307.    322.    304.
   322.    323.    342.    314.    332.    314.    302.    330.
   328.    290.    315.    322.    319.    322.    322.    323.
   321.    307.    314.    283.    303.    315.    316.    313.
   337.    323.    303.    317.    294.    313.    331.    323.
   303.    342.    323.    323.    316.    306.    340.    303.
   300.    293.    314.    321.    338.    332.    330.    326.
   325.    319.    312.    328.    320.    314.    312.    292.
   297.    318.    320.    297.    312.    323.    319.    324.
   313.    336.    362.    324.    303.    293.    337.    321.
   342.    312.    313.    311.    311.    313.    302.    330.
   322.    318.    330.    330.    300.    330.    318.    329.
   311.    312.    310.    297.    306.    308.    300.    323.
   319.    294.    313.    312.    299.    314.    306.    323.
   296.    286.    278.    299.    309.    323.    348.    300.
   301.    320.    303.    309.    307.    286.    321.    283.
   334.    300.    331.    347.    312.    333.    305.    313.
   319.    287.    288.    305.    310.    351.    308.    300.
   314.    324.    316.    275.    310.    312.    300.    316.
   302.    338.    293.    326.    323.    307.    338.    320.
   312.    352.    327.    308.    306.    319.    314.    347.
   323.    308.    309.    299.    322.    345.    324.    304.
   326.    327.    308.    340.    328.    324.    333.    308.
   301.    339.    313.    300.    316.    309.    346.    336.
   296.    339.    298.    320.    324.    312.    333.    311.
   318.    303.    292.    302.    310.    327.    335.    324.
   337.    326.    308.    292.    311.    294.    326.    307.
   318.    319.    314.    293.    316.    292.    323.    346.
   314.    316.    304.    335.    336.    339.    338.    345.
   327.    331.    339.    332.    311.    331.    330.    297.
   302.    310.    326.    324.    341.    329.    295.    331.
   313.    345.    326.    320.    305.    310.    319.    334.
   326.    332.    349.    297.    314.    356.    340.    330.
   287.    328.    353.    304.    330.    336.    340.    299.
   342.    317.    296.    336.    330.    339.    331.    347.
   312.    316.    343.    306.    311.    295.    316.    305.
   332.    339.    326.    323.    325.    329.    328.    333.
   301.    289.    314.    330.    323.    313.    357.    332.
   360.    327.    297.    314.    330.    322.    300.    341.
   341.    346.    318.    334.    329.    330.    343.    343.
   342.    327.    318.    323.    325.    306.    332.    318.
   344.    346.    309.    330.    319.    323.    336.    318.
   319.    343.    329.    347.    340.    339.    324.    315.
   336.    340.    349.    328.    330.    336.    332.    346.
   345.    291.    330.    333.    354.    345.    339.    316.
   305.    319.    342.    327.    334.    346.    338.    354.
   333.    332.    331.    312.    345.    355.    349.    335.
   312.    345.    356.    353.    341.    335.    335.    337.
   336.    307.    339.    321.    327.    342.    340.    341.
   326.    336.    319.    360.    359.    328.    342.    342.
   327.    348.    346.    344.    309.    328.    336.    332.
   313.    339.    340.    339.    338.    338.    326.    323.
   325.    317.    327.    336.    346.    322.    321.    323.
   324.    334.    352.    335.    303.    357.    315.    330.
   303.    345.    325.    338.    317.    340.    323.    332.
   333.    317.    320.    348.    311.    299.    308.    349.
   335.    341.    333.    337.    280.    309.    319.    302.
   325.    323.    286.    310.    345.    307.    340.    343.
   324.    318.    294.    283.    324.    289.    337.    347.
   292.    302.    332.    325.    328.    318.    312.    309.
   343.    338.    344.    320.    313.    346.    334.    327.
   308.    354.    317.    328.    326.    305.    320.    318.
   325.    338.    327.    335.    323.    308.    353.    346.
   318.    329.    330.    328.    315.    335.    327.    313.
   329.    323.    301.    307.    305.    328.    324.    308.
   320.    320.    334.    311.    310.    326.    305.    354.
   314.    325.    355.    311.    311.    308.    348.    293.
   321.    321.    321.    327.    327.    307.    319.    348.
   307.    321.    319.    319.    339.    315.    334.    333.
   309.    324.    322.    314.    317.    346.    294.    321.
   349.    319.    314.    320.    322.    330.    342.    313.
   330.    305.    318.    320.    335.    316.    299.    330.
   327.    334.    356.    326.    346.    313.    351.    326.
   328.    324.    307.    324.    314.    317.    343.    310.
   316.    319.    370.    313.    334.    334.    322.    346.
   342.    319.    330.    327.    348.    336.    316.    315.
   344.    330.    301.    314.    305.    339.    331.    343.
   340.    320.    322.    333.    325.    316.    314.    310.
   290.    325.    317.    305.    323.    315.    318.    341.
   324.    315.    362.    312.    321.    300.    301.    345.
   310.    343.    303.    334.    351.    312.    305.    331.
   310.    309.    317.    328.    337.    310.    297.    328.
   350.    337.    313.    321.    304.    319.    321.    313.
   322.    321.    335.    321.    320.    331.    338.    298.
   323.    325.    322.    338.    291.    342.    355.    310.
   345.    318.    347.    325.    331.    317.    318.    339.
   304.    330.    342.    299.    306.    322.    331.    307.
   338.    315.    334.    307.    335.    316.    333.    289.
   334.    327.    325.    335.    333.    340.    318.    341.
   320.    312.    324.    314.    337.    327.    369.    340.
   332.    337.    321.    316.    318.    302.    307.    334.
   311.    324.    306.    325.    319.    325.    344.    328.
   316.    317.    328.    311.    310.    325.    314.    341.
   318.    337.    319.    320.    319.    287.    329.    326.
   297.    314.    318.    294.    329.    320.    293.    294.
   334.    332.    295.    329.    323.    309.    320.    335.
   326.    325.    307.    333.    342.    358.    274.    300.
   304.    320.    333.    339.    310.    315.    313.    327.
   310.    309.    328.    314.    332.    300.    319.    321.
   337.    347.    309.    317.    302.    299.    323.    306.
   346.    312.    275.    286.    311.    308.    324.    312.
   314.    316.    325.    305.    345.    321.    316.    319.
   306.    307.    309.    306.    303.    310.    333.    323.
   338.    313.    302.    306.    304.    309.    335.    306.
   282.    328.    308.    329.    290.    307.    290.    286.
   302.    299.    301.    314.    316.    318.    286.    293.
   324.    302.    311.    312.    361.    286.    298.    324.
   299.    284.    325.    295.    321.    271.    334.    296.
   300.    309.    317.    321.    308.    279.    304.    294.
   282.    305.    336.    279.    288.    299.    318.    295.
   304.    298.    301.    309.    295.    285.    268.    292.
   280.    306.    300.    316.    327.    279.    306.    320.
   296.    293.    260.    302.    289.    286.    303.    294.
   283.    329.    311.    285.    298.    286.    287.    299.
   304.    279.    311.    307.    294.    302.    307.    312.
   297.    348.    292.    318.    291.    309.    314.    279.
   298.    301.    281.    296.    281.    301.    282.    316.
   341.    301.    282.    287.    314.    318.    308.    321.
   327.    270.    298.    302.    290.    290.    297.    300.
   283.    278.    303.    306.    276.    278.    267.    290.
   291.    292.    310.    272.    282.    275.    298.    282.
   297.    262.    298.    282.    279.    291.    268.    285.
   296.    293.    313.    289.    260.    296.    304.    291.
   291.    300.    294.    294.    285.    298.    298.    297.
   300.    254.    304.    314.    313.    307.    288.    290.
   298.    304.    289.    300.    260.    293.    309.    292.
   242.    274.    283.    299.    291.    302.    286.    296.
   275.    292.    276.    282.    276.    281.    274.    275.
   276.    309.    289.    303.    299.    277.    288.    280.
   293.    270.    281.    317.    295.    273.    292.    328.
   307.    292.    265.    276.    287.    283.    295.    278.
   283.    296.    257.    266.    285.    294.    288.    292.
   262.    269.    257.    291.    270.    291.    271.    280.
   282.    259.    268.    277.    284.    295.    289.    274.
   322.    291.    273.    266.    290.    315.    277.    262.
   284.    285.    289.    289.    292.    299.    303.    278.
   307.    284.    261.    269.    293.    305.    297.    267.
   259.    282.    276.    290.    293.    301.    285.    282.
   292.    279.    276.    278.    282.    279.    268.    292.
   264.    252.    261.    273.    296.    268.    289.    273.
   279.    289.    304.    284.    275.    276.    292.    274.
   289.    287.    287.    272.    267.    275.    295.    274.
   270.    262.    277.    288.    275.    287.    266.    283.
   291.    273.    282.    276.    278.    291.    305.    270.
   295.    305.    277.    257.    290.    296.    263.    274.
   263.    284.    293.    268.    266.    262.    260.    268.
   291.    285.    267.    257.    272.    265.    278.    272.
   261.    268.    245.    279.    288.    313.    288.    275.
   275.    278.    266.    296.    289.    284.    289.    298.
   287.    278.    274.    291.    286.    252.    275.    288.
   279.    299.    264.    258.    282.    261.    276.    270.
   277.    275.    293.    283.    286.    279.    278.    265.
   268.    300.    293.    270.    273.    255.    261.    290.
   263.    283.    289.    283.    301.    285.    286.    281.
   274.    287.    291.    278.    272.    269.    284.    259.
   260.    292.    281.    303.    273.    299.    291.    291.
   282.    295.    289.    286.    270.    307.    301.    250.
   297.    299.    271.    278.    265.    282.    298.    273.
   271.    267.    269.    270.    290.    290.    282.    280.
   300.    298.    284.    285.    268.    273.    265.    288.
   266.    308.    266.    293.    289.    269.    265.    254.
   283.    276.    303.    289.    276.    271.    290.    272.
   289.    289.    298.    297.    283.    303.    279.    288.
   286.    298.    328.    300.    278.    296.    274.    271.
   287.    277.    275.    302.    280.    259.    276.    281.
   299.    266.    283.    294.    259.    256.    304.    271.
   291.    282.    287.    263.    286.    287.    282.    265.
   290.    291.    270.    275.    258.    265.    284.    267.
   290.    256.    279.    283.    287.    268.    279.    270.
   251.    288.    256.    271.    295.    237.    281.    265.
   287.    285.    303.    265.    262.    269.    295.    254.
   301.    285.    275.    288.    287.    244.    268.    279.
   268.    305.    265.    267.    285.    276.    276.    264.
   285.    293.    283.    278.    256.    263.    285.    282.
   303.    273.    274.    294.    279.    279.    271.    276.
   281.    287.    289.    269.    278.    277.    285.    274.
   286.    269.    284.    284.    301.    319.    267.    295.
   308.    309.    267.    309.    305.    283.    270.    283.
   316.    287.    287.    282.    293.    316.    299.    306.
   266.    253.    278.    298.    286.    268.    305.    298.
   296.    274.    281.    267.    264.    285.    270.    320.
   303.    282.    283.    280.    270.    274.    293.    263.
   282.    300.    288.    303.    329.    313.    292.    269.
   289.    298.    341.    335.    271.    300.    305.    289.
   303.    307.    285.    268.    304.    286.    298.    282.
   308.    329.    294.    300.    298.    309.    305.    302.
   318.    300.    291.    271.    301.    285.    278.    302.
   302.    332.    286.    296.    291.    289.    288.    306.
   278.    314.    306.    301.    287.    301.    306.    310.
   291.    331.    292.    287.    324.    304.    323.    287.
   284.    310.    319.    292.    317.    286.    298.    305.
   309.    315.    297.    315.    322.    310.    301.    289.
   305.    330.    337.    321.    307.    306.    304.    331.
   316.    322.    317.    304.    336.    307.    305.    318.
   324.    310.    310.    303.    330.    312.    311.    313.
   304.    316.    301.    337.    307.    312.    354.    304.
   282.    316.    311.    327.    306.    296.    311.    312.
   294.    296.    318.    316.    291.    306.    308.    311.
   321.    311.    305.    310.    312.    315.    314.    303.
   317.    332.    317.    290.    298.    291.    340.    326.
   322.    326.    311.    316.    309.    298.    282.    313.
   304.    313.    299.    288.    322.    330.    353.    300.
   298.    303.    311.    338.    329.    333.    309.    330.
   292.    322.    321.    325.    313.    281.    321.    314.
   333.    334.    332.    320.    299.    314.    324.    301.
   325.    322.    303.    330.    319.    322.    309.    326.
   319.    331.    303.    326.    314.    338.    342.    339.
   319.    323.    358.    314.    345.    328.    313.    337.
   331.    311.    310.    343.    334.    306.    273.    311.
   312.    315.    337.    322.    331.    306.    337.    348.
   326.    336.    291.    316.    322.    344.    293.    305.
   298.    312.    278.    336.    307.    325.    322.    337.
   340.    280.    321.    298.    302.    324.    334.    299.
   284.    307.    281.    308.    298.    313.    315.    320.
   329.    343.    332.    327.    315.    302.    356.    301.
   315.    307.    315.    312.    316.    296.    307.    326.
   331.    340.    276.    322.    333.    297.    281.    316.
   318.    325.    299.    327.    279.    336.    324.    326.
   291.    289.    324.    315.    316.    308.    344.    311.
   312.    305.    290.    289.    324.    310.    326.    312.
   334.    332.    279.    311.    309.    308.    295.    301.
   301.    300.    275.    303.    329.    320.    317.    301.
   313.    307.    332.    324.    309.    309.    306.    333.
   302.    309.    305.    319.    307.    296.    282.    295.
   303.    298.    326.    306.    336.    303.    285.    304.
   307.    309.    315.    322.    291.    342.    308.    279.
   303.    297.    316.    298.    281.    276.    301.    305.
   298.    311.    306.    282.    292.    309.    326.    300.
   302.    296.    292.    300.    313.    305.    302.    310.
   311.    291.    294.    297.    309.    302.    295.    288.
   296.    315.    273.    285.    300.    276.    299.    296.
   294.    294.    304.    286.    297.    329.    299.    292.
   290.    278.    282.    307.    306.    307.    289.    293.
   297.    289.    303.    306.    289.    272.    282.    255.
   306.    292.    340.    300.    288.    298.    288.    301.
   279.    298.    320.    279.    273.    283.    305.    292.
   289.    288.    284.    291.    287.    294.    290.    304.
   286.    279.    286.    278.    268.    304.    285.    285.
   283.    262.    302.    309.    300.    271.    288.    302.
   287.    281.    290.    280.    266.    278.    287.    284.
   287.    286.    305.    281.    282.    287.    276.    302.
   264.    318.    295.    295.    296.    283.    272.    260.
   270.    308.    310.    271.    307.    293.    315.    293.
   292.    284.    296.    270.    295.    292.    252.    277.
   274.    301.    285.    305.    286.    276.    277.    289.
   299.    273.    267.    310.    290.    295.    285.    283.
   286.    295.    293.    298.    305.    311.    274.    283.
   286.    282.    275.    273.    314.    281.    291.    312.
   291.    270.    283.    288.    333.    290.    299.    321.
   281.    277.    282.    279.    295.    292.    276.    297.
   313.    292.    262.    291.    297.    289.    304.    301.
   269.    294.    279.    310.    276.    271.    295.    272.
   267.    267.    262.    310.    300.    281.    275.    312.
   300.    275.    276.    270.    297.    288.    282.    272.
   280.    300.    279.    287.    291.    266.    283.    305.
   300.    291.    301.    291.    296.    290.    294.    288.
   314.    301.    301.    286.    261.    264.    266.    289.
   278.    262.    253.    287.    298.    281.    283.    302.
   254.    280.    285.    264.    282.    302.    275.    278.
   292.    257.    274.    265.    288.    278.    288.    264.
   301.    270.    266.    255.    258.    294.    308.    307.
   281.    270.    301.    268.    296.    311.    292.    292.
   286.    271.    294.    273.    284.    266.    273.    289.
   292.    293.    296.    307.    289.    295.    287.    268.
   272.    280.    301.    295.    270.    286.    281.    289.
   270.    277.    255.    299.    285.    272.    279.    290.
   285.    271.    292.    288.    270.    274.    320.    293.
   281.    298.    263.    279.    296.    328.    282.    255.
   279.    306.    289.    316.    292.    294.    289.    295.
   301.    286.    305.    303.    287.    301.    301.    289.
   282.    290.    290.    304.    269.    266.    276.    265.
   271.    299.    302.    296.    285.    262.    279.    301.
   313.    315.    292.    284.    310.    283.    270.    285.
   308.    306.    287.    271.    305.    287.    278.    258.
   294.    280.    267.    298.    306.    285.    300.    301.
   290.    270.    281.    304.    282.    292.    301.    339.
   283.    309.    286.    274.    296.    291.    314.    300.
   305.    323.    302.    282.    288.    294.    312.    311.
   294.    283.    274.    273.    297.    280.    303.    266.
   301.    319.    298.    285.    293.    265.    308.    321.
   279.    308.    286.    271.    330.    331.    288.    289.
   284.    272.    290.    278.    288.    297.    285.    298.
   289.    267.    289.    308.    292.    275.    279.    299.
   298.    297.    298.    293.    290.    304.    291.    294.
   308.    285.    308.    328.    304.    314.    298.    326.
   312.    326.    302.    318.    305.    316.    276.    295.
   309.    291.    289.    295.    294.    330.    308.    315.
   327.    323.    297.    288.    324.    296.    319.    323.
   263.    312.    300.    290.    300.    299.    292.    285.
   319.    296.    302.    311.    294.    304.    317.    323.
   305.    307.    315.    311.    302.    290.    320.    298.
   299.    278.    301.    293.    328.    328.    328.    327.
   305.    328.    323.    326.    304.    302.    319.    300.
   296.    284.    302.    315.    304.    313.    312.    317.
   285.    306.    284.    294.    317.    306.    305.    329.
   331.    321.    317.    306.    300.    275.    299.    307.
   332.    308.    328.    318.    306.    319.    339.    314.
   317.    319.    316.    294.    342.    316.    319.    330.
   313.    306.    314.    318.    316.    332.    308.    307.
   318.    304.    306.    329.    302.    311.    294.    287.
   313.    330.    310.    291.    309.    325.    318.    316.
   342.    308.    329.    328.    302.    334.    312.    316.
   309.    311.    304.    323.    308.    319.    291.    311.
   317.    329.    314.    304.    308.    318.    308.    328.
   326.    327.    337.    316.    302.    311.    291.    307.
   311.    313.    310.    304.    317.    293.    314.    293.
   306.    290.    320.    285.    310.    283.    295.    298.
   277.    290.    300.    304.    352.    301.    314.    309.
   300.    304.    296.    293.    320.    283.    301.    277.
   307.    286.    306.    318.    315.    318.    254.    293.
   296.    285.    303.    330.    333.    304.    313.    297.
   285.    322.    314.    299.    299.    315.    294.    306.
   302.    299.    304.    271.    301.    339.    319.    293.
   309.    314.    297.    309.    316.    304.    285.    276.
   305.    304.    322.    287.    280.    294.    288.    302.
   272.    285.    301.    292.    309.    272.    315.    313.
   297.    292.    313.    296.    264.    307.    307.    293.
   271.    286.    290.    277.    276.    301.    306.    283.
   301.    293.    304.    287.    292.    273.    292.    295.
   315.    316.    299.    321.    281.    288.    285.    288.
   280.    291.    279.    294.    270.    277.    284.    296.
   288.    293.    296.    313.    306.    304.    278.    292.
   293.    290.    298.    276.    298.    295.    281.    297.
   291.    285.    285.    295.    284.    293.    283.    284.
   311.    287.    248.    239.    273.    263.    284.    277.
   298.    302.    290.    309.    301.    312.    279.    299.
   289.    302.    314.    281.    314.    308.    283.    285.
   279.    269.    320.    304.    290.    300.    274.    279.
   274.    290.    305.    292.    259.    271.    295.    321.
   279.    274.    315.    288.    283.    307.    294.    328.
   281.    313.    273.    303.    279.    300.    291.    270.
   288.    277.    281.    275.    263.    273.    298.    286.
   287.    288.    275.    295.    285.    269.    295.    266.
   287.    303.    316.    297.    281.    294.    309.    278.
   297.    291.    282.    277.    293.    301.    295.    281.
   289.    278.    279.    285.    299.    297.    289.    277.
   261.    313.    282.    262.    291.    300.    300.    285.
   282.    268.    267.    297.    284.    279.    273.    288.
   275.    327.    312.    297.    277.    274.    289.    307.
   304.    265.    296.    294.    295.    294.    302.    274.
   283.    282.    283.    321.    291.    307.    298.    277.
   311.    290.    299.    278.    293.    291.    310.    289.
   301.    282.    287.    317.    275.    280.    304.    288.
   286.    288.    287.    291.    276.    283.    307.    318.
   284.    274.    298.    300.    290.    312.    283.    307.
   311.    309.    294.    307.    308.    297.    285.    314.
   296.    290.    307.    285.    308.    316.    303.    296.
   319.    305.    276.    284.    286.    286.    288.    290.
   296.    310.    297.    293.    296.    306.    278.    268.
   296.    294.    316.    311.    319.    303.    286.    297.
   312.    308.    311.    307.    294.    300.    296.    274.
   252.    278.    278.    301.    299.    305.    308.    297.
   268.    296.    302.    290.    273.    282.    294.    279.
   269.    304.    303.    322.    302.    301.    293.    302.
   283.    292.    298.    288.    289.    283.    307.    311.
   291.    295.    293.    307.    274.    292.    287.    290.
   302.    295.    299.    297.    296.    307.    273.    287.
   309.    282.    329.    313.    334.    288.    308.    296.
   294.    290.    319.    307.    290.    309.    307.    296.
   281.    277.    293.    297.    312.    275.    307.    280.
   308.    319.    294.    282.    311.    325.    340.    295.
   319.    293.    292.    267.    262.    317.    272.    293.
   314.    300.    286.    301.    292.    291.    278.    317.
   300.    301.    287.    323.    297.    292.    275.    303.
   305.    303.    284.    293.    274.    310.    287.    320.
   326.    296.    293.    289.    298.    304.    314.    319.
   314.    327.    278.    319.    317.    321.    339.    316.
   305.    313.    311.    305.    286.    293.    315.    297.
   284.    308.    316.    316.    309.    318.    314.    285.
   304.    294.    312.    324.    309.    307.    302.    303.
   268.    278.    289.    337.    304.    296.    305.    297.
   339.    317.    340.    306.    300.    303.    305.    281.
   327.    329.    312.    289.    294.    341.    316.    290.
   279.    324.    319.    281.    301.    304.    309.    315.
   300.    322.    287.    286.    283.    339.    315.    289.
   278.    279.    293.    313.    317.    311.    311.    324.
   303.    282.    311.    320.    312.    305.    299.    299.
   323.    318.    312.    318.    302.    319.    314.    288.
   291.    287.    310.    286.    283.    316.    320.    281.
   290.    318.    328.    319.    280.    297.    292.    291.
   299.    311.    310.    325.    321.    308.    308.    331.
   300.    311.    315.    318.    306.    317.    313.    331.
   300.    323.    303.    287.    316.    308.    308.    329.
   314.    333.    283.    267.    317.    321.    323.    296.
   305.    316.    303.    323.    307.    345.    314.    323.
   319.    313.    309.    340.    300.    329.    319.    316.
   291.    295.    312.    295.    303.    342.    339.    351.
   328.    319.    326.    313.    287.    312.    309.    297.
   330.    290.    321.    312.    283.    321.    310.    311.
   314.    317.    302.    318.    321.    307.    334.    312.
   314.    328.    325.    327.    311.    302.    297.    305.
   332.    320.    327.    282.    314.    320.    304.    306.
   319.    292.    312.    298.    318.    323.    337.    313.
   320.    307.    308.    310.    329.    305.    326.    311.
   316.    293.    301.    331.    356.    307.    302.    314.
   299.    321.    319.    338.    309.    300.    322.    292.
   305.    313.    292.    282.    298.    303.    313.    302.
   295.    274.    281.    284.    309.    311.    324.    318.
   286.    308.    287.    295.    332.    341.    304.    313.
   317.    291.    290.    315.    308.    298.    284.    308.
   314.    307.    309.    311.    309.    301.    294.    328.
   304.    324.    289.    288.    304.    330.    312.    320.
   323.    317.    325.    307.    299.    304.    303.    297.
   326.    306.    298.    278.    272.    309.    299.    314.
   299.    316.    296.    305.    320.    305.    309.    312.
   283.    287.    318.    289.    294.    314.    298.    329.
   289.    305.    310.    299.    302.    310.    324.    316.
   316.    287.    307.    304.    314.    292.    302.    313.
   288.    309.    288.    289.    299.    304.    325.    305.
   306.    291.    297.    305.    311.    326.    322.    314.
   304.    323.    295.    313.    286.    312.    297.    313.
   289.    307.    302.    311.    261.    316.    278.    296.
   294.    289.    306.    297.    324.    291.    291.    298.
   297.    287.    303.    313.    294.    311.    320.    315.
   308.    313.    320.    313.    317.    324.    305.    299.
   304.    286.    296.    311.    291.    309.    306.    322.
   332.    326.    309.    307.    312.    295.    318.    288.
   304.    306.    283.    287.    276.    298.    289.    317.
   312.    301.    277.    294.    289.    296.    297.    297.
   291.    286.    312.    318.    315.    293.    289.    295.
   306.    296.    327.    304.    300.    298.    293.    305.
   306.    312.    294.    311.    303.    290.    306.    284.
   285.    312.    307.    316.    273.    297.    300.    281.
   316.    312.    299.    288.    278.    287.    285.    273.
   299.    329.    321.    317.    324.    288.    304.    293.
   319.    299.    291.    302.    287.    290.    284.    313.
   291.    297.    302.    326.    285.    303.    303.    303.
   296.    300.    322.    271.    283.    300.    327.    284.
   291.    323.    306.    304.    320.    308.    278.    291.
   293.    304.    284.    302.    279.    300.    305.    285.
   294.    298.    290.    269.    302.    326.    299.    294.
   284.    290.    295.    282.    312.    279.    294.    294.
   286.    275.    295.    303.    290.    294.    294.    311.
   313.    290.    287.    304.    308.    308.    299.    295.
   266.    283.    273.    292.    277.    288.    284.    294.
   306.    305.    294.    287.    282.    283.    283.    311.
   296.    305.    303.    310.    308.    288.    291.    288.
   278.    305.    309.    299.    279.    295.    322.    301.
   282.    288.    317.    298.    299.    277.    271.    315.
   305.    270.    312.    311.    274.    276.    271.    301.
   283.    308.    294.    281.    298.    287.    303.    272.
   300.    294.    279.    292.    283.    299.    293.    271.
   246.    276.    288.    262.    292.    307.    266.    270.
   284.    293.    312.    275.    274.    285.    284.    327.
   289.    281.    286.    292.    286.    278.    279.    307.
   303.    254.    279.    290.    300.    276.    274.    292.
   284.    287.    291.    298.    283.    267.    280.    294.
   289.    294.    284.    281.    266.    296.    295.    316.
   303.    306.    280.    285.    268.    294.    279.    259.
   291.    296.    288.    287.    257.    302.    295.    295.
   283.    287.    267.    300.    279.    289.    300.    264.
   287.    285.    284.    271.    301.    282.    296.    280.
   274.    269.    265.    280.    278.    279.    296.    279.
   293.    252.    305.    267.    274.    275.    266.    297.
   284.    270.    292.    275.    304.    295.    287.    287.
   302.    250.    260.    287.    292.    267.    280.    273.
   285.    290.    268.    304.    258.    277.    297.    291.
   295.    258.    300.    296.    311.    309.    300.    301.
   300.    276.    294.    292.    282.    282.    307.    301.
   304.    284.    276.    299.    283.    284.    298.    272.
   258.    300.    274.    272.    302.    287.    297.    293.
   267.    271.    275.    304.    288.    284.    281.    306.
   294.    303.    294.    302.    275.    306.    286.    300.
   277.    300.    281.    260.    279.    307.    312.    296.
   257.    285.    308.    294.    261.    292.    296.    290.
   283.    264.    265.    291.    291.    285.    282.    293.
   280.    301.    277.    284.    286.    279.    314.    259.
   320.    288.    286.    281.    286.    258.    275.    316.
   257.    261.    313.    289.    268.    283.    301.    295.
   281.    292.    293.    294.    293.    294.    262.    276.
   281.    294.    266.    280.    280.    295.    279.    276.
   303.    293.    275.    318.    286.    269.    283.    273.
   311.    283.    297.    314.    258.    282.    300.    292.
   286.    294.    265.    297.    283.    300.    296.    288.
   290.    304.    269.    295.    281.    280.    261.    256.
   256.    289.    283.    272.    263.    282.    285.    254.
   264.    282.    258.    278.    270.    295.    319.    281.
   274.    276.    291.    250.    281.    295.    264.    294.
   253.    280.    255.    296.    265.    273.    265.    280.
   278.    268.    293.    278.    255.    275.    282.    283.
   278.    261.    291.    266.    294.    268.    269.    268.
   280.    246.    263.    267.    275.    288.    282.    300.
   270.    313.    288.    268.    265.    257.    291.    298.
   285.    268.    277.    260.    303.    306.    270.    265.
   292.    279.    256.    275.    294.    277.    277.    279.
   285.    267.    282.    262.    287.    283.    278.    241.
   285.    286.    271.    253.    308.    262.    268.    274.
   276.    292.    277.    283.    285.    258.    277.    261.
   279.    256.    255.    275.    286.    274.    261.    269.
   280.    249.    279.    262.    288.    259.    289.    258.
   301.    271.    278.    279.    258.    279.    269.    260.
   273.    287.    255.    295.    275.    277.    279.    310.
   260.    268.    251.    266.    284.    288.    262.    274.
   271.    266.    279.    263.    261.    267.    297.    258.
   274.    271.    264.    248.    257.    256.    269.    280.
   287.    276.    291.    256.    300.    251.    264.    258.
   254.    258.    295.    296.    288.    272.    304.    280.
   254.    270.    283.    246.    288.    280.    290.    260.
   279.    260.    267.    280.    235.    276.    290.    299.
   225.    280.    258.    254.    272.    311.    282.    255.
   253.    251.    276.    275.    264.    285.    274.    271.
   288.    274.    237.    278.    291.    285.    293.    260.
   268.    264.    277.    263.    281.    279.    290.    257.
   279.    306.    273.    287.    278.    269.    276.    276.
   258.    266.    256.    291.    263.    301.    249.    284.
   282.    255.    271.    271.    281.    260.    303.    283.
   263.    275.    267.    283.    269.    276.    265.    303.
   283.    264.    274.    272.    254.    286.    265.    271.
   283.    269.    272.    270.    292.    281.    267.    280.
   262.    262.    266.    279.    293.    251.    263.    278.
   303.    275.    280.    258.    253.    276.    280.    277.
   273.    284.    264.    246.    284.    272.    277.    269.
   290.    276.    293.    258.    292.    290.    298.    303.
   277.    292.    256.    277.    271.    309.    275.    280.
   297.    292.    268.    288.    304.    276.    285.    283.
   278.    271.    291.    269.    272.    281.    281.    278.
   299.    285.    251.    264.    284.    273.    294.    268.
   274.    276.    272.    294.    297.    299.    262.    287.
   295.    267.    284.    283.    281.    294.    305.    265.
   293.    283.    288.    299.    287.    296.    255.    282.
   249.    295.    282.    278.    304.    287.    302.    274.
   283.    297.    270.    310.    289.    296.    276.    297.
   279.    306.    302.    306.    286.    288.    316.    295.
   291.    261.    249.    296.    322.    294.    314.    323.
   294.    259.    289.    294.    290.    300.    305.    293.
   309.    278.    287.    322.    282.    317.    308.    303.
   266.    293.    295.    297.    288.    304.    291.    289.
   306.    302.    301.    305.    319.    286.    309.    290.
   303.    278.    282.    325.    301.    280.    303.    315.
   301.    299.    313.    302.    287.    302.    286.    286.
   293.    309.    289.    302.    299.    287.    299.    282.
   304.    292.    279.    307.    276.    286.    264.    280.
   313.    328.    306.    289.    291.    289.    304.    306.
   282.    301.    288.    298.    297.    295.    310.    293.
   289.    346.    291.    278.    291.    304.    292.    289.
   291.    280.    293.    318.    300.    281.    303.    325.
   299.    324.    315.    268.    293.    302.    266.    309.
   279.    278.    313.    316.    288.    302.    287.    295.
   296.    291.    301.    296.    306.    273.    307.    292.
   281.    289.    315.    299.    315.    341.    304.    297.
   285.    295.    293.    305.    309.    283.    281.    305.
   291.    309.    315.    291.    283.    313.    314.    305.
   297.    272.    298.    294.    316.    283.    288.    304.
   318.    307.    307.    314.    298.    298.    310.    320.
   308.    294.    310.    304.    317.    319.    287.    313.
   292.    294.    298.    299.    300.    310.    303.    324.
   297.    279.    296.    272.    292.    301.    320.    285.
   300.    302.    289.    328.    309.    281.    299.    309.
   289.    306.    301.    308.    316.    321.    335.    318.
   308.    328.    308.    291.    308.    325.    312.    320.
   299.    323.    314.    320.    305.    266.    313.    292.
   298.    295.    311.    279.    316.    313.    308.    322.
   328.    325.    326.    319.    294.    335.    325.    299.
   314.    316.    303.    309.    283.    309.    310.    335.
   316.    305.    302.    318.    307.    303.    294.    305.
   313.    312.    336.    302.    289.    300.    294.    292.
   312.    318.    322.    281.    283.    298.    294.    296.
   319.    340.    332.    302.    290.    270.    280.    309.
   292.    292.    319.    286.    295.    306.    318.    305.
   278.    281.    300.    311.    303.    310.    296.    273.
   295.    287.    276.    290.    321.    278.    308.    306.
   280.    278.    297.    304.    304.    314.    279.    283.
   298.    310.    290.    296.    288.    288.    303.    292.
   298.    284.    284.    320.    281.    261.    295.    314.
   298.    310.    300.    282.    293.    280.    293.    292.
   314.    299.    308.    296.    293.    304.    329.    287.
   297.    316.    308.    279.    312.    300.    289.    284.
   304.    298.    259.    251.    297.    286.    278.    286.
   305.    314.    286.    286.    285.    281.    260.    271.
   304.    284.    287.    293.    280.    272.    312.    297.
   298.    274.    276.    274.    293.    265.    253.    289.
   313.    280.    266.    293.    290.    291.    288.    254.
   283.    277.    280.    256.    277.    265.    292.    282.
   288.    259.    278.    281.    295.    302.    280.    279.
   283.    262.    278.    283.    287.    299.    284.    272.
   284.    308.    263.    287.    317.    285.    283.    272.
   231.    273.    284.    269.    295.    285.    294.    299.
   300.    284.    286.    309.    261.    292.    254.    280.
   290.    272.    284.    262.    255.    296.    300.    270.
   282.    281.    279.    254.    255.    262.    294.    292.
   303.    281.    280.    284.    263.    264.    271.    292.
   279.    284.    299.    280.    275.    273.    296.    268.
   274.    313.    297.    286.    282.    274.    292.    275.
   267.    267.    261.    283.    270.    273.    293.    280.
   281.    269.    325.    262.    266.    294.    271.    275.
   270.    268.    276.    278.    255.    279.    292.    279.
   266.    301.    292.    275.    263.    265.    282.    273.
   269.    266.    297.    273.    275.    265.    276.    280.
   260.    276.    283.    296.    290.    299.    261.    296.
   266.    271.    267.    266.    301.    269.    289.    270.
   267.    279.    261.    298.    285.    256.    261.    288.
   256.    252.    268.    284.    286.    273.    268.    306.
   284.    283.    288.    260.    293.    276.    287.    270.
   280.    313.    283.    307.    273.    268.    287.    270.
   281.    254.    300.    270.    279.    264.    271.    254.
   272.    257.    315.    260.    257.    284.    289.    278.
   298.    302.    280.    269.    263.    275.    285.    275.
   282.    280.    287.    268.    272.    254.    266.    275.
   256.    299.    264.    274.    293.    278.    272.    277.
   274.    262.    245.    258.    264.    267.    295.    274.
   265.    275.    271.    266.    278.    259.    277.    272.
   276.    291.    284.    242.    266.    286.    257.    284.
   260.    274.    265.    265.    282.    249.    260.    284.
   258.    261.    286.    276.    271.    274.    255.    289.
   291.    290.    282.    290.    289.    274.    278.    270.
   276.    280.    293.    267.    308.    269.    272.    263.
   269.    268.    265.    261.    307.    253.    277.    266.
   277.    262.    274.    250.    285.    283.    261.    270.
   263.    243.    268.    287.    280.    274.    288.    276.
   256.    256.    288.    275.    295.    268.    268.    247.
   278.    279.    262.    286.    281.    277.    272.    288.
   272.    288.    258.    272.    271.    292.    253.    278.
   263.    258.    257.    267.    273.    285.    272.    265.
   254.    256.    271.    262.    260.    272.    264.    257.
   263.    269.    289.    266.    277.    253.    247.    276.
   277.    270.    276.    273.    296.    251.    274.    312.
   256.    276.    262.    286.    254.    279.    283.    290.
   269.    250.    277.    270.    274.    292.    274.    261.
   250.    280.    271.    248.    263.    269.    267.    255.
   270.    259.    275.    246.    247.    252.    265.    279.
   268.    265.    249.    279.    275.    249.    287.    279.
   275.    286.    245.    285.    252.    271.    266.    248.
   252.    261.    259.    282.    285.    257.    280.    300.
   268.    266.    259.    250.    227.    278.    257.    296.
   279.    278.    287.    279.    257.    264.    255.    267.
   272.    271.    261.    258.    264.    240.    273.    257.
   252.    279.    276.    263.    294.    288.    280.    244.
   243.    256.    247.    260.    250.    259.    238.    259.
   271.    257.    252.    256.    260.    280.    272.    246.
   271.    267.    251.    268.    269.    249.    244.    254.
   246.    254.    268.    280.    246.    272.    252.    264.
   281.    266.    273.    259.    282.    251.    248.    249.
   271.    275.    252.    266.    275.    251.    267.    268.
   271.    258.    245.    313.    274.    237.    261.    263.
   270.    276.    271.    274.    271.    282.    253.    255.
   255.    250.    273.    239.    280.    270.    268.    264.
   261.    242.    260.    237.    268.    264.    260.    250.
   274.    234.    261.    298.    260.    271.    264.    274.
   261.    272.    248.    268.    295.    283.    281.    276.
   302.    276.    270.    276.    266.    231.    249.    303.
   259.    251.    265.    269.    289.    263.    265.    285.
   275.    273.    239.    250.    239.    294.    271.    266.
   300.    286.    270.    263.    295.    274.    278.    276.
   258.    271.    261.    244.    276.    263.    265.    272.
   249.    238.    299.    275.    263.    261.    298.    268.
   278.    275.    274.    259.    263.    270.    289.    264.
   279.    272.    279.    282.    254.    289.    277.    272.
   270.    269.    246.    263.    261.    289.    269.    245.
   270.    261.    258.    267.    274.    292.    293.    281.
   273.    297.    262.    227.    267.    309.    292.    285.
   278.    270.    277.    285.    256.    297.    272.    268.
   258.    273.    275.    296.    277.    269.    256.    282.
   273.    268.    262.    276.    252.    258.    279.    277.
   268.    282.    255.    276.    283.    269.    253.    279.
   286.    265.    284.    284.    277.    284.    283.    269.
   265.    287.    288.    267.    261.    244.    266.    270.
   267.    281.    276.    301.    268.    281.    261.    266.
   290.    285.    263.    283.    289.    277.    279.    297.
   278.    266.    261.    290.    242.    287.    277.    289.
   271.    299.    296.    286.    281.    268.    292.    286.
   288.    280.    292.    286.    267.    299.    285.    265.
   278.    239.    281.    272.    276.    292.    295.    286.
   292.    271.    297.    277.    327.    306.    282.    272.
   283.    282.    280.    276.    289.    274.    292.    280.
   251.    289.    286.    296.    282.    275.    288.    279.
   281.    257.    270.    263.    268.    294.    273.    289.
   309.    285.    292.    262.    287.    292.    256.    320.
   285.    305.    280.    277.    281.    270.    268.    286.
   292.    280.    277.    254.    280.    285.    279.    282.
   275.    312.    275.    286.    273.    293.    273.    291.
   285.    289.    287.    275.    260.    295.    288.    270.
   288.    298.    302.    280.    300.    264.    292.    297.
   313.    315.    295.    290.    299.    286.    301.    282.
   271.    277.    287.    277.    264.    284.    275.    297.
   281.    291.    278.    302.    294.    275.    275.    301.
   282.    301.    276.    283.    289.    301.    300.    290.
   275.    266.    260.    285.    294.    281.    282.    298.
   313.    312.    289.    296.    275.    298.    282.    298.
   313.    309.    306.    295.    297.    283.    295.    279.
   263.    322.    283.    313.    278.    298.    246.    301.
   288.    288.    317.    291.    303.    284.    312.    333.
   315.    276.    290.    275.    282.    300.    290.    301.
   286.    300.    307.    305.    295.    290.    321.    321.
   306.    321.    294.    293.    294.    293.    329.    288.
   292.    321.    306.    309.    307.    296.    305.    310.
   308.    344.    319.    315.    328.    315.    316.    295.
   319.    286.    309.    306.    284.    314.    291.    292.
   332.    282.    316.    328.    310.    318.    283.    317.
   296.    305.    282.    302.    310.    298.    305.    291.
   295.    302.    331.    295.    290.    301.    312.    325.
   315.    316.    307.    317.    307.    291.    339.    316.
   315.    308.    305.    301.    323.    341.    296.    300.
   331.    323.    317.    317.    309.    305.    315.    328.
   313.    283.    319.    325.    324.    327.    298.    301.
   320.    352.    304.    297.    281.    341.    342.    290.
   342.    307.    293.    340.    319.    313.    302.    322.
   313.    333.    306.    305.    309.    331.    307.    307.
   317.    308.    320.    309.    310.    295.    314.    349.
   339.    323.    329.    319.    339.    321.    287.    313.
   312.    343.    331.    316.    321.    325.    334.    322.
   324.    320.    290.    307.    320.    318.    301.    334.
   312.    295.    303.    324.    311.    319.    306.    328.
   310.    293.    310.    318.    324.    319.    316.    298.
   295.    334.    338.    288.    293.    299.    312.    322.
   311.    297.    293.    333.    308.    309.    322.    337.
   314.    297.    316.    288.    330.    334.    314.    306.
   289.    292.    309.    335.    337.    326.    316.    340.
   272.    302.    341.    305.    321.    302.    297.    319.
   312.    328.    321.    322.    317.    312.    282.    320.
   337.    325.    291.    287.    300.    313.    277.    308.
   298.    311.    297.    327.    300.    285.    303.    295.
   324.    284.    318.    292.    321.    282.    297.    309.
   315.    325.    301.    287.    338.    316.    315.    311.
   311.    283.    290.    288.    307.    283.    315.    288.
   282.    294.    280.    325.    307.    337.    309.    300.
   283.    280.    271.    290.    319.    279.    296.    294.
   300.    309.    300.    275.    290.    312.    282.    307.
   312.    275.    275.    277.    301.    278.    272.    283.
   277.    290.    305.    305.    272.    282.    286.    273.
   297.    264.    287.    310.    289.    247.    260.    302.
   282.    273.    288.    288.    286.    273.    278.    301.
   297.    308.    291.    262.    281.    297.    284.    292.
   288.    278.    276.    275.    314.    280.    264.    307.
   290.    329.    302.    292.    289.    289.    287.    272.
   297.    289.    319.    285.    278.    308.    282.    293.
   324.    288.    263.    271.    280.    268.    278.    273.
   307.    295.    308.    305.    306.    279.    273.    310.
   323.    289.    311.    303.    292.    282.    299.    273.
   291.    289.    286.    264.    266.    286.    309.    288.
   282.    278.    287.    282.    273.    277.    261.    307.
   295.    277.    290.    272.    290.    292.    304.    283.
   313.    298.    329.    297.    295.    257.    292.    302.
   283.    295.    267.    300.    286.    296.    289.    295.
   293.    276.    289.    272.    275.    300.    287.    285.
   281.    305.    303.    282.    284.    294.    312.    300.
   272.    278.    287.    303.    300.    289.    313.    300.
   289.    280.    271.    313.    256.    271.    279.    291.
   300.    317.    295.    290.    300.    285.    279.    294.
   288.    291.    289.    284.    277.    302.    279.    275.
   305.    268.    272.    272.    278.    307.    271.    281.
   299.    287.    277.    264.    299.    296.    278.    287.
   296.    276.    279.    276.    281.    324.    278.    289.
   298.    271.    297.    293.    278.    272.    280.    270.
   250.    268.    277.    278.    264.    290.    249.    268.
   253.    290.    271.    316.    267.    290.    290.    286.
   280.    297.    299.    293.    284.    292.    287.    270.
   277.    284.    283.    296.    283.    299.    314.    276.
   305.    262.    285.    302.    284.    324.    303.    304.
   282.    275.    280.    247.    299.    280.    271.    272.
   292.    285.    295.    276.    257.    286.    276.    310.
   311.    263.    252.    292.    292.    303.    267.    289.
   265.    278.    298.    279.    278.    273.    287.    274.
   274.    261.    276.    292.    305.    287.    277.    285.
   260.    285.    281.    287.    259.    274.    291.    251.
   282.    297.    296.    265.    276.    266.    271.    291.
   284.    302.    304.    283.    294.    290.    270.    271.
   297.    270.    279.    309.    298.    304.    302.    295.
   284.    296.    267.    263.    300.    284.    276.    291.
   289.    273.    292.    290.    284.    272.    282.    306.
   289.    280.    278.    308.    289.    308.    279.    295.
   289.    277.    306.    300.    301.    267.    267.    284.
   302.    306.    280.    270.    282.    274.    275.    288.
   256.    300.    317.    293.    318.    243.    268.    281.
   299.    296.    279.    274.    283.    325.    273.    280.
   283.    278.    261.    261.    306.    310.    270.    276.
   286.    288.    297.    285.    308.    271.    293.    293.
   283.    292.    277.    285.    269.    312.    289.    284.
   263.    263.    281.    263.    297.    308.    308.    281.
   281.    290.    306.    293.    287.    273.    277.    280.
   288.    298.    295.    285.    301.    298.    283.    293.
   295.    291.    298.    273.    268.    270.    278.    290.
   280.    286.    296.    290.    311.    300.    290.    300.
   303.    312.    282.    279.    282.    268.    287.    300.
   279.    273.    265.    311.    274.    280.    283.    260.
   268.    306.    292.    257.    292.    287.    289.    276.
   286.    281.    282.    305.    274.    295.    269.    290.
   268.    267.    300.    279.    309.    283.    307.    290.
   299.    287.    266.    291.    300.    299.    319.    284.
   281.    296.    297.    288.    283.    312.    299.    288.
   319.    297.    293.    287.    266.    278.    287.    295.
   276.    258.    270.    281.    282.    256.    273.    281.
   275.    302.    294.    298.    293.    294.    287.    308.
   312.    300.    306.    320.    277.    299.    282.    285.
   308.    337.    316.    279.    272.    290.    293.    263.
   280.    283.    288.    278.    291.    282.    255.    278.
   258.    280.    295.    296.    272.    281.    251.    291.
   258.    271.    274.    291.    293.    312.    292.    314.
   315.    295.    291.    262.    320.    286.    278.    278.
   279.    262.    279.    282.    268.    287.    287.    289.
   307.    292.    281.    304.    286.    288.    262.    275.
   253.    260.    273.    285.    275.    311.    275.    274.
   300.    285.    282.    258.    272.    276.    284.    257.
   260.    288.    284.    297.    277.    300.    273.    276.
   284.    286.    261.    255.    287.    257.    287.    284.
   267.    294.    283.    283.    269.    285.    289.    254.
   267.    281.    270.    266.    263.    288.    277.    305.
   277.    287.    282.    281.    271.    269.    253.    281.
   259.    283.    269.    309.    284.    252.    279.    274.
   279.    287.    284.    290.    276.    294.    265.    259.
   286.    277.    270.    269.    250.    281.    284.    289.
   262.    267.    263.    265.    285.    277.    281.    291.
   312.    271.    309.    271.    282.    281.    277.    255.
   270.    283.    276.    283.    292.    280.    271.    258.
   292.    294.    285.    262.    278.    270.    255.    245.
   286.    265.    268.    263.    258.    273.    281.    254.
   264.    291.    285.    273.    228.    294.    252.    260.
   246.    264.    272.    275.    265.    292.    267.    263.
   242.    259.    267.    269.    272.    261.    250.    283.
   258.    244.    264.    299.    259.    280.    255.    258.
   256.    248.    253.    263.    240.    269.    283.    262.
   241.    260.    253.    287.    255.    261.    264.    257.
   276.    254.    266.    280.    262.    272.    274.    236.
   255.    273.    245.    253.    248.    246.    265.    292.
   244.    255.    238.    267.    256.    286.    224.    255.
   263.    263.    275.    259.    247.    271.    266.    259.
   249.    247.    293.    249.    247.    268.    254.    287.
   274.    237.    249.    284.    246.    249.    249.    284.
   269.    261.    239.    269.    268.    280.    259.    262.
   280.    233.    264.    263.    265.    249.    275.    267.
   271.    253.    258.    265.    253.    262.    255.    268.
   255.    242.    257.    266.    281.    263.    281.    275.
   277.    277.    244.    246.    274.    275.    269.    272.
   242.    257.    260.    255.    276.    266.    246.    263.
   258.    232.    245.    262.    255.    248.    230.    233.
   239.    265.    249.    260.    271.    256.    279.    260.
   255.    253.    208.    260.    235.    257.    257.    266.
   257.    271.    241.    261.    237.    271.    269.    243.
   241.    252.    272.    262.    250.    256.    224.    235.
   238.    260.    279.    252.    246.    236.    261.    233.
   253.    240.    265.    280.    264.    252.    244.    280.
   222.    261.    257.    285.    261.    247.    237.    261.
   256.    217.    247.    260.    234.    235.    228.    242.
   240.    231.    231.    250.    260.    271.    257.    251.
   247.    251.    270.    245.    251.    247.    261.    254.
   279.    245.    253.    250.    256.    271.    240.    250.
   240.    240.    257.    241.    244.    262.    261.    252.
   246.    243.    255.    279.    242.    254.    266.    234.
   260.    242.    221.    263.    270.    258.    259.    242.
   243.    225.    250.    259.    257.    264.    251.    241.
   255.    249.    252.    263.    273.    276.    256.    250.
   263.    235.    247.    239.    252.    266.    258.    240.
   260.    264.    256.    279.    264.    262.    264.    273.
   229.    228.    260.    238.    244.    248.    241.    234.
   262.    249.    264.    248.    255.    268.    251.    240.
   250.    243.    243.    228.    229.    237.    266.    242.
   280.    237.    268.    271.    240.    273.    259.    241.
   237.    221.    272.    250.    272.    259.    215.    243.
   254.    246.    250.    227.    252.    237.    247.    250.
   252.    250.    247.    228.    226.    237.    241.    249.
   256.    246.    262.    265.    264.    251.    253.    260.
   235.    231.    227.    278.    273.    226.    239.    255.
   248.    238.    245.    240.    252.    264.    264.    236.
   223.    249.    248.    225.    241.    252.    266.    236.
   259.    265.    232.    232.    233.    257.    262.    243.
   223.    239.    221.    239.    234.    235.    243.    255.
   256.    253.    263.    264.    245.    228.    222.    238.
   247.    237.    236.    228.    246.    251.    254.    247.
   247.    244.    244.    253.    240.    257.    243.    273.
   260.    245.    245.    244.    229.    240.    258.    248.
   249.    264.    235.    231.    233.    222.    265.    254.
   233.    247.    242.    243.    260.    241.    231.    255.
   236.    240.    249.    231.    264.    238.    236.    263.
   247.    245.    244.    230.    231.    226.    229.    267.
   236.    229.    246.    239.    249.    247.    255.    235.
   235.    247.    244.    248.    284.    252.    235.    238.
   260.    260.    256.    247.    240.    238.    238.    231.
   247.    255.    252.    273.    230.    243.    278.    253.
   246.    262.    238.    247.    253.    261.    254.    237.
   268.    259.    254.    235.    235.    249.    245.    234.
   237.    249.    267.    235.    267.    251.    231.    262.
   268.    241.    248.    254.    239.    226.    255.    253.
   275.    271.    271.    250.    255.    267.    259.    273.
   254.    238.    251.    256.    243.    253.    235.    257.
   248.    277.    267.    259.    253.    272.    262.    279.
   257.    257.    258.    241.    254.    255.    265.    295.
   279.    254.    247.    264.    261.    265.    273.    289.
   273.    260.    267.    287.    233.    249.    259.    262.
   247.    263.    237.    236.    260.    290.    253.    275.
   274.    235.    237.    257.    259.    251.    257.    253.
   288.    246.    264.    264.    271.    248.    254.    251.
   259.    254.    237.    259.    269.    248.    266.    276.
   250.    255.    266.    253.    243.    266.    269.    266.
   278.    256.    287.    273.    285.    271.    251.    280.
   266.    273.    258.    267.    282.    278.    251.    255.
   267.    283.    239.    261.    252.    259.    273.    243.
   273.    264.    248.    250.    265.    251.    259.    286.
   252.    242.    274.    265.    240.    234.    280.    254.
   248.    256.    247.    259.    256.    252.    254.    267.
   277.    253.    274.    275.    263.    243.    246.    252.
   235.    238.    267.    266.    256.    255.    240.    258.
   268.    257.    241.    253.    243.    241.    263.    279.
   253.    243.    256.    271.    238.    241.    268.    269.
   245.    260.    281.    293.    277.    254.    242.    268.
   242.    250.    269.    264.    253.    272.    243.    258.
   273.    243.    259.    259.    243.    242.    241.    245.
   235.    281.    259.    278.    268.    244.    255.    247.
   240.    281.    272.    253.    264.    244.    254.    248.
   245.    272.    254.    248.    294.    240.    256.    259.
   255.    293.    238.    254.    279.    265.    247.    243.
   270.    242.    251.    259.    271.    235.    257.    246.
   239.    255.    241.    247.    265.    263.    258.    259.
   231.    242.    271.    240.    239.    258.    251.    249.
   255.    276.    248.    241.    239.    251.    250.    240.
   224.    260.    251.    254.    247.    240.    247.    268.
   255.    243.    241.    264.    251.    268.    240.    254.
   251.    251.    233.    267.    238.    252.    229.    236.
   248.    241.    254.    241.    259.    246.    253.    250.
   240.    267.    245.    243.    255.    256.    268.    260.
   241.    241.    245.    239.    259.    252.    244.    224.
   245.    242.    250.    251.    253.    254.    249.    244.
   233.    260.    261.    247.    264.    267.    243.    257.
   232.    245.    249.    256.    252.    286.    240.    235.
   238.    251.    242.    253.    245.    229.    258.    245.
   259.    263.    260.    277.    252.    245.    247.    262.
   246.    251.    260.    252.    258.    263.    259.    259.
   259.    245.    243.    229.    253.    231.    255.    259.
   252.    259.    260.    239.    274.    236.    235.    240.
   253.    242.    256.    226.    275.    255.    236.    269.
   259.    247.    245.    247.    226.    256.    240.    258.
   240.    234.    262.    245.    238.    246.    244.    242.
   260.    259.    256.    235.    246.    247.    241.    234.
   253.    261.    256.    250.    235.    249.    253.    256.
   220.    240.    256.    278.    283.    263.    236.    249.
   264.    280.    247.    264.    265.    284.    262.    267.
   258.    251.    240.    263.    274.    254.    237.    246.
   241.    269.    235.    242.    237.    267.    246.    251.
   262.    247.    228.    215.    253.    257.    272.    254.
   248.    244.    237.    251.    262.    248.    229.    268.
   247.    253.    244.    252.    235.    240.    261.    241.
   240.    253.    246.    249.    230.    253.    231.    245.
   233.    247.    231.    251.    239.    252.    235.    248.
   249.    244.    251.    244.    238.    257.    252.    251.
   249.    261.    222.    232.    219.    254.    247.    276.
   252.    255.    243.    248.    250.    255.    242.    243.
   248.    230.    264.    259.    254.    257.    238.    228.
   235.    244.    230.    257.    231.    266.    243.    248.
   234.    240.    244.    233.    230.    229.    235.    248.
   243.    246.    234.    256.    250.    255.    236.    236.
   245.    232.    248.    259.    235.    243.    250.    254.
   244.    255.    245.    235.    264.    223.    234.    243.
   243.    261.    241.    239.    250.    235.    261.    237.
   239.    257.    241.    264.    236.    260.    238.    220.
   248.    274.    230.    257.    241.    250.    220.    254.
   249.    261.    239.    233.    260.    245.    244.    275.
   257.    254.    229.    240.    262.    241.    230.    256.
   262.    254.    257.    243.    243.    234.    250.    279.
   256.    249.    238.    253.    238.    247.    239.    245.
   239.    254.    246.    271.    251.    253.    271.    232.
   265.    244.    254.    254.    258.    231.    256.    227.
   241.    267.    260.    237.    255.    277.    263.    245.
   256.    243.    239.    268.    246.    277.    241.    256.
   254.    236.    248.    265.    248.    262.    261.    255.
   254.    271.    263.    230.    242.    257.    259.    248.
   244.    257.    259.    245.    243.    256.    257.    259.
   258.    267.    257.    246.    262.    276.    242.    261.
   240.    228.    238.    260.    250.    244.    256.    243.
   252.    247.    267.    273.    260.    250.    255.    263.
   258.    229.    254.    241.    256.    243.    240.    242.
   231.    271.    250.    255.    270.    267.    270.    263.
   239.    257.    259.    266.    251.    253.    249.    272.
   251.    248.    239.    240.    270.    247.    242.    235.
   257.    274.    253.    264.    263.    259.    257.    251.
   255.    259.    256.    258.    237.    245.    249.    259.
   245.    255.    254.    256.    268.    258.    248.    265.
   240.    278.    263.    247.    245.    241.    258.    235.
   253.    253.    251.    272.    250.    265.    277.    250.
   267.    275.    262.    257.    239.    245.    234.    264.
   251.    251.    256.    251.    220.    244.    262.    243.
   266.    238.    275.    263.    249.    250.    265.    272.
   244.    273.    253.    280.    267.    245.    256.    265.
   262.    246.    274.    239.    241.    268.    245.    274.
   244.    270.    253.    258.    267.    272.    270.    254.
   251.    263.    258.    273.    257.    246.    242.    231.
   251.    271.    258.    262.    260.    252.    261.    247.
   261.    249.    253.    258.    252.    257.    267.    257.
   237.    269.    264.    268.    257.    237.    246.    247.
   239.    244.    246.    260.    263.    248.    244.    254.
   256.    251.    267.    250.    254.    269.    257.    259.
   250.    269.    272.    269.    233.    269.    249.    205.
   253.    261.    267.    259.    251.    262.    258.    259.
   254.    266.    279.    248.    247.    256.    251.    277.
   251.    269.    225.    269.    248.    259.    247.    249.
   249.    240.    250.    250.    275.    246.    250.    250.
   264.    241.    274.    253.    258.    250.    253.    229.
   264.    246.    280.    253.    271.    272.    252.    254.
   251.    269.    277.    252.    263.    239.    272.    249.
   247.    261.    261.    250.    270.    218.    252.    284.
   248.    236.    257.    216.    262.    261.    241.    257.
   237.    269.    266.    254.    247.    231.    230.    245.
   242.    251.    264.    223.    267.    243.    239.    262.
   245.    267.    262.    254.    267.    240.    237.    256.
   252.    250.    256.    242.    251.    264.    265.    253.
   246.    252.    252.    266.    242.    237.    230.    236.
   240.    278.    241.    238.    255.    237.    257.    294.
   240.    258.    256.    274.    243.    258.    228.    232.
   268.    236.    248.    273.    247.    248.    258.    255.
   237.    245.    249.    232.    235.    242.    259.    246.
   238.    241.    246.    247.    225.    264.    250.    226.
   252.    233.    238.    260.    268.    251.    236.    232.
   250.    248.    254.    235.    229.    219.    261.    242.
   248.    263.    220.    221.    252.    272.    249.    261.
   244.    247.    248.    238.    247.    248.    233.    247.
   261.    266.    244.    225.    244.    227.    242.    227.
   238.    250.    272.    235.    257.    240.    239.    239.
   223.    273.    252.    249.    260.    250.    233.    224.
   228.    223.    225.    245.    250.    252.    247.    229.
   236.    242.    253.    235.    238.    277.    268.    221.
   264.    252.    249.    241.    262.    253.    232.    254.
   248.    265.    248.    243.    245.    229.    236.    227.
   250.    233.    228.    248.    235.    231.    231.    256.
   244.    228.    228.    211.    217.    245.    238.    250.
   211.    232.    234.    240.    269.    264.    251.    226.
   235.    250.    231.    236.    232.    234.    243.    237.
   225.    244.    223.    219.    236.    217.    227.    228.
   251.    228.    243.    218.    250.    229.    250.    269.
   241.    227.    249.    244.    249.    241.    261.    251.
   249.    248.    235.    238.    269.    230.    212.    238.
   220.    219.    242.    225.    238.    228.    231.    252.
   237.    236.    235.    245.    238.    236.    253.    231.
   240.    242.    245.    242.    242.    249.    243.    230.
   246.    210.    256.    235.    238.    225.    244.    251.
   244.    241.    223.    236.    267.    254.    248.    252.
   231.    226.    222.    227.    239.    233.    232.    233.
   244.    250.    244.    260.    250.    252.    273.    231.
   234.    255.    240.    242.    248.    251.    249.    225.
   228.    220.    226.    228.    235.    218.    250.    256.
   261.    235.    230.    233.    244.    238.    230.    210.
   237.    255.    245.    237.    262.    250.    270.    247.
   266.    252.    239.    245.    214.    246.    231.    237.
   228.    256.    254.    249.    243.    229.    227.    236.
   239.    244.    256.    250.    232.    243.    242.    243.
   237.    249.    271.    239.    235.    248.    252.    228.
   247.    250.    231.    261.    242.    228.    254.    217.
   227.    242.    228.    264.    240.    256.    248.    248.
   268.    235.    223.    265.    235.    257.    254.    234.
   232.    242.    253.    242.    248.    226.    240.    237.
   269.    243.    249.    224.    245.    228.    262.    240.
   257.    260.    240.    258.    240.    249.    239.    254.
   249.    242.    245.    254.    222.    246.    228.    223.
   242.    237.    253.    229.    245.    232.    221.    224.
   220.    262.    221.    234.    250.    238.    267.    244.
   251.    226.    217.    246.    221.    208.    233.    226.
   236.    226.    236.    243.    244.    240.    220.    232.
   265.    226.    226.    234.    237.    268.    234.    231.
   236.    249.    237.    228.    219.    251.    232.    239.
   267.    247.    247.    231.    230.    237.    232.    224.
   227.    231.    236.    219.    232.    235.    245.    233.
   230.    230.    233.    222.    225.    224.    221.    235.
   247.    258.    245.    223.    244.    262.    222.    243.
   237.    228.    219.    235.    237.    252.    236.    234.
   228.    210.    233.    234.    241.    217.    226.    249.
   233.    241.    241.    238.    249.    242.    227.    221.
   224.    202.    243.    223.    231.    211.    230.    239.
   244.    229.    225.    229.    229.    232.    241.    220.
   239.    234.    227.    236.    230.    224.    232.    234.
   242.    222.    268.    236.    221.    231.    237.    232.
   224.    229.    237.    219.    228.    227.    219.    250.
   262.    262.    245.    221.    229.    231.    237.    226.
   241.    228.    259.    234.    227.    255.    256.    215.
   244.    229.    234.    195.    216.    227.    235.    221.
   238.    250.    231.    230.    242.    241.    243.    252.
   234.    240.    234.    244.    262.    257.    220.    227.
   219.    191.    243.    235.    244.    232.    233.    239.
   238.    238.    238.    237.    219.    225.    231.    240.
   224.    224.    251.    239.    257.    242.    224.    222.
   244.    234.    223.    227.    231.    231.    230.    217.
   234.    239.    235.    252.    204.    211.    225.    239.
   256.    209.    231.    239.    241.    242.    229.    230.
   240.    228.    221.    214.    224.    223.    230.    260.
   236.    234.    236.    222.    226.    243.    239.    232.
   242.    233.    228.    223.    236.    242.    230.    222.
   233.    239.    250.    213.    261.    238.    258.    234.
   234.    258.    236.    227.    232.    255.    214.    235.
   242.    215.    252.    249.    234.    228.    242.    248.
   233.    217.    248.    238.    239.    231.    218.    248.
   243.    219.    248.    258.    231.    237.    235.    236.
   235.    228.    260.    229.    227.    253.    217.    225.
   243.    243.    227.    252.    236.    249.    263.    223.
   261.    264.    246.    246.    248.    243.    223.    222.
   244.    222.    249.    247.    220.    220.    244.    239.
   218.    235.    228.    207.    263.    225.    243.    235.
   229.    268.    247.    231.    225.    236.    249.    203.
   242.    236.    221.    245.    260.    230.    231.    265.
   230.    238.    246.    207.    240.    249.    254.    239.
   243.    262.    221.    210.    227.    248.    218.    225.
   228.    229.    260.    233.    238.    260.    229.    227.
   224.    248.    229.    215.    239.    233.    244.    243.
   246.    219.    229.    227.    250.    212.    232.    231.
   236.    236.    226.    234.    239.    224.    224.    256.
   235.    251.    234.    237.    233.    253.    245.    231.
   237.    241.    215.    229.    244.    221.    242.    240.
   233.    226.    247.    229.    249.    224.    254.    209.
   236.    212.    223.    246.    251.    251.    229.    203.
   227.    222.    250.    211.    230.    240.    237.    204.
   236.    218.    241.    223.    252.    213.    232.    227.
   242.    237.    231.    221.    220.    238.    237.    244.
   237.    241.    232.    227.    238.    218.    240.    246.
   261.    232.    233.    255.    251.    239.    243.    230.
   231.    239.    242.    220.    244.    251.    236.    234.
   228.    232.    218.    248.    217.    222.    205.    231.
   213.    209.    246.    237.    232.    226.    235.    225.
   237.    236.    244.    230.    214.    212.    236.    248.
   232.    237.    240.    221.    217.    201.    231.    240.
   242.    213.    224.    233.    227.    250.    226.    220.
   223.    243.    246.    220.    232.    210.    233.    221.
   231.    237.    232.    250.    230.    230.    215.    236.
   201.    236.    243.    211.    243.    224.    234.    216.
   221.    227.    243.    236.    220.    234.    245.    229.
   230.    241.    220.    233.    209.    230.    239.    213.
   227.    234.    229.    233.    238.    242.    233.    240.
   214.    213.    214.    230.    227.    240.    192.    240.
   216.    242.    228.    219.    248.    239.    231.    226.
   235.    243.    245.    239.    248.    210.    228.    230.
   260.    257.    250.    232.    221.    242.    232.    234.
   227.    242.    264.    250.    219.    244.    256.    227.
   225.    221.    235.    220.    230.    250.    245.    247.
   233.    215.    236.    226.    245.    211.    260.    275.
   243.    241.    228.    216.    208.    239.    249.    237.
   233.    239.    216.    229.    234.    204.    221.    207.
   231.    234.    234.    232.    248.    250.    261.    251.
   243.    222.    220.    237.    244.    210.    219.    237.
   237.    239.    231.    233.    261.    210.    215.    254.
   227.    224.    246.    244.    235.    252.    245.    281.
   212.    262.    234.    234.    220.    221.    230.    238.
   234.    233.    253.    231.    216.    241.    218.    230.
   222.    241.    216.    242.    248.    234.    243.    238.
   246.    260.    235.    242.    235.    220.    225.    231.
   224.    255.    235.    228.    210.    233.    199.    257.
   244.    231.    242.    230.    250.    250.    231.    236.
   239.    222.    240.    237.    262.    256.    249.    237.
   234.    250.    210.    237.    221.    250.    244.    241.
   223.    239.    253.    241.    240.    237.    246.    280.
   245.    263.    252.    249.    243.    238.    247.    251.
   247.    248.    257.    232.    241.    249.    247.    234.
   239.    222.    238.    236.    241.    246.    258.    235.
   239.    237.    235.    223.    241.    264.    250.    229.
   261.    244.    258.    231.    248.    242.    246.    224.
   233.    221.    239.    248.    244.    242.    247.    258.
   238.    234.    272.    255.    225.    241.    226.    226.
   244.    245.    230.    242.    251.    229.    231.    236.
   232.    249.    253.    240.    239.    243.    254.    238.
   220.    226.    246.    237.    240.    261.    252.    240.
   212.    229.    242.    224.    251.    228.    238.    245.
   222.    232.    258.    244.    236.    262.    266.    249.
   232.    260.    248.    268.    235.    259.    232.    243.
   231.    231.    237.    265.    233.    265.    238.    243.
   249.    250.    266.    226.    249.    267.    258.    253.
   237.    228.    262.    256.    269.    254.    242.    224.
   244.    246.    258.    255.    260.    228.    257.    257.
   236.    233.    231.    240.    255.    237.    247.    233.
   245.    241.    246.    231.    251.    246.    250.    255.
   234.    220.    227.    246.    258.    230.    234.    238.
   236.    251.    248.    243.    255.    233.    232.    251.
   256.    253.    238.    230.    262.    249.    266.    251.
   229.    256.    266.    288.    235.    225.    240.    240.
   235.    239.    245.    231.    228.    257.    245.    242.
   270.    254.    235.    247.    256.    237.    236.    250.
   252.    253.    249.    244.    252.    250.    241.    210.
   253.    263.    256.    252.    248.    245.    259.    231.
   223.    241.    243.    270.    235.    247.    268.    236.
   230.    270.    217.    282.    252.    240.    259.    232.
   233.    252.    247.    263.    247.    229.    273.    239.
   251.    263.    261.    263.    247.    287.    262.    273.
   245.    280.    273.    279.    232.    255.    263.    265.
   260.    253.    269.    271.    252.    233.    253.    258.
   259.    244.    249.    248.    261.    287.    266.    261.
   251.    256.    238.    257.    228.    259.    272.    250.
   256.    251.    278.    262.    274.    235.    252.    255.
   280.    287.    266.    275.    249.    251.    267.    244.
   241.    274.    262.    265.    266.    237.    253.    267.
   255.    289.    254.    290.    269.    262.    275.    264.
   247.    249.    251.    253.    239.    281.    264.    273.
   249.    259.    285.    264.    242.    242.    251.    256.
   282.    278.    243.    271.    272.    262.    241.    265.
   285.    257.    283.    263.    252.    262.    271.    249.
   259.    257.    281.    246.    273.    261.    251.    259.
   254.    274.    249.    267.    260.    260.    259.    234.
   256.    254.    255.    269.    260.    269.    271.    261.
   259.    282.    295.    256.    280.    260.    271.    254.
   259.    262.    272.    240.    254.    250.    264.    290.
   245.    242.    259.    255.    273.    272.    267.    261.
   259.    270.    270.    273.    295.    270.    277.    256.
   274.    251.    261.    268.    257.    268.    274.    256.
   247.    243.    250.    261.    264.    283.    272.    285.
   253.    273.    258.    275.    273.    278.    264.    242.
   243.    261.    275.    230.    261.    238.    266.    263.
   256.    257.    248.    246.    220.    255.    273.    276.
   279.    291.    262.    273.    261.    270.    263.    273.
   246.    235.    273.    268.    271.    268.    252.    279.
   276.    270.    264.    264.    279.    260.    279.    263.
   271.    250.    265.    279.    277.    252.    257.    262.
   258.    255.    265.    255.    277.    245.    259.    268.
   263.    246.    268.    221.    288.    272.    271.    276.
   280.    270.    276.    243.    255.    285.    253.    251.
   283.    249.    255.    231.    277.    237.    239.    258.
   261.    242.    239.    272.    243.    252.    255.    253.
   257.    264.    260.    250.    247.    296.    294.    304.
   249.    261.    244.    263.    260.    267.    266.    252.
   280.    264.    251.    253.    247.    268.    267.    259.
   268.    290.    266.    247.    277.    250.    254.    258.
   277.    236.    269.    250.    259.    247.    263.    257.
   265.    245.    261.    272.    271.    261.    251.    248.
   250.    263.    283.    256.    255.    228.    274.    271.
   263.    264.    264.    256.    255.    249.    232.    267.
   241.    253.    284.    254.    253.    280.    274.    282.
   251.    278.    258.    276.    248.    276.    256.    258.
   262.    267.    261.    274.    275.    249.    254.    253.
   269.    251.    260.    250.    246.    252.    252.    244.
   294.    267.    278.    249.    294.    271.    246.    272.
   241.    257.    252.    260.    275.    243.    270.    239.
   266.    262.    255.    246.    221.    257.    238.    270.
   268.    244.    272.    257.    252.    270.    260.    272.
   268.    249.    254.    255.    259.    240.    245.    227.
   241.    254.    257.    232.    244.    278.    271.    251.
   251.    258.    254.    260.    256.    239.    251.    235.
   263.    250.    264.    225.    234.    242.    256.    238.
   228.    270.    238.    255.    249.    269.    256.    261.
   255.    262.    272.    263.    240.    250.    237.    236.
   270.    276.    260.    242.    275.    247.    250.    238.
   236.    241.    232.    248.    258.    249.    265.    249.
   239.    234.    265.    256.    265.    241.    281.    267.
   239.    247.    230.    256.    259.    241.    243.    270.
   228.    211.    217.    225.    236.    231.    259.    271.
   249.    230.    230.    252.    223.    230.    228.    235.
   240.    240.    237.    240.    220.    241.    234.    243.
   234.    249.    243.    236.    243.    236.    244.    232.
   238.    258.    261.    225.    259.    236.    233.    254.
   256.    253.    237.    258.    249.    244.    257.    237.
   227.    244.    232.    237.    236.    250.    265.    246.
   243.    238.    234.    268.    236.    224.    246.    234.
   258.    259.    238.    258.    255.    243.    219.    243.
   236.    233.    252.    263.    253.    231.    238.    236.
   250.    243.    253.    227.    230.    254.    224.    237.
   239.    253.    243.    237.    265.    245.    229.    226.
   260.    233.    245.    258.    246.    251.    235.    223.
   225.    239.    252.    249.    247.    281.    251.    220.
   265.    239.    255.    235.    223.    244.    261.    242.
   252.    264.    242.    230.    242.    249.    242.    256.
   250.    246.    245.    238.    252.    268.    253.    230.
   234.    227.    242.    213.    242.    202.    233.    218.
   239.    249.    256.    245.    273.    238.    223.    269.
   229.    236.    235.    231.    258.    240.    215.    215.
   242.    230.    239.    225.    226.    239.    230.    229.
   223.    241.    246.    243.    224.    238.    234.    237.
   236.    271.    244.    235.    263.    247.    227.    249.
   259.    271.    219.    240.    239.    255.    245.    234.
   239.    249.    248.    228.    265.    250.    257.    231.
   230.    253.    241.    262.    243.    211.    235.    262.
   242.    266.    225.    244.    239.    261.    244.    253.
   246.    236.    245.    242.    233.    251.    266.    248.
   229.    238.    223.    258.    280.    264.    250.    254.
   265.    261.    251.    255.    247.    264.    230.    225.
   248.    250.    256.    242.    263.    241.    250.    243.
   239.    234.    252.    282.    229.    205.    233.    252.
   272.    249.    249.    244.    239.    243.    239.    234.
   240.    236.    251.    232.    256.    284.    243.    226.
   242.    228.    251.    237.    248.    246.    245.    240.
   226.    264.    236.    267.    244.    213.    257.    244.
   248.    254.    243.    257.    247.    249.    243.    232.
   260.    250.    229.    255.    246.    246.    237.    237.
   224.    271.    241.    248.    249.    275.    230.    239.
   278.    240.    243.    219.    205.    253.    232.    232.
   246.    247.    246.    249.    237.    219.    248.    232.
   218.    218.    256.    254.    233.    242.    249.    260.
   234.    235.    244.    253.    245.    243.    237.    272.
   254.    238.    240.    258.    242.    252.    262.    245.
   242.    240.    273.    252.    248.    264.    255.    232.
   247.    284.    259.    259.    256.    250.    237.    244.
   243.    231.    254.    250.    269.    227.    224.    233.
   246.    230.    232.    246.    255.    219.    245.    271.
   250.    253.    258.    258.    257.    232.    254.    231.
   250.    230.    253.    215.    232.    222.    231.    225.
   237.    237.    254.    236.    240.    232.    249.    247.
   255.    239.    232.    238.    247.    243.    226.    238.
   242.    237.    233.    245.    252.    266.    252.    221.
   234.    230.    253.    245.    235.    217.    242.    228.
   229.    233.    226.    258.    252.    259.    224.    257.
   247.    256.    247.    251.    240.    257.    243.    267.
   267.    242.    250.    243.    240.    247.    254.    242.
   229.    267.    241.    242.    237.    243.    231.    267.
   264.    241.    250.    228.    247.    244.    245.    241.
   229.    244.    256.    277.    252.    228.    266.    268.
   243.    233.    218.    233.    240.    245.    244.    230.
   256.    237.    225.    253.    245.    259.    244.    245.
   228.    236.    249.    270.    245.    255.    256.    226.
   274.    254.    234.    229.    264.    239.    250.    224.
   238.    242.    244.    231.    234.    248.    248.    218.
   280.    234.    272.    265.    287.    214.    253.    261.
   245.    272.    239.    267.    229.    239.    269.    227.
   239.    229.    239.    245.    208.    266.    255.    240.
   244.    224.    218.    240.    265.    248.    232.    220.
   242.    245.    217.    242.    249.    238.    243.    254.
   242.    254.    240.    245.    241.    233.    246.    235.
   233.    253.    255.    251.    216.    279.    230.    255.
   258.    246.    273.    246.    245.    251.    264.    254.
   235.    227.    237.    228.    250.    249.    250.    229.
   237.    244.    236.    241.    224.    231.    238.    238.
   281.    239.    269.    236.    248.    275.    279.    249.
   238.    256.    239.    254.    261.    255.    254.    238.
   243.    256.    277.    233.    234.    241.    240.    237.
   263.    231.    261.    251.    241.    269.    245.    240.
   250.    256.    254.    251.    295.    249.    235.    245.
   249.    258.    240.    261.    264.    249.    247.    241.
   228.    254.    244.    240.    252.    262.    244.    226.
   254.    247.    261.    241.    252.    228.    246.    239.
   236.    231.    245.    264.    257.    235.    261.    245.
   253.    263.    254.    251.    270.    250.    228.    267.
   247.    276.    238.    255.    274.    262.    255.    260.
   234.    225.    238.    246.    236.    262.    266.    262.
   258.    255.    261.    208.    231.    237.    241.    251.
   260.    253.    241.    235.    270.    233.    246.    234.
   234.    237.    238.    244.    248.    263.    226.    247.
   257.    241.    240.    274.    252.    245.    238.    236.
   275.    263.    252.    246.    251.    262.    257.    249.
   234.    254.    259.    283.    252.    251.    263.    260.
   250.    275.    235.    226.    260.    220.    235.    258.
   249.    255.    247.    237.    243.    272.    254.    232.
   230.    273.    252.    237.    258.    257.    253.    266.
   252.    244.    239.    240.    237.    240.    229.    214.
   261.    231.    229.    255.    232.    208.    221.    241.
   226.    242.    250.    242.    242.    209.    270.    237.
   236.    232.    234.    234.    238.    263.    244.    211.
   248.    199.    233.    240.    245.    253.    255.    238.
   232.    228.    221.    217.    261.    245.    242.    259.
   226.    259.    247.    238.    238.    231.    252.    245.
   259.    239.    242.    246.    256.    245.    239.    220.
   243.    231.    240.    231.    213.    236.    213.    241.
   217.    227.    248.    223.    218.    239.    265.    231.
   215.    270.    259.    221.    243.    213.    237.    234.
   229.    253.    218.    230.    231.    230.    219.    248.
   230.    219.    254.    251.    242.    255.    242.    220.
   236.    248.    235.    248.    225.    252.    244.    242.
   267.    248.    217.    224.    263.    219.    237.    246.
   216.    232.    228.    196.    255.    233.    233.    249.
   251.    213.    228.    230.    215.    230.    231.    206.
   234.    231.    223.    239.    230.    245.    229.    251.
   241.    230.    252.    214.    234.    218.    219.    218.
   223.    241.    231.    226.    262.    252.    237.    223.
   224.    225.    241.    240.    222.    222.    226.    240.
   228.    246.    244.    245.    225.    224.    246.    236.
   222.    225.    228.    212.    205.    220.    252.    212.
   217.    241.    224.    237.    208.    233.    250.    241.
   251.    230.    220.    209.    212.    239.    222.    217.
   223.    194.    258.    252.    230.    236.    235.    240.
   209.    236.    258.    218.    234.    229.    232.    237.
   206.    230.    235.    218.    236.    215.    233.    238.
   235.    217.    204.    241.    254.    240.    216.    230.
   236.    244.    224.    232.    228.    216.    211.    226.
   229.    227.    230.    214.    240.    234.    249.    221.
   206.    231.    196.    230.    231.    217.    220.    223.
   223.    240.    222.    235.    241.    241.    218.    228.
   208.    234.    244.    234.    237.    239.    270.    234.
   212.    243.    238.    226.    249.    231.    240.    230.
   244.    220.    241.    217.    246.    228.    244.    225.
   233.    240.    227.    210.    220.    234.    229.    245.
   254.    275.    221.    236.    265.    243.    200.    247.
   231.    233.    225.    256.    250.    227.    227.    221.
   214.    233.    224.    228.    247.    233.    235.    244.
   195.    231.    227.    237.    215.    220.    211.    217.
   235.    223.    227.    243.    252.    222.    226.    234.
   224.    228.    225.    220.    225.    231.    238.    263.
   253.    231.    220.    207.    238.    256.    276.    238.
   225.    244.    222.    220.    258.    234.    249.    220.
   238.    242.    254.    239.    213.    231.    216.    218.
   226.    246.    238.    220.    226.    225.    238.    231.
   237.    255.    226.    224.    226.    230.    256.    235.
   244.    248.    218.    216.    226.    218.    252.    230.
   230.    225.    219.    219.    200.    238.    233.    228.
   208.    211.    219.    239.    242.    254.    216.    209.
   230.    222.    229.    243.    219.    213.    217.    224.
   247.    225.    229.    233.    237.    241.    253.    240.
   231.    217.    232.    242.    233.    242.    233.    232.
   253.    251.    215.    253.    232.    236.    216.    258.
   241.    217.    241.    250.    227.    240.    232.    234.
   241.    231.    249.    247.    248.    217.    259.    238.
   217.    223.    228.    242.    213.    223.    240.    223.
   231.    226.    228.    216.    247.    217.    253.    236.
   223.    230.    247.    210.    236.    261.    230.    243.
   225.    265.    259.    245.    256.    242.    241.    237.
   247.    235.    237.    251.    211.    241.    244.    216.
   247.    240.    250.    239.    255.    271.    240.    243.
   233.    245.    255.    236.    249.    262.    226.    247.
   230.    241.    248.    217.    239.    252.    232.    237.
   217.    259.    237.    232.    230.    227.    238.    270.
   241.    228.    223.    228.    232.    242.    233.    234.
   224.    238.    256.    235.    235.    239.    240.    222.
   245.    218.    226.    237.    242.    258.    247.    228.
   229.    220.    242.    216.    236.    208.    230.    236.
   261.    238.    247.    263.    249.    239.    222.    246.
   216.    255.    230.    230.    240.    207.    226.    231.
   238.    240.    246.    221.    207.    239.    250.    239.
   237.    218.    221.    240.    235.    234.    249.    224.
   208.    253.    239.    242.    251.    243.    236.    217.
   242.    245.    232.    242.    257.    223.    238.    244.
   233.    226.    262.    244.    221.    231.    243.    236.
   216.    232.    250.    226.    240.    245.    248.    251.
   236.    252.    243.    230.    216.    241.    231.    236.
   225.    245.    213.    218.    232.    256.    224.    223.
   229.    236.    239.    235.    223.    240.    241.    224.
   234.    251.    249.    243.    280.    251.    248.    252.
   262.    235.    251.    263.    239.    267.    242.    251.
   237.    251.    244.    265.    233.    235.    236.    247.
   256.    262.    231.    227.    222.    217.    218.    242.
   238.    222.    250.    255.    247.    254.    247.    250.
   230.    259.    215.    245.    245.    239.    213.    239.
   228.    220.    257.    218.    259.    247.    253.    247.
   226.    235.    224.    259.    218.    257.    239.    234.
   220.    227.    247.    235.    242.    254.    233.    219.
   284.    202.    220.    232.    266.    249.    231.    278.
   251.    245.    249.    264.    245.    247.    256.    234.
   239.    240.    217.    234.    262.    237.    224.    243.
   263.    231.    223.    244.    236.    222.    242.    261.
   238.    232.    224.    239.    221.    259.    257.    242.
   247.    262.    233.    233.    228.    226.    247.    242.
   212.    237.    257.    227.    260.    236.    261.    255.
   265.    232.    259.    248.    240.    216.    245.    257.
   230.    229.    252.    259.    266.    265.    269.    232.
   251.    243.    221.    224.    259.    256.    232.    237.
   252.    242.    253.    241.    249.    277.    223.    252.
   256.    252.    224.    244.    256.    253.    241.    219.
   223.    241.    235.    251.    254.    239.    254.    256.
   225.    241.    249.    257.    264.    240.    227.    289.
   257.    263.    263.    220.    216.    261.    250.    251.
   251.    262.    221.    258.    289.    246.    224.    234.
   261.    264.    258.    240.    264.    253.    247.    272.
   244.    243.    259.    272.    234.    253.    289.    272.
   252.    245.    241.    239.    238.    258.    230.    253.
   267.    256.    256.    252.    264.    246.    249.    251.
   247.    232.    250.    261.    239.    249.    231.    241.
   245.    262.    246.    244.    236.    242.    246.    262.
   246.    252.    242.    228.    248.    230.    255.    240.
   234.    253.    231.    214.    259.    215.    227.    246.
   255.    266.    268.    227.    243.    236.    225.    225.
   246.    214.    235.    238.    242.    246.    234.    233.
   260.    249.    250.    249.    254.    263.    241.    231.
   238.    260.    267.    240.    248.    248.    270.    244.
   226.    238.    261.    251.    231.    230.    253.    254.
   233.    257.    250.    284.    244.    271.    230.    258.
   245.    249.    237.    257.    233.    246.    235.    264.
   237.    213.    246.    228.    259.    265.    248.    265.
   256.    262.    260.    257.    226.    239.    284.    262.
   257.    251.    243.    253.    246.    268.    249.    264.
   230.    231.    262.    252.    247.    251.    255.    247.
   270.    230.    259.    250.    258.    267.    235.    229.
   253.    259.    258.    265.    230.    260.    234.    253.
   259.    284.    229.    242.    252.    265.    256.    253.
   233.    236.    223.    254.    249.    229.    237.    233.
   236.    246.    247.    223.    265.    268.    233.    250.
   238.    268.    252.    244.    241.    226.    238.    263.
   247.    215.    234.    260.    225.    256.    237.    276.
   291.    235.    249.    240.    221.    233.    226.    256.
   251.    246.    234.    261.    257.    210.    235.    257.
   235.    254.    233.    238.    246.    246.    272.    251.
   272.    246.    232.    261.    257.    236.    245.    269.
   259.    210.    247.    215.    240.    225.    251.    259.
   243.    250.    242.    233.    230.    249.    263.    243.
   208.    222.    247.    233.    217.    258.    221.    237.
   248.    258.    247.    243.    248.    234.    241.    244.
   228.    245.    261.    257.    241.    246.    241.    255.
   249.    259.    228.    252.    217.    230.    225.    224.
   231.    256.    208.    245.    274.    242.    229.    242.
   235.    239.    244.    245.    239.    246.    230.    250.
   228.    245.    223.    228.    225.    249.    231.    221.
   246.    231.    243.    243.    214.    219.    246.    232.
   265.    241.    235.    212.    236.    220.    255.    238.
   224.    260.    237.    214.    247.    228.    207.    237.
   207.    232.    231.    230.    233.    214.    232.    236.
   221.    249.    235.    224.    222.    253.    228.    226.
   239.    263.    237.    246.    227.    237.    221.    228.
   212.    237.    227.    233.    238.    244.    228.    222.
   214.    235.    227.    242.    232.    225.    216.    237.
   254.    247.    249.    242.    241.    229.    230.    234.
   206.    216.    249.    232.    228.    224.    242.    218.
   244.    251.    255.    228.    224.    249.    245.    238.
   228.    231.    234.    226.    233.    214.    194.    235.
   253.    222.    217.    214.    224.    231.    213.    210.
   243.    236.    230.    236.    212.    227.    240.    246.
   223.    229.    214.    234.    228.    242.    253.    188.
   210.    219.    237.    251.    245.    252.    235.    245.
   211.    237.    234.    207.    234.    245.    245.    210.
   227.    217.    247.    221.    235.    226.    251.    214.
   232.    229.    234.    205.    236.    216.    215.    251.
   225.    225.    219.    212.    198.    230.    243.    220.
   189.    217.    232.    227.    217.    230.    240.    230.
   239.    229.    208.    213.    234.    243.    219.    209.
   214.    204.    215.    228.    223.    225.    235.    207.
   218.    242.    226.    198.    235.    223.    228.    211.
   227.    227.    217.    235.    227.    237.    261.    198.
   206.    203.    239.    245.    214.    206.    218.    197.
   220.    232.    210.    221.    236.    201.    222.    243.
   227.    217.    211.    220.    214.    234.    224.    237.
   199.    216.    214.    232.    232.    219.    222.    225.
   236.    243.    210.    206.    246.    221.    227.    218.
   224.    215.    229.    238.    231.    230.    212.    194.
   219.    219.    239.    213.    225.    219.    206.    230.
   232.    222.    227.    229.    231.    230.    211.    218.
   207.    235.    251.    243.    243.    202.    229.    215.
   226.    224.    232.    198.    249.    215.    258.    227.
   207.    211.    207.    261.    226.    240.    209.    202.
   221.    198.    235.    213.    217.    251.    232.    212.
   223.    246.    241.    216.    258.    216.    209.    205.
   207.    229.    230.    258.    232.    220.    229.    215.
   220.    253.    253.    226.    214.    218.    243.    226.
   213.    185.    230.    230.    228.    243.    227.    208.
   213.    221.    204.    229.    220.    215.    224.    224.
   241.    227.    214.    202.    255.    229.    218.    199.
   239.    240.    224.    198.    228.    233.    229.    234.
   225.    227.    245.    201.    246.    222.    222.    235.
   242.    240.    246.    245.    235.    247.    221.    207.
   222.    215.    209.    213.    204.    191.    233.    259.
   224.    242.    223.    229.    224.    221.    221.    214.
   239.    225.    250.    228.    242.    241.    211.    230.
   227.    227.    235.    238.    235.    222.    197.    221.
   238.    230.    246.    232.    240.    218.    229.    223.
   241.    223.    216.    210.    222.    233.    238.    197.
   204.    233.    239.    221.    219.    262.    219.    229.
   247.    214.    211.    222.    215.    240.    231.    238.
   232.    202.    239.    217.    222.    233.    236.    227.
   236.    232.    214.    253.    241.    214.    219.    223.
   240.    222.    242.    246.    244.    228.    218.    214.
   217.    227.    242.    243.    224.    239.    224.    240.
   222.    235.    235.    252.    225.    223.    232.    228.
   239.    232.    254.    242.    230.    231.    235.    216.
   242.    205.    220.    209.    210.    219.    239.    251.
   252.    240.    236.    246.    237.    228.    218.    231.
   211.    214.    241.    237.    223.    247.    274.    211.
   224.    215.    229.    218.    218.    244.    232.    202.
   218.    245.    227.    231.    242.    223.    218.    223.
   225.    243.    232.    245.    217.    217.    225.    224.
   231.    236.    245.    240.    230.    214.    213.    224.
   197.    218.    244.    254.    234.    258.    247.    226.
   226.    228.    234.    218.    234.    204.    241.    244.
   231.    219.    213.    236.    207.    236.    216.    240.
   225.    200.    224.    211.    222.    246.    216.    225.
   231.    237.    224.    205.    227.    217.    238.    216.
   222.    199.    238.    197.    233.    211.    221.    228.
   228.    236.    207.    235.    233.    236.    227.    217.
   213.    236.    243.    222.    214.    235.    234.    234.
   239.    224.    250.    223.    232.    214.    225.    246.
   217.    222.    220.    244.    240.    253.    239.    213.
   245.    258.    233.    202.    227.    228.    219.    249.
   234.    234.    222.    224.    224.    228.    244.    201.
   235.    211.    226.    241.    221.    236.    212.    234.
   227.    237.    240.    226.    241.    220.    220.    224.
   209.    218.    234.    227.    222.    218.    233.    226.
   247.    238.    218.    229.    240.    233.    228.    233.
   214.    210.    223.    267.    232.    238.    247.    223.
   217.    215.    250.    234.    261.    236.    239.    239.




;
_cod_data_source_file            K2ZrF6-form-I-295K.cif
_cod_data_source_block           K2ZrF6-form-I-295K
_cod_original_sg_symbol_H-M      'C 2/c'
_cod_database_code               3500043
_pd_proc_ls_prof_cr_factor       6.1476
_pd_proc_ls_prof_cwr_factor      7.1878
_pd_proc_ls_prof_cwr_expected    4.6920
_pd_proc_ls_prof_chi2            2.3467
_pd_proc_ls_prof_echi2           2.3789
loop_
_publ_manuscript_incl_extra_item
_publ_manuscript_incl_extra_info
_publ_manuscript_incl_extra_defn
'_pd_proc_ls_prof_cR_factor' 'Prof. R-factor CORRECTED for background' no
'_pd_proc_ls_prof_cwR_factor' 'wProf.R-factor CORRECTED for background' no
'_pd_proc_ls_prof_cwR_expected' 'wProf.Expected CORRECTED for background' no
'_pd_proc_ls_prof_chi2' 'Chi-square for all considered points' no
'_pd_proc_ls_prof_echi2' 'Chi-2 for points with Bragg contribution' no
loop_
_symmetry_equiv_pos_as_xyz
x,y,z
-x,y,-z+1/2
-x,-y,-z
x,-y,z+1/2
x+1/2,y+1/2,z
-x+1/2,y+1/2,-z+1/2
-x+1/2,-y+1/2,-z
x+1/2,-y+1/2,z+1/2
loop_
_atom_site_label
_atom_site_fract_x
_atom_site_fract_y
_atom_site_fract_z
_atom_site_U_iso_or_equiv
_atom_site_occupancy
_atom_site_adp_type
_atom_site_type_symbol
ZR 0.00000 0.047107(19) 0.25000 0.00211(6) 1.00000 Uiso Zr
K 0.01939(7) 0.34331(4) 0.00129(8) 0.02185(13) 1.00000 Uiso K
F1 0.28774(13) -0.01238(8) 0.22121(13) 0.0197(3) 1.00000 Uiso F
F2 0.19031(15) 0.19056(8) 0.27435(16) 0.0275(3) 1.00000 Uiso F
F3 -0.03405(15) 0.09824(6) 0.54599(12) 0.0201(3) 1.00000 Uiso F
loop_
_atom_type_symbol
_atom_type_scat_Cromer_Mann_a1
_atom_type_scat_Cromer_Mann_b1
_atom_type_scat_Cromer_Mann_a2
_atom_type_scat_Cromer_Mann_b2
_atom_type_scat_Cromer_Mann_a3
_atom_type_scat_Cromer_Mann_b3
_atom_type_scat_Cromer_Mann_a4
_atom_type_scat_Cromer_Mann_b4
_atom_type_scat_Cromer_Mann_c
_atom_type_scat_dispersion_real
_atom_type_scat_dispersion_imag
_atom_type_scat_source
F 3.63220 5.27756 3.51057 14.73530 1.26064 0.44226 0.94071 47.34370 0.65340
0.02400 0.01000
International_Tables_for_Crystallography_Vol.C(1991)_Tables_6.1.1.4_and_6.1.1.5
Zr 18.16680 1.21480 10.05620 10.14830 1.01118 21.60540 -2.64790 -0.10276
9.41454 -1.45400 0.74000
International_Tables_for_Crystallography_Vol.C(1991)_Tables_6.1.1.4_and_6.1.1.5
K 7.95780 12.63310 7.49170 0.76740 6.35900 -0.00200 1.19150 31.91280 -4.99780
0.24600 0.33500
International_Tables_for_Crystallography_Vol.C(1991)_Tables_6.1.1.4_and_6.1.1.5
loop_
_geom_angle_atom_site_label_1
_geom_angle_atom_site_label_2
_geom_angle_atom_site_label_3
_geom_angle
_geom_angle_site_symmetry_1
_geom_angle_site_symmetry_3
ZR F3 ZR 113.55(3) 1_555 3_556
ZR F3 K 98.93(3) 1_555 2_555
ZR F3 K 94.14(3) 1_555 8_455
ZR F3 F1 46.14(4) 1_555 2_555
ZR F3 F1 125.44(5) 1_555 3_556
ZR F3 F1 104.52(5) 1_555 4_555
ZR F3 F2 50.13(4) 1_555 1_555
ZR F3 F2 49.59(4) 1_555 2_555
ZR F3 F2 134.11(5) 1_555 8_455
ZR F3 K 145.48(3) 3_556 2_555
ZR F3 K 109.07(3) 3_556 8_455
ZR F3 F1 94.98(4) 3_556 1_555
ZR F3 F1 98.15(5) 3_556 2_555
ZR F3 F1 50.00(4) 3_556 3_556
ZR F3 F1 48.65(4) 3_556 4_555
ZR F3 F2 135.56(6) 3_556 1_555
ZR F3 F2 151.28(6) 3_556 2_555
ZR F3 F2 106.72(4) 3_556 8_455
K F3 K 78.60(3) 2_555 8_455
K F3 F1 105.92(4) 2_555 1_555
K F3 F1 113.24(5) 2_555 2_555
K F3 F1 118.88(5) 2_555 3_556
K F3 F1 113.46(5) 2_555 4_555
K F3 F2 59.82(4) 2_555 1_555
K F3 F2 61.43(4) 2_555 2_555
K F3 F2 51.02(3) 2_555 8_455
K F3 F1 129.20(4) 8_455 1_555
K F3 F1 57.22(4) 8_455 2_555
K F3 F1 60.47(4) 8_455 3_556
K F3 F1 155.33(5) 8_455 4_555
K F3 F2 112.83(5) 8_455 1_555
K F3 F2 57.31(4) 8_455 2_555
K F3 F2 51.19(3) 8_455 8_455
F1 F3 F1 75.96(4) 1_555 2_555
F1 F3 F1 134.90(6) 1_555 3_556
F1 F3 F1 70.11(5) 1_555 4_555
F1 F3 F2 46.17(4) 1_555 1_555
F1 F3 F2 80.11(5) 1_555 2_555
F1 F3 F2 156.73(5) 1_555 8_455
F1 F3 F1 81.70(5) 2_555 3_556
F1 F3 F1 127.83(6) 2_555 4_555
F1 F3 F2 92.33(6) 2_555 1_555
F1 F3 F2 53.15(5) 2_555 2_555
F1 F3 F2 108.32(5) 2_555 8_455
F1 F3 F1 95.21(6) 3_556 4_555
F1 F3 F2 172.79(7) 3_556 1_555
F1 F3 F2 115.93(7) 3_556 2_555
F1 F3 F2 67.89(5) 3_556 8_455
F1 F3 F2 91.64(6) 4_555 1_555
F1 F3 F2 147.19(7) 4_555 2_555
F1 F3 F2 118.57(6) 4_555 8_455
F2 F3 F2 56.92(5) 1_555 2_555
F2 F3 F2 110.60(6) 1_555 8_455
F2 F3 F2 84.56(5) 2_555 8_455
F3 ZR F3 148.42(7) 1_555 2_555
F3 ZR F3 66.45(4) 1_555 3_556
F3 ZR F3 144.30(6) 1_555 4_554
F3 ZR F1 107.01(6) 1_555 1_555
F3 ZR F1 83.74(6) 1_555 2_555
F3 ZR F2 76.96(6) 1_555 1_555
F3 ZR F2 78.09(6) 1_555 2_555
F3 ZR F3 144.30(6) 2_555 3_556
F3 ZR F3 66.45(4) 2_555 4_554
F3 ZR F1 83.74(6) 2_555 1_555
F3 ZR F1 107.01(6) 2_555 2_555
F3 ZR F2 78.09(6) 2_555 1_555
F3 ZR F2 76.96(6) 2_555 2_555
F3 ZR F3 81.43(5) 3_556 4_554
F3 ZR F1 73.68(5) 3_556 1_555
F3 ZR F1 76.71(5) 3_556 2_555
F3 ZR F2 119.41(6) 3_556 1_555
F3 ZR F2 135.37(7) 3_556 2_555
F3 ZR F1 76.71(5) 4_554 1_555
F3 ZR F1 73.68(5) 4_554 2_555
F3 ZR F2 135.37(7) 4_554 1_555
F3 ZR F2 119.41(6) 4_554 2_555
F1 ZR F1 140.61(7) 1_555 2_555
F1 ZR F2 73.19(6) 1_555 1_555
F1 ZR F2 145.49(8) 1_555 2_555
F1 ZR F2 145.49(8) 2_555 1_555
F1 ZR F2 73.19(6) 2_555 2_555
F2 ZR F2 74.98(6) 1_555 2_555
F3 K F3 101.40(4) 2_555 8_554
F3 K K 83.47(3) 2_555 2_554
F3 K K 96.82(3) 2_555 2_555
F3 K F1 133.38(5) 2_555 5_455
F3 K F1 130.05(5) 2_555 6_555
F3 K F1 127.47(5) 2_555 7_555
F3 K F1 123.98(5) 2_555 8_454
F3 K F2 56.36(4) 2_555 1_555
F3 K F2 56.46(4) 2_555 2_555
F3 K F2 75.75(4) 2_555 7_555
F3 K F2 79.46(4) 2_555 8_454
F3 K K 99.42(4) 8_554 2_554
F3 K K 88.77(4) 8_554 2_555
F3 K F1 110.80(5) 8_554 5_455
F3 K F1 51.16(4) 8_554 6_555
F3 K F1 57.14(4) 8_554 7_555
F3 K F1 113.11(5) 8_554 8_454
F3 K F2 71.76(4) 8_554 1_555
F3 K F2 125.39(6) 8_554 2_555
F3 K F2 54.70(4) 8_554 7_555
F3 K F2 149.95(6) 8_554 8_454
K K K 171.61(3) 2_554 2_555
K K F1 121.59(4) 2_554 5_455
K K F1 135.05(4) 2_554 6_555
K K F1 58.40(3) 2_554 7_555
K K F1 49.40(3) 2_554 8_454
K K F2 134.37(5) 2_554 1_555
K K F2 122.58(5) 2_554 2_555
K K F2 49.29(3) 2_554 7_555
K K F2 50.60(3) 2_554 8_454
K K F1 52.73(3) 2_555 5_455
K K F1 50.05(3) 2_555 6_555
K K F1 126.19(4) 2_555 7_555
K K F1 125.42(4) 2_555 8_454
K K F2 50.16(3) 2_555 1_555
K K F2 52.24(3) 2_555 2_555
K K F2 138.93(5) 2_555 7_555
K K F2 121.14(5) 2_555 8_454
F1 K F1 60.84(4) 5_455 6_555
F1 K F1 98.57(5) 5_455 7_555
F1 K F1 72.69(4) 5_455 8_454
F1 K F2 102.77(5) 5_455 1_555
F1 K F2 77.31(5) 5_455 2_555
F1 K F2 150.80(6) 5_455 7_555
F1 K F2 88.04(5) 5_455 8_454
F1 K F1 76.66(4) 6_555 7_555
F1 K F1 105.91(5) 6_555 8_454
F1 K F2 74.34(4) 6_555 1_555
F1 K F2 102.17(5) 6_555 2_555
F1 K F2 104.37(6) 6_555 7_555
F1 K F2 146.63(6) 6_555 8_454
F1 K F1 56.42(4) 7_555 8_454
F1 K F2 128.76(6) 7_555 1_555
F1 K F2 175.68(6) 7_555 2_555
F1 K F2 52.31(4) 7_555 7_555
F1 K F2 98.18(5) 7_555 8_454
F1 K F2 174.13(6) 8_454 1_555
F1 K F2 120.47(6) 8_454 2_555
F1 K F2 89.47(5) 8_454 7_555
F1 K F2 48.85(4) 8_454 8_454
F2 K F2 54.18(4) 1_555 2_555
F2 K F2 96.16(6) 1_555 7_555
F2 K F2 128.30(6) 1_555 8_454
F2 K F2 131.85(7) 2_555 7_555
F2 K F2 80.48(5) 2_555 8_454
F2 K F2 97.52(6) 7_555 8_454
F3 F1 F3 84.23(4) 1_555 2_555
F3 F1 F3 45.10(4) 1_555 3_556
F3 F1 F3 86.74(5) 1_555 4_554
F3 F1 K 164.78(5) 1_555 5_545
F3 F1 K 92.49(4) 1_555 6_545
F3 F1 K 113.78(4) 1_555 7_555
F3 F1 K 69.77(4) 1_555 8_555
F3 F1 F1 122.33(5) 1_555 2_655
F3 F1 F1 130.21(5) 1_555 4_554
F3 F1 F1 45.00(3) 1_555 4_555
F3 F1 F2 50.99(4) 1_555 1_555
F3 F1 F2 113.45(5) 1_555 6_545
F3 F1 F3 102.04(5) 2_555 3_556
F3 F1 F3 52.17(4) 2_555 4_554
F3 F1 ZR 50.12(4) 2_555 1_555
F3 F1 K 103.65(5) 2_555 5_545
F3 F1 K 168.58(5) 2_555 6_545
F3 F1 K 65.64(4) 2_555 7_555
F3 F1 K 114.64(5) 2_555 8_555
F3 F1 F1 132.86(6) 2_555 2_655
F3 F1 F1 45.98(4) 2_555 4_554
F3 F1 F1 128.38(5) 2_555 4_555
F3 F1 F2 60.77(5) 2_555 1_555
F3 F1 F2 119.02(5) 2_555 6_545
F3 F1 F3 67.53(5) 3_556 4_554
F3 F1 ZR 56.32(4) 3_556 1_555
F3 F1 K 119.82(5) 3_556 5_545
F3 F1 K 68.37(4) 3_556 6_545
F3 F1 K 158.23(5) 3_556 7_555
F3 F1 K 99.35(5) 3_556 8_555
F3 F1 F1 124.54(6) 3_556 2_655
F3 F1 F1 132.42(6) 3_556 4_554
F3 F1 F1 52.31(4) 3_556 4_555
F3 F1 F2 95.62(6) 3_556 1_555
F3 F1 F2 68.56(5) 3_556 6_545
F3 F1 ZR 54.64(4) 4_554 1_555
F3 F1 K 87.97(5) 4_554 5_545
F3 F1 K 116.82(5) 4_554 6_545
F3 F1 K 111.83(5) 4_554 7_555
F3 F1 K 154.98(5) 4_554 8_555
F3 F1 F1 149.33(6) 4_554 2_655
F3 F1 F1 64.89(4) 4_554 4_554
F3 F1 F1 119.04(5) 4_554 4_555
F3 F1 F2 102.47(6) 4_554 1_555
F3 F1 F2 70.32(5) 4_554 6_545
ZR F1 K 141.99(4) 1_555 5_545
ZR F1 K 122.86(4) 1_555 6_545
ZR F1 K 104.56(4) 1_555 7_555
ZR F1 K 100.35(4) 1_555 8_555
ZR F1 F1 155.88(5) 1_555 2_655
ZR F1 F1 94.61(4) 1_555 4_554
ZR F1 F1 82.23(4) 1_555 4_555
ZR F1 F2 54.33(5) 1_555 1_555
ZR F1 F2 112.05(5) 1_555 6_545
K F1 K 77.22(4) 5_545 6_545
K F1 K 81.43(3) 5_545 7_555
K F1 K 116.92(4) 5_545 8_555
K F1 F1 61.40(4) 5_545 2_655
K F1 F1 59.01(4) 5_545 4_554
K F1 F1 127.84(5) 5_545 4_555
K F1 F2 144.22(6) 5_545 1_555
K F1 F2 51.35(4) 5_545 6_545
K F1 K 125.45(4) 6_545 7_555
K F1 K 74.09(3) 6_545 8_555
K F1 F1 57.76(4) 6_545 2_655
K F1 F1 136.23(5) 6_545 4_554
K F1 F1 51.16(3) 6_545 4_555
K F1 F2 124.74(6) 6_545 1_555
K F1 F2 52.53(4) 6_545 6_545
K F1 K 72.19(3) 7_555 8_555
K F1 F1 67.89(4) 7_555 2_655
K F1 F1 52.18(3) 7_555 4_554
K F1 F1 120.01(5) 7_555 4_555
K F1 F2 62.87(5) 7_555 1_555
K F1 F2 132.76(5) 7_555 6_545
K F1 F1 55.68(4) 8_555 2_655
K F1 F1 124.37(4) 8_555 4_554
K F1 F1 48.30(3) 8_555 4_555
K F1 F2 56.17(4) 8_555 1_555
K F1 F2 126.31(4) 8_555 6_545
F1 F1 F1 97.58(5) 2_655 4_554
F1 F1 F1 82.42(4) 2_655 4_555
F1 F1 F2 103.87(6) 2_655 1_555
F1 F1 F2 87.53(5) 2_655 6_545
F1 F1 F1 170.67(5) 4_554 4_555
F1 F1 F2 94.35(6) 4_554 1_555
F1 F1 F2 95.16(5) 4_554 6_545
F1 F1 F2 76.65(5) 4_555 1_555
F1 F1 F2 94.17(4) 4_555 6_545
F2 F1 F2 164.05(6) 1_555 6_545
F3 F2 F3 103.07(6) 1_555 2_555
F3 F2 F3 157.02(6) 1_555 8_554
F3 F2 ZR 52.90(4) 1_555 1_555
F3 F2 K 120.83(5) 1_555 1_555
F3 F2 K 63.72(4) 1_555 2_555
F3 F2 K 147.46(6) 1_555 7_555
F3 F2 K 88.54(5) 1_555 8_555
F3 F2 F1 82.84(6) 1_555 1_555
F3 F2 F1 114.80(5) 1_555 6_555
F3 F2 F2 62.19(5) 1_555 2_555
F3 F2 F2 68.63(5) 1_555 7_556
F3 F2 F3 95.44(5) 2_555 8_554
F3 F2 ZR 52.31(4) 2_555 1_555
F3 F2 K 62.22(4) 2_555 1_555
F3 F2 K 122.69(5) 2_555 2_555
F3 F2 K 68.00(5) 2_555 7_555
F3 F2 K 137.21(6) 2_555 8_555
F3 F2 F1 66.08(5) 2_555 1_555
F3 F2 F1 114.87(5) 2_555 6_555
F3 F2 F2 60.89(5) 2_555 2_555
F3 F2 F2 170.07(6) 2_555 7_556
F3 F2 ZR 147.69(5) 8_554 1_555
F3 F2 K 57.05(4) 8_554 1_555
F3 F2 K 94.84(4) 8_554 2_555
F3 F2 K 53.23(4) 8_554 7_555
F3 F2 K 86.99(4) 8_554 8_555
F3 F2 F1 117.54(5) 8_554 1_555
F3 F2 F2 117.84(6) 8_554 2_555
F3 F2 F2 91.45(5) 8_554 7_556
ZR F2 K 101.65(4) 1_555 1_555
ZR F2 K 104.34(4) 1_555 2_555
ZR F2 K 104.73(4) 1_555 7_555
ZR F2 K 114.49(4) 1_555 8_555
ZR F2 F1 52.48(5) 1_555 1_555
ZR F2 F1 144.98(5) 1_555 6_555
ZR F2 F2 52.51(5) 1_555 2_555
ZR F2 F2 120.77(5) 1_555 7_556
K F2 K 77.60(4) 1_555 2_555
K F2 K 83.84(4) 1_555 7_555
K F2 K 143.08(4) 1_555 8_555
K F2 F1 126.54(6) 1_555 1_555
K F2 F1 53.13(4) 1_555 6_555
K F2 F2 61.27(5) 1_555 2_555
K F2 F2 116.59(5) 1_555 7_556
K F2 K 148.06(4) 2_555 7_555
K F2 K 99.52(4) 2_555 8_555
K F2 F1 146.38(6) 2_555 1_555
K F2 F1 51.34(4) 2_555 6_555
K F2 F2 64.55(5) 2_555 2_555
K F2 F2 49.33(4) 2_555 7_556
K F2 K 80.11(4) 7_555 8_555
K F2 F1 64.81(5) 7_555 1_555
K F2 F1 96.77(4) 7_555 6_555
K F2 F2 127.02(6) 7_555 2_555
K F2 F2 121.93(5) 7_555 7_556
K F2 F1 74.98(5) 8_555 1_555
K F2 F1 96.03(4) 8_555 6_555
K F2 F2 150.34(6) 8_555 2_555
K F2 F2 50.19(4) 8_555 7_556
F1 F2 F1 160.38(6) 1_555 6_555
F1 F2 F2 103.96(6) 1_555 2_555
F1 F2 F2 116.70(6) 1_555 7_556
F1 F2 F2 92.47(5) 6_555 2_555
F1 F2 F2 66.06(4) 6_555 7_556
F2 F2 F2 109.48(6) 2_555 7_556
F3 F3 F3 103.73(5) 2_556 3_556
F3 F3 ZR 158.22(5) 2_556 1_555
F3 F3 ZR 49.28(3) 2_556 3_556
F3 F3 K 96.30(4) 2_556 2_555
F3 F3 K 104.10(4) 2_556 8_455
F3 F3 F1 124.88(5) 2_556 1_555
F3 F3 F1 138.19(6) 2_556 2_555
F3 F3 F1 57.70(5) 2_556 3_556
F3 F3 F1 54.77(4) 2_556 4_555
F3 F3 F2 128.83(6) 2_556 1_555
F3 F3 F2 151.96(7) 2_556 2_555
F3 F3 F2 67.64(4) 2_556 8_455
F3 F3 ZR 57.67(4) 3_556 1_555
F3 F3 ZR 55.88(4) 3_556 3_556
F3 F3 K 154.10(5) 3_556 2_555
F3 F3 K 111.49(5) 3_556 8_455
F3 F3 F1 48.85(4) 3_556 1_555
F3 F3 F1 60.32(5) 3_556 2_555
F3 F3 F1 86.05(5) 3_556 3_556
F3 F3 F1 67.51(5) 3_556 4_555
F3 F3 F2 94.54(6) 3_556 1_555
F3 F3 F2 102.88(6) 3_556 2_555
F3 F3 F2 153.34(6) 3_556 8_455
loop_
_geom_bond_atom_site_label_1
_geom_bond_atom_site_label_2
_geom_bond_distance
_geom_bond_site_symmetry_2
ZR F1 2.0201(9) 1_555
ZR F1 2.0201(9) 2_555
ZR F2 2.0691(10) 1_555
ZR F2 2.0691(10) 2_555
ZR F3 2.1503(8) 1_555
ZR F3 2.1503(8) 2_555
ZR F3 2.1946(8) 3_556
ZR F3 2.1946(8) 4_554
ZR ZR 3.63462(9) 3_555
ZR K 3.8069(5) 1_555
ZR K 3.8320(5) 7_555
K F2 2.6897(11) 8_454
K F1 2.7236(10) 5_455
K F2 2.7240(11) 2_555
K F2 2.7418(12) 7_555
K F1 2.7879(10) 7_555
K F2 2.8048(11) 1_555
K F3 2.8256(8) 2_555
K F1 2.8274(10) 6_555
K F3 3.0206(11) 8_554
K F1 3.1272(10) 8_454
K K 3.4957(8) 2_554
K K 3.4650(8) 2_555
K K 3.5955(6) 3_565
K K 3.7061(6) 7_555
F1 F3 3.3534(13) 1_555
F1 F3 2.7852(12) 2_555
F1 F3 2.5309(13) 3_556
F1 F3 2.6190(13) 4_554
F1 ZR 2.0201(9) 1_555
F1 ZR 3.7823(9) 3_555
F1 K 2.7236(10) 5_545
F1 K 2.8274(10) 6_545
F1 K 2.7879(10) 7_555
F1 K 3.1272(10) 8_555
F1 F1 3.8039(12) 2_555
F1 F1 2.8122(12) 2_655
F1 F1 3.4826(13) 4_554
F1 F1 3.4826(13) 4_555
F1 F2 2.4381(13) 1_555
F1 F2 3.9052(13) 2_555
F1 F2 3.7618(14) 4_554
F1 F2 3.4029(13) 6_545
F2 F3 2.6263(14) 1_555
F2 F3 2.6588(13) 2_555
F2 F3 3.6821(12) 3_556
F2 F3 3.9448(12) 4_554
F2 F3 3.5266(13) 7_556
F2 F3 3.4188(13) 8_554
F2 ZR 2.0691(10) 1_555
F2 K 2.8048(11) 1_555
F2 K 2.7240(11) 2_555
F2 K 2.7418(12) 7_555
F2 K 2.6897(11) 8_555
F2 F1 2.4381(13) 1_555
F2 F1 3.9052(13) 2_555
F2 F1 3.7618(14) 4_555
F2 F1 3.4029(13) 6_555
F2 F2 2.5188(14) 2_555
F2 F2 3.4975(15) 7_556
F3 F3 2.8632(12) 2_556
F3 F3 2.3811(10) 3_556
F3 ZR 2.1503(8) 1_555
F3 ZR 2.1946(8) 3_556
F3 K 2.8256(8) 2_555
F3 K 3.0206(11) 8_455
F3 K 3.7112(11) 8_555
F3 F1 3.3534(13) 1_555
F3 F1 2.7852(12) 2_555
F3 F1 2.5309(13) 3_556
F3 F1 2.6190(13) 4_555
F3 F2 2.6263(14) 1_555
F3 F2 2.6588(13) 2_555
F3 F2 3.6821(12) 3_556
F3 F2 3.9448(12) 4_555
F3 F2 3.5266(13) 7_556
F3 F2 3.4188(13) 8_455
