#------------------------------------------------------------------------------
#$Date: 2016-02-13 21:28:24 +0200 (Sat, 13 Feb 2016) $
#$Revision: 176429 $
#$URL: svn://www.crystallography.net/cod/cif/1/52/94/1529443.cif $
#------------------------------------------------------------------------------
#
# This file is available in the Crystallography Open Database (COD),
# http://www.crystallography.net/
#
# All data on this site have been placed in the public domain by the
# contributors.
#
data_1529443
loop_
_publ_author_name
'Guo, Peng'
'Shin, Jiho'
'Greenaway, Alex G.'
'Min, Jung Gi'
'Su, Jie'
'Choi, Hyun June'
'Liu, Leifeng'
'Cox, Paul A.'
'Hong, Suk Bong'
'Wright, Paul A.'
'Zou, Xiaodong'
_publ_section_title
;
 A zeolite family with expanding structural complexity and embedded
 isoreticular structures
;
_journal_coeditor_notes          ' ?'
_journal_issue                   7563
_journal_name_full               Nature
_journal_page_first              74
_journal_page_last               78
_journal_paper_doi               10.1038/nature14575
_journal_techeditor_notes        ' ?'
_journal_volume                  524
_journal_year                    2015
_chemical_formula_moiety         Si1115Al325O2880,Na285O846
_chemical_formula_sum            'Al325 Na285 O3726 Si1115'
_chemical_formula_weight         106246
_chemical_name_common            calcinedhy_drated_ZSM-25
_chemical_name_systematic        ' ?'
_space_group_IT_number           229
_symmetry_cell_setting           cubic
_symmetry_Int_Tables_number      229
_symmetry_space_group_name_Hall  '-I 4 2 3'
_symmetry_space_group_name_H-M   'I m -3 m'
_cell_angle_alpha                90
_cell_angle_beta                 90
_cell_angle_gamma                90
_cell_formula_units_Z            1
_cell_length_a                   44.9242(16)
_cell_length_b                   44.9242(16)
_cell_length_c                   44.9242(16)
_cell_measurement_temperature    298
_cell_volume                     90665(6)
_computing_structure_refinement  TOPAS
_diffrn_ambient_temperature      298
_diffrn_measurement_device_type  Rigaku
_diffrn_radiation_probe          x-ray
_diffrn_radiation_type           'Cu K\a'
_diffrn_radiation_wavelength     1.5418
_exptl_crystal_density_diffrn    1.998
_pd_calc_method                  'Rietveld Refinement'
_pd_char_colour                  white
_pd_instr_location               ' ?'
_pd_meas_2theta_range_inc        0.016
_pd_meas_2theta_range_max        84
_pd_meas_2theta_range_min        5
_pd_proc_info_excluded_regions   ' ?'
_pd_proc_ls_prof_R_factor        0.02654
_pd_proc_ls_prof_wR_expected     0.880
_pd_proc_ls_prof_wR_factor       0.03403
_pd_spec_mounting                ' ?'
_refine_ls_goodness_of_fit_all   3.869
_refine_ls_matrix_type           full
_refine_ls_number_parameters     234
_refine_ls_number_restraints     174
_refine_ls_R_factor_all          0.0109
_refine_ls_R_Fsqd_factor         0.00532
_refine_ls_shift/su_max          0.002
_cod_data_source_file            nature14575-s2.cif
_cod_data_source_block           calcined_ZSM-25
_cod_original_formula_sum        Al325Na285O3726Si1115
_cod_database_code               1529443
loop_
_publ_contact_author_name
_publ_contact_author_address
_publ_contact_author_email
'Xiaodong Zou'
; 
Inorganic and Structural Chemistry and Berzelii Centre 
EXSELENT on Porous Materials, 
Department of Materials and Environmental Chemistry, 
Stockholm University, 
SE-106 91 Stockholm, Sweden.
;
xzou@mmk.su.se
'Paul A. Wright'
; 
EaStCHEM School of Chemistry, University of St Andrews, 
St. Andrews, 
KY16 9ST, UK.
;
paw2@st-andrews.ac.uk
'Suk Bong Hong'
;
Center for Ordered Nanoporous Materials Synthesis, 
School of Environmental Science and Engineering, 
POSTECH, Pohang 790-784, Korea.
;
sbhong@postech.ac.kr
loop_
_symmetry_equiv_pos_site_id
_symmetry_equiv_pos_as_xyz
1 x,y,z
2 -x,-y,z
3 -x,y,-z
4 x,-y,-z
5 z,x,y
6 z,-x,-y
7 -z,-x,y
8 -z,x,-y
9 y,z,x
10 -y,z,-x
11 y,-z,-x
12 -y,-z,x
13 y,x,-z
14 -y,-x,-z
15 y,-x,z
16 -y,x,z
17 x,z,-y
18 -x,z,y
19 -x,-z,-y
20 x,-z,y
21 z,y,-x
22 z,-y,x
23 -z,y,x
24 -z,-y,-x
25 -x,-y,-z
26 x,y,-z
27 x,-y,z
28 -x,y,z
29 -z,-x,-y
30 -z,x,y
31 z,x,-y
32 z,-x,y
33 -y,-z,-x
34 y,-z,x
35 -y,z,x
36 y,z,-x
37 -y,-x,z
38 y,x,z
39 -y,x,-z
40 y,-x,-z
41 -x,-z,y
42 x,-z,-y
43 x,z,y
44 -x,z,-y
45 -z,-y,x
46 -z,y,-x
47 z,-y,-x
48 z,y,x
49 x+1/2,y+1/2,z+1/2
50 -x+1/2,-y+1/2,z+1/2
51 -x+1/2,y+1/2,-z+1/2
52 x+1/2,-y+1/2,-z+1/2
53 z+1/2,x+1/2,y+1/2
54 z+1/2,-x+1/2,-y+1/2
55 -z+1/2,-x+1/2,y+1/2
56 -z+1/2,x+1/2,-y+1/2
57 y+1/2,z+1/2,x+1/2
58 -y+1/2,z+1/2,-x+1/2
59 y+1/2,-z+1/2,-x+1/2
60 -y+1/2,-z+1/2,x+1/2
61 y+1/2,x+1/2,-z+1/2
62 -y+1/2,-x+1/2,-z+1/2
63 y+1/2,-x+1/2,z+1/2
64 -y+1/2,x+1/2,z+1/2
65 x+1/2,z+1/2,-y+1/2
66 -x+1/2,z+1/2,y+1/2
67 -x+1/2,-z+1/2,-y+1/2
68 x+1/2,-z+1/2,y+1/2
69 z+1/2,y+1/2,-x+1/2
70 z+1/2,-y+1/2,x+1/2
71 -z+1/2,y+1/2,x+1/2
72 -z+1/2,-y+1/2,-x+1/2
73 -x+1/2,-y+1/2,-z+1/2
74 x+1/2,y+1/2,-z+1/2
75 x+1/2,-y+1/2,z+1/2
76 -x+1/2,y+1/2,z+1/2
77 -z+1/2,-x+1/2,-y+1/2
78 -z+1/2,x+1/2,y+1/2
79 z+1/2,x+1/2,-y+1/2
80 z+1/2,-x+1/2,y+1/2
81 -y+1/2,-z+1/2,-x+1/2
82 y+1/2,-z+1/2,x+1/2
83 -y+1/2,z+1/2,x+1/2
84 y+1/2,z+1/2,-x+1/2
85 -y+1/2,-x+1/2,z+1/2
86 y+1/2,x+1/2,z+1/2
87 -y+1/2,x+1/2,-z+1/2
88 y+1/2,-x+1/2,-z+1/2
89 -x+1/2,-z+1/2,y+1/2
90 x+1/2,-z+1/2,-y+1/2
91 x+1/2,z+1/2,y+1/2
92 -x+1/2,z+1/2,-y+1/2
93 -z+1/2,-y+1/2,x+1/2
94 -z+1/2,y+1/2,-x+1/2
95 z+1/2,-y+1/2,-x+1/2
96 z+1/2,y+1/2,x+1/2
loop_
_atom_site_label
_atom_site_type_symbol
_atom_site_fract_x
_atom_site_fract_y
_atom_site_fract_z
_atom_site_adp_type
_atom_site_U_iso_or_equiv
_atom_site_symmetry_multiplicity
_atom_site_occupancy
_atom_site_calc_flag
_atom_site_refinement_flags
_atom_site_disorder_assembly
_atom_site_disorder_group
Si1 Si 0.85377(18) 0.58409(19) 0.53672(15) Uiso 0.0101 96 0.7743 d . . .
Al1 Al 0.85377(18) 0.58409(19) 0.53672(15) Uiso 0.0101 96 0.2257 d . . .
Si2 Si 0.8122(2) 0.63597(18) 0.5360(2) Uiso 0.0101 96 0.7743 d . . .
Al2 Al 0.8122(2) 0.63597(18) 0.5360(2) Uiso 0.0101 96 0.2257 d . . .
Si3 Si 0.7430(3) 0.6407(2) 0.53384(16) Uiso 0.0101 96 0.7743 d . . .
Al3 Al 0.7430(3) 0.6407(2) 0.53384(16) Uiso 0.0101 96 0.2257 d . . .
Si4 Si 0.70190(11) 0.58385(10) 0.53443(11) Uiso 0.0101 96 0.7743 d . . .
Al4 Al 0.70190(11) 0.58385(10) 0.53443(11) Uiso 0.0101 96 0.2257 d . . .
Si5 Si 0.6317(3) 0.5813(2) 0.5314(3) Uiso 0.0101 96 0.7743 d . . .
Al5 Al 0.6317(3) 0.5813(2) 0.5314(3) Uiso 0.0101 96 0.2257 d . . .
Si6 Si 0.5764(3) 0.0826(3) 0.0334(3) Uiso 0.0101 96 0.7743 d . . .
Al6 Al 0.5764(3) 0.0826(3) 0.0334(3) Uiso 0.0101 96 0.2257 d . . .
Si7 Si 0.5353(3) 0.1403(3) 0.0311(3) Uiso 0.0101 96 0.7743 d . . .
Al7 Al 0.5353(3) 0.1403(3) 0.0311(3) Uiso 0.0101 96 0.2257 d . . .
Si8 Si 0.69641(18) 0.64745(17) 0.81374(18) Uiso 0.0101 96 0.7743 d . . .
Al8 Al 0.69641(18) 0.64745(17) 0.81374(18) Uiso 0.0101 96 0.2257 d . . .
Si9 Si 0.7429(3) 0.5764(3) 0.6969(2) Uiso 0.0101 96 0.7743 d . . .
Al9 Al 0.7429(3) 0.5764(3) 0.6969(2) Uiso 0.0101 96 0.2257 d . . .
Si10 Si 0.6947(2) 0.6469(2) 0.7454(2) Uiso 0.0101 96 0.7743 d . . .
Al10 Al 0.6947(2) 0.6469(2) 0.7454(2) Uiso 0.0101 96 0.2257 d . . .
Si11 Si 0.6938(2) 0.81595(19) 0.57615(19) Uiso 0.0101 96 0.7743 d . . .
Al11 Al 0.6938(2) 0.81595(19) 0.57615(19) Uiso 0.0101 96 0.2257 d . . .
Si12 Si 0.9643(3) 0.6994(2) 0.6474(3) Uiso 0.0101 96 0.7743 d . . .
Al12 Al 0.9643(3) 0.6994(2) 0.6474(3) Uiso 0.0101 96 0.2257 d . . .
Si13 Si 0.9240(3) 0.8072(3) 0.5357(3) Uiso 0.0101 96 0.7743 d . . .
Al13 Al 0.9240(3) 0.8072(3) 0.5357(3) Uiso 0.0101 96 0.2257 d . . .
Si14 Si 0.92309(19) 0.3548(2) 0.7536(2) Uiso 0.0101 96 0.7743 d . . .
Al14 Al 0.92309(19) 0.3548(2) 0.7536(2) Uiso 0.0101 96 0.2257 d . . .
Si15 Si 0.75 0.35159(16) 0.14841(16) Uiso 0.0101 48 0.7743 d . . .
Al15 Al 0.75 0.35159(16) 0.14841(16) Uiso 0.0101 48 0.2257 d . . .
Si16 Si 0.25 0.9248(3) 0.5752(3) Uiso 0.0101 48 0.7743 d . . .
Al16 Al 0.25 0.9248(3) 0.5752(3) Uiso 0.0101 48 0.2257 d . . .
O1 O 0.8296(2) 0.60668(16) 0.5513(3) Uiso 0.0152 96 1 d . . .
O2 O 0.77675(19) 0.6282(5) 0.5412(5) Uiso 0.0152 96 1 d . . .
O3 O 0.72077(18) 0.61341(12) 0.5435(4) Uiso 0.0152 96 1 d . . .
O4 O 0.66679(11) 0.5939(2) 0.5387(5) Uiso 0.0152 96 1 d . . .
O5 O 0.11073(18) 0.5919(5) 0.5412(4) Uiso 0.0152 96 1 d . . .
O6 O 0.5557(3) 0.1115(2) 0.0367(5) Uiso 0.0152 96 1 d . . .
O7 O 0.6884(5) 0.61225(14) 0.8223(5) Uiso 0.0152 96 1 d . . .
O8 O 0.70991(17) 0.77992(15) 0.6489(3) Uiso 0.0152 96 1 d . . .
O9 O 0.7373(5) 0.6883(4) 0.61079(18) Uiso 0.0152 96 1 d . . .
O11 O 0.77969(17) 0.5714(5) 0.7048(4) Uiso 0.0152 96 1 d . . .
O13 O 0.33596(19) 0.5574(3) 0.1780(5) Uiso 0.0152 96 1 d . . .
O14 O 0.33230(14) 0.55829(15) 0.2676(4) Uiso 0.0152 96 1 d . . .
O16 O 0.9387(3) 0.7805(2) 0.6642(3) Uiso 0.0152 96 1 d . . .
O17 O 0.9434(3) 0.8342(2) 0.4524(5) Uiso 0.0152 96 1 d . . .
O19 O 0.77738(18) 0.9345(5) 0.4479(3) Uiso 0.0152 96 1 d . . .
O20 O 0.77975(11) 0.66418(19) 0.8372(2) Uiso 0.0152 96 1 d . . .
O21 O 0.7472(3) 0.11204(13) 0.3453(3) Uiso 0.0152 96 1 d . . .
O22 O 0.6104(2) 0.0712(4) 0.2395(6) Uiso 0.0152 96 1 d . . .
O23 O 0.8875(2) 0.5398(5) 0.1871(4) Uiso 0.0152 96 1 d . . .
O26 O 0.3430(4) 0.2758(2) 0.0589(3) Uiso 0.0152 96 1 d . . .
O15 O 0.8195(7) 0.3596(7) 0.5 Uiso 0.0152 48 1 d . . .
O18 O 0.9309(9) 0.8004(9) 0.5 Uiso 0.0152 48 1 d . . .
O35 O 0.5719(8) 0.0681(6) 1 Uiso 0.0152 48 1 d . . .
O36 O 0.5411(10) 0.1566(5) 1 Uiso 0.0152 48 1 d . . .
O38 O 0.8490(5) 0.5817(6) 0.5 Uiso 0.0152 48 1 d . . .
O39 O 0.7372(6) 0.6556(4) 0.5 Uiso 0.0152 48 1 d . . .
O40 O 0.7089(6) 0.5726(5) 0.5 Uiso 0.0152 48 1 d . . .
O10 O 0.6277(8) 0.5643(6) 0.5 Uiso 0.0152 48 1 d . . .
O24 O 0.8484(7) 0.5 0.2082(8) Uiso 0.0152 48 1 d . . .
O31 O 0.5649(6) 0.0564(4) 0.0564(4) Uiso 0.0152 48 1 d . . .
O32 O 0.8470(7) 0.5509(3) 0.5509(3) Uiso 0.0152 48 1 d . . .
O33 O 0.7112(4) 0.5557(3) 0.5557(3) Uiso 0.0152 48 1 d . . .
O25 O 0.3318(3) 0.3318(3) 0.0440(6) Uiso 0.0152 48 1 d . . .
O27 O 0.6662(3) 0.6662(3) 0.8184(5) Uiso 0.0152 48 1 d . . .
O28 O 0.7243(4) 0.7243(4) 0.5631(4) Uiso 0.0152 48 1 d . . .
O29 O 0.6102(3) 0.6102(3) 0.5391(7) Uiso 0.0152 48 1 d . . .
O30 O 0.7181(4) 0.6592(5) 0.7181(4) Uiso 0.0152 48 1 d . . .
O34 O 0.625 0.5564(4) 0.5564(4) Uiso 0.0152 48 1 d . . .
O12 O 0.75 0.6634(3) 0.6634(3) Uiso 0.0152 48 1 d . . .
O37 O 0.5 0.1319(4) 0.0385(7) Uiso 0.0152 48 1 d . . .
Na1 Na 0 0.8155(17) 1 Uiso 0.0253 12 1 d . . .
Na3 Na 0.663(2) 0 0 Uiso 0.0253 12 1 d . . .
Na5 Na 0.6067(6) 0.6067(6) 0.2539(6) Uiso 0.0253 48 1 d . . .
Na6 Na 0.3892(4) 0.6108(4) 0.0320(4) Uiso 0.0253 48 0.5 d . . .
Na7 Na 0.8849(10) 0.5461(7) 0.3260(8) Uiso 0.0253 96 0.25 d . . .
Na8 Na 0.5 0.0945(7) 0.2824(8) Uiso 0.0253 48 1 d . . .
Na9 Na 0.2711(8) 0.5 0.8116(9) Uiso 0.0253 48 1 d . . .
Na10 Na 0.6999(6) 0.8957(7) 0.6999(6) Uiso 0.0253 48 1 d . . .
Na4 Na 0.5875(18) 0.4125(18) 0.4125(18) Uiso 0.0253 16 0.3 d . . .
Na2 Na 0.3442(3) 0.5416(10) 0.6558(3) Uiso 0.0253 48 0.329 d . . .
Ow1 O 0.142(8) 0.142(8) 0.142(8) Uiso 0.038 16 0.22 d . . .
Ow2 O 0.941(2) 0.5 0 Uiso 0.038 24 0.837 d . . .
Ow3 O 0.1267(3) 0.1267(3) 0.1267(3) Uiso 0.038 16 0.35 d . . .
Ow10 O 0.7691(6) 0.7691(6) 0.7691(6) Uiso 0.038 16 0.2177 d . . .
Ow20 O 0 0.266(11) 0 Uiso 0.038 12 0.5 d . . .
Ow25 O 0 0.740(12) 0 Uiso 0.038 12 0.5 d . . .
Ow4 O 0.553(3) 0 0 Uiso 0.038 12 1 d . . .
Ow5 O 0.1117(16) 0.6621(15) 0.1117(16) Uiso 0.038 48 1 d . . .
Ow6 O 0.7216(10) 0.0435(7) 0.0435(7) Uiso 0.038 48 1 d . . .
Ow7 O 0.1130(15) 0.6440(12) 0.1130(15) Uiso 0.038 48 1 d . . .
Ow8 O 0.3892(4) 0.6108(4) 0.0320(4) Uiso 0.038 48 0.5 d . . .
Ow9 O 0.0583(5) 0.5 0.9417(5) Uiso 0.038 24 1 d . . .
Ow11 O 0.5 0.2849(14) 0.2849(14) Uiso 0.038 24 1 d . . .
Ow12 O 0.347(2) 0.5914(17) 0.637(2) Uiso 0.038 96 0.42 d . . .
Ow13 O 0.3442(3) 0.5416(10) 0.6558(3) Uiso 0.038 48 0.671 d . . .
Ow14 O 0.8358(3) 0.8365(3) 0.8358(3) Uiso 0.038 48 0.42 d . . .
Ow15 O 0.76924(12) 0.76924(12) 0.76924(12) Uiso 0.038 16 0.565 d . . .
Ow16 O 0.8849(10) 0.5461(7) 0.3260(8) Uiso 0.038 96 0.75 d . . .
Ow17 O 0.905(3) 1 0 Uiso 0.038 12 1 d . . .
Ow18 O 0.125 0.5936(14) 0.875 Uiso 0.038 48 1 d . . .
Ow19 O 0.981(2) 0.0616(13) 0.0616(13) Uiso 0.038 48 0.582 d . . .
Ow21 O 0.2816(10) 0.7319(9) 0.0452(8) Uiso 0.038 96 1 d . . .
Ow22 O 0.2706(17) 0.5 0 Uiso 0.038 24 1 d . . .
Ow23 O 0.0950(8) 0.3862(11) 0.8478(9) Uiso 0.038 96 1 d . . .
Ow24 O 0.1140(11) 0.8076(8) 0.8860(11) Uiso 0.038 48 1 d . . .
Ow26 O 0.2315(4) 0.6704(8) 0.7685(4) Uiso 0.038 48 1 d . . .
loop_
_atom_type_symbol
_atom_type_scat_dispersion_real
_atom_type_scat_dispersion_imag
_atom_type_scat_source
C 0.0033 0.0016 'International Tables Vol C tables 4.2.6.8 and 6.1.1.1'
Al 0.0645 0.0514 'International Tables Vol C tables 4.2.6.8 and 6.1.1.1'
N 0.0061 0.0033 'International Tables Vol C tables 4.2.6.8 and 6.1.1.1'
Na 0.0362 0.0249 'International Tables Vol C tables 4.2.6.8 and 6.1.1.1'
O 0.0106 0.0060 'International Tables Vol C tables 4.2.6.8 and 6.1.1.1'
Si 0.0817 0.0704 'International Tables Vol C tables 4.2.6.8 and 6.1.1.1'
loop_
_geom_angle_atom_site_label_1
_geom_angle_atom_site_label_2
_geom_angle_atom_site_label_3
_geom_angle_site_symmetry_1
_geom_angle_site_symmetry_2
_geom_angle_site_symmetry_3
_geom_angle
O1 Si1 O5 . . 28_655 117.7(9)
O1 Si1 O38 . . . 110.7(11)
O1 Si1 O32 . . . 106.6(11)
O5 Si1 O38 28_655 . . 105.1(10)
O5 Si1 O32 28_655 . . 109.0(14)
O38 Si1 O32 . . . 107.3(12)
O1 Al1 O5 . . 28_655 117.7(9)
O1 Al1 O38 . . . 110.7(11)
O1 Al1 O32 . . . 106.6(11)
O5 Al1 O38 28_655 . . 105.1(10)
O5 Al1 O32 28_655 . . 109.0(14)
O38 Al1 O32 . . . 107.3(12)
O2 Si2 O13 . . 7_665 109.7(12)
O2 Si2 O15 . . 4_566 110.7(14)
O13 Si2 O15 7_665 . 4_566 115.1(13)
O1 Al2 O2 . . . 103.0(9)
O1 Al2 O13 . . 7_665 103.7(8)
O1 Al2 O15 . . 4_566 113.7(13)
O2 Al2 O13 . . 7_665 109.7(12)
O2 Al2 O15 . . 4_566 110.7(14)
O13 Al2 O15 7_665 . 4_566 115.1(13)
O2 Si3 O3 . . . 104.5(9)
O2 Al3 O3 . . . 104.5(9)
O2 Al3 O39 . . . 117.3(13)
O3 Al3 O39 . . . 116.3(11)
O3 Si4 O4 . . . 104.3(5)
O3 Si4 O40 . . . 112.6(11)
O3 Si4 O33 . . . 110.5(8)
O4 Si4 O40 . . . 111.8(12)
O4 Si4 O33 . . . 112.7(9)
O40 Si4 O33 . . . 105.1(9)
O3 Al4 O4 . . . 104.3(5)
O3 Al4 O40 . . . 112.6(11)
O3 Al4 O33 . . . 110.5(8)
O4 Al4 O40 . . . 111.8(12)
O4 Al4 O33 . . . 112.7(9)
O40 Al4 O33 . . . 105.1(9)
O10 Si5 O29 . . . 119.4(16)
O10 Si5 O34 . . . 104.9(12)
O29 Si5 O34 . . . 107.0(11)
O10 Al5 O29 . . . 119.4(16)
O10 Al5 O34 . . . 104.9(12)
O29 Al5 O34 . . . 107.0(11)
O5 Si6 O6 49_544 . . 108.7(11)
O5 Si6 O35 49_544 . 1_554 114.3(16)
O5 Si6 O31 49_544 . . 110.2(13)
O6 Si6 O35 . . 1_554 109.2(15)
O6 Si6 O31 . . . 109.9(12)
O35 Si6 O31 1_554 . . 104.3(13)
O5 Al6 O6 49_544 . . 108.7(11)
O5 Al6 O35 49_544 . 1_554 114.3(16)
O5 Al6 O31 49_544 . . 110.2(13)
O6 Al6 O35 . . 1_554 109.2(15)
O6 Al6 O31 . . . 109.9(12)
O35 Al6 O31 1_554 . . 104.3(13)
O6 Si7 O36 . . 1_554 114.3(16)
O6 Si7 O37 . . . 109.3(10)
O36 Si7 O37 1_554 . . 116(2)
O6 Al7 O36 . . 1_554 114.3(16)
O6 Al7 O37 . . . 109.3(10)
O36 Al7 O37 1_554 . . 116(2)
O7 Si8 O8 . . 43_555 109.4(10)
O7 Si8 O20 . . 67_666 114.0(9)
O7 Si8 O27 . . . 106.5(10)
O8 Si8 O20 43_555 . 67_666 107.9(6)
O8 Si8 O27 43_555 . . 114.2(10)
O20 Si8 O27 67_666 . . 104.9(8)
O7 Al8 O8 . . 43_555 109.4(10)
O7 Al8 O20 . . 67_666 114.0(9)
O7 Al8 O27 . . . 106.5(10)
O8 Al8 O20 43_555 . 67_666 107.9(6)
O8 Al8 O27 43_555 . . 114.2(10)
O20 Al8 O27 67_666 . . 104.9(8)
O9 Si9 O14 43_555 . 46_656 104.0(9)
O9 Si9 O28 43_555 . 9_555 117.2(11)
O14 Si9 O28 46_656 . 9_555 106.4(10)
O9 Al9 O14 43_555 . 46_656 104.0(9)
O9 Al9 O28 43_555 . 9_555 117.2(11)
O14 Al9 O28 46_656 . 9_555 106.4(10)
O8 Al10 O9 43_555 . 9_555 108.7(10)
O8 Al10 O12 43_555 . 9_555 102.2(6)
O9 Al10 O12 9_555 . 9_555 108.8(9)
O7 Si11 O13 43_555 . 41_665 111.1(11)
O7 Si11 O16 43_555 . 81_666 114.6(10)
O13 Si11 O16 41_665 . 81_666 106.8(9)
O7 Al11 O13 43_555 . 41_665 111.1(11)
O7 Al11 O16 43_555 . 81_666 114.6(10)
O13 Al11 O16 41_665 . 81_666 106.8(9)
O23 Si12 O26 58_656 . 24_666 114.4(12)
O23 Si12 O24 58_656 . 58_656 107.0(15)
O26 Si12 O24 24_666 . 58_656 115.8(14)
O23 Al12 O26 58_656 . 24_666 114.4(12)
O23 Al12 O24 58_656 . 58_656 107.0(15)
O26 Al12 O24 24_666 . 58_656 115.8(14)
O17 Si13 O19 26_556 . 13_556 108.7(11)
O17 Si13 O23 26_556 . 20_565 112.7(11)
O17 Si13 O18 26_556 . . 111.1(17)
O19 Si13 O23 13_556 . 20_565 111.6(12)
O19 Si13 O18 13_556 . . 103.7(16)
O23 Si13 O18 20_565 . . 108.6(17)
O17 Al13 O19 26_556 . 13_556 108.7(11)
O17 Al13 O23 26_556 . 20_565 112.7(11)
O17 Al13 O18 26_556 . . 111.1(17)
O19 Al13 O23 13_556 . 20_565 111.6(12)
O19 Al13 O18 13_556 . . 103.7(16)
O23 Al13 O18 20_565 . . 108.6(17)
O16 Si14 O21 20_565 . 35_655 113.7(9)
O16 Si14 O22 20_565 . 14_666 107.2(11)
O16 Si14 O26 20_565 . 8_656 102.4(8)
O21 Si14 O22 35_655 . 14_666 115.6(9)
O21 Si14 O26 35_655 . 8_656 104.4(9)
O22 Si14 O26 14_666 . 8_656 112.8(12)
O16 Al14 O21 20_565 . 35_655 113.7(9)
O16 Al14 O22 20_565 . 14_666 107.2(11)
O16 Al14 O26 20_565 . 8_656 102.4(8)
O21 Al14 O22 35_655 . 14_666 115.6(9)
O21 Al14 O26 35_655 . 8_656 104.4(9)
O22 Al14 O26 14_666 . 8_656 112.8(12)
O20 Si15 O20 4_566 . 66_644 108.7(6)
O20 Si15 O21 4_566 . 73_655 107.1(6)
O20 Si15 O21 4_566 . 43_555 112.1(7)
O20 Si15 O21 66_644 . 73_655 112.1(7)
O20 Si15 O21 66_644 . 43_555 107.1(6)
O21 Si15 O21 73_655 . 43_555 109.8(8)
O20 Al15 O20 4_566 . 66_644 108.7(6)
O20 Al15 O21 4_566 . 73_655 107.1(6)
O20 Al15 O21 4_566 . 43_555 112.1(7)
O20 Al15 O21 66_644 . 73_655 112.1(7)
O20 Al15 O21 66_644 . 43_555 107.1(6)
O21 Al15 O21 73_655 . 43_555 109.8(8)
O19 Si16 O19 3_656 . 65_456 102.6(10)
O19 Si16 O22 3_656 . 55_565 113.1(12)
O19 Si16 O22 3_656 . 22_565 110.7(10)
O19 Si16 O22 65_456 . 55_565 110.7(10)
O19 Si16 O22 65_456 . 22_565 113.1(12)
O22 Si16 O22 55_565 . 22_565 106.8(11)
O19 Al16 O19 3_656 . 65_456 102.6(10)
O19 Al16 O22 3_656 . 55_565 113.1(12)
O19 Al16 O22 3_656 . 22_565 110.7(10)
O19 Al16 O22 65_456 . 55_565 110.7(10)
O19 Al16 O22 65_456 . 22_565 113.1(12)
O22 Al16 O22 55_565 . 22_565 106.8(11)
loop_
_geom_bond_atom_site_label_1
_geom_bond_atom_site_label_2
_geom_bond_site_symmetry_1
_geom_bond_site_symmetry_2
_geom_bond_distance
Si1 O1 . . 1.625(13)
Si1 O5 . 28_655 1.645(12)
Si1 O38 . . 1.667(8)
Si1 O32 . . 1.651(17)
Al1 O1 . . 1.625(13)
Al1 O5 . 28_655 1.645(12)
Al1 O38 . . 1.667(8)
Al1 O32 . . 1.651(17)
Si2 O2 . . 1.647(14)
Si2 O13 . 7_665 1.646(15)
Si2 O15 . 4_566 1.662(11)
Al2 O1 . . 1.678(13)
Al2 O2 . . 1.647(14)
Al2 O13 . 7_665 1.646(15)
Al2 O15 . 4_566 1.662(11)
Si3 O2 . . 1.653(16)
Si3 O3 . . 1.641(13)
Al3 O2 . . 1.653(16)
Al3 O3 . . 1.641(13)
Al3 O39 . . 1.680(11)
Si4 O3 . . 1.628(9)
Si4 O4 . . 1.651(8)
Si4 O40 . . 1.657(10)
Si4 O33 . . 1.639(15)
Al4 O3 . . 1.628(9)
Al4 O4 . . 1.651(8)
Al4 O40 . . 1.657(10)
Al4 O33 . . 1.639(15)
Si5 O10 . . 1.616(18)
Si5 O29 . . 1.652(18)
Si5 O34 . . 1.614(19)
Al5 O10 . . 1.616(18)
Al5 O29 . . 1.652(18)
Al5 O34 . . 1.614(19)
Si6 O5 . 49_544 1.634(17)
Si6 O6 . . 1.605(17)
Si6 O35 . 1_554 1.651(17)
Si6 O31 . . 1.65(2)
Al6 O5 . 49_544 1.634(17)
Al6 O6 . . 1.605(17)
Al6 O35 . 1_554 1.651(17)
Al6 O31 . . 1.65(2)
Si7 O6 . . 1.607(17)
Si7 O36 . 1_554 1.598(18)
Si7 O37 . . 1.663(15)
Al7 Al7 . 26_555 2.796(18)
Al7 O6 . . 1.607(17)
Al7 O36 . 1_554 1.598(18)
Al7 O37 . . 1.663(15)
Si8 O7 . . 1.666(12)
Si8 O8 . 43_555 1.637(11)
Si8 O20 . 67_666 1.615(11)
Si8 O27 . . 1.611(17)
Al8 Al15 . 4_566 2.948(9)
Al8 O7 . . 1.666(12)
Al8 O8 . 43_555 1.637(11)
Al8 O20 . 67_666 1.615(11)
Al8 O27 . . 1.611(17)
Si9 O9 . 43_555 1.613(15)
Si9 O14 . 46_656 1.615(13)
Si9 O28 . 9_555 1.60(2)
Al9 Al9 . 48_555 2.922(15)
Al9 O9 . 43_555 1.613(15)
Al9 O14 . 46_656 1.615(13)
Al9 O28 . 9_555 1.60(2)
Si10 O12 . 9_555 1.604(16)
Al10 O8 . 43_555 1.695(12)
Al10 O9 . 9_555 1.687(14)
Al10 O12 . 9_555 1.604(16)
Si11 O7 . 43_555 1.665(12)
Si11 O13 . 41_665 1.605(15)
Si11 O16 . 81_666 1.602(15)
Al11 Al14 . 94_656 2.934(15)
Al11 O7 . 43_555 1.665(12)
Al11 O13 . 41_665 1.605(15)
Al11 O16 . 81_666 1.602(15)
Al11 Na7 . 30_655 3.49(4)
Si12 O23 . 58_656 1.672(16)
Si12 O26 . 24_666 1.585(17)
Si12 O24 . 58_656 1.662(15)
Al12 O23 . 58_656 1.672(16)
Al12 O26 . 24_666 1.585(17)
Al12 O24 . 58_656 1.662(15)
Si13 O17 . 26_556 1.587(18)
Si13 O19 . 13_556 1.601(18)
Si13 O23 . 20_565 1.668(16)
Si13 O18 . . 1.662(16)
Al13 O17 . 26_556 1.587(18)
Al13 O19 . 13_556 1.601(18)
Al13 O23 . 20_565 1.668(16)
Al13 O18 . . 1.662(16)
Si14 O16 . 20_565 1.635(15)
Si14 O21 . 35_655 1.659(11)
Si14 O22 . 14_666 1.618(15)
Si14 O26 . 8_656 1.636(16)
Al14 O16 . 20_565 1.635(15)
Al14 O21 . 35_655 1.659(11)
Al14 O22 . 14_666 1.618(15)
Al14 O26 . 8_656 1.636(16)
Si15 O20 . 4_566 1.646(8)
Si15 O20 . 66_644 1.646(8)
Si15 O21 . 73_655 1.663(10)
Si15 O21 . 43_555 1.663(10)
Al15 O20 . 4_566 1.646(8)
Al15 O20 . 66_644 1.646(8)
Al15 O21 . 73_655 1.663(10)
Al15 O21 . 43_555 1.663(10)
Si16 O19 . 3_656 1.667(15)
Si16 O19 . 65_456 1.667(15)
Si16 O22 . 55_565 1.659(17)
Si16 O22 . 22_565 1.659(17)
Al16 O19 . 3_656 1.667(15)
Al16 O19 . 65_456 1.667(15)
Al16 O22 . 55_565 1.659(17)
Al16 O22 . 22_565 1.659(17)
loop_
_pd_meas_intensity_total
_pd_calc_intensity_total
25468.00000 24969.34292
25451.00000 24953.57126
25224.00000 24937.24364
25252.00000 24920.35185
25499.00000 24902.89429
25342.00000 24884.87446
24933.00000 24866.30015
24986.00000 24847.18309
24925.00000 24827.53889
24816.00000 24807.38674
25052.00000 24786.74881
24862.00000 24765.65188
25194.00000 24744.11055
24843.00000 24722.07773
24616.00000 24699.58361
24783.00000 24676.65026
25007.00000 24653.29192
24813.00000 24629.49355
24651.00000 24605.21343
24795.00000 24580.51455
24644.00000 24555.41009
24673.00000 24529.91519
24529.00000 24504.04695
24604.00000 24477.82461
24728.00000 24451.26956
24744.00000 24424.40549
24916.00000 24397.25791
24680.00000 24369.85275
25004.00000 24342.21275
24595.00000 24314.34885
24610.00000 24286.24171
24669.00000 24257.80530
24722.00000 24228.82753
24878.00000 24198.91194
24724.00000 24167.51258
24466.00000 24134.19991
24221.00000 24099.15751
24247.00000 24063.25251
23813.00000 24027.26852
23719.00000 23991.61184
23814.00000 23956.36854
23736.00000 23921.45767
23702.00000 23886.69495
23763.00000 23852.04036
23547.00000 23817.42164
23397.00000 23782.79078
23362.00000 23748.11899
23378.00000 23713.39187
23315.00000 23678.60581
23352.00000 23643.76543
23338.00000 23608.88203
23142.00000 23573.97274
23415.00000 23539.06030
23237.00000 23504.17422
23004.00000 23469.35785
22895.00000 23434.63952
23019.00000 23399.99232
22715.00000 23365.52420
23181.00000 23331.29336
23046.00000 23297.37928
22927.00000 23263.86715
22558.00000 23230.84210
22832.00000 23198.41928
22613.00000 23166.72255
22653.00000 23135.87509
22754.00000 23106.06036
22911.00000 23077.44398
22581.00000 23050.16216
22528.00000 23024.24808
22490.00000 22999.47334
22591.00000 22975.03994
22221.00000 22949.07339
22367.00000 22918.07860
22127.00000 22877.11335
22106.00000 22821.91152
22102.00000 22752.51961
22270.00000 22674.43994
22275.00000 22595.15754
22161.00000 22520.06844
21948.00000 22451.06304
22201.00000 22387.89313
22153.00000 22329.51153
21800.00000 22274.90231
22121.00000 22222.99651
21799.00000 22173.11737
21940.00000 22124.75706
21976.00000 22077.56620
21751.00000 22031.36996
21696.00000 21986.03849
21666.00000 21941.46382
21580.00000 21897.59913
21928.00000 21854.42716
21609.00000 21811.79364
21290.00000 21769.62315
21570.00000 21727.85296
21436.00000 21686.43476
21519.00000 21645.33418
21514.00000 21604.52851
21092.00000 21564.00335
21419.00000 21523.75142
21506.00000 21483.77156
21087.00000 21444.06797
21081.00000 21404.65012
21387.00000 21365.53499
21178.00000 21326.75921
21616.00000 21288.34574
21422.00000 21250.15324
21090.00000 21212.21781
21113.00000 21174.60747
21104.00000 21137.32056
21138.00000 21100.37860
21320.00000 21063.95265
20894.00000 21028.00927
20752.00000 20992.61686
21101.00000 20957.83569
20809.00000 20923.73399
20879.00000 20890.37500
20834.00000 20857.83029
21157.00000 20826.18405
20607.00000 20795.53643
20895.00000 20766.00611
20784.00000 20737.73159
20554.00000 20710.86936
20541.00000 20685.58822
20945.00000 20662.06320
20667.00000 20640.47641
20828.00000 20621.02704
20524.00000 20603.94742
20401.00000 20589.52806
20614.00000 20578.14197
20799.00000 20570.36002
20471.00000 20566.58908
20532.00000 20565.98616
20440.00000 20570.30119
20469.00000 20580.06560
20412.00000 20595.69382
20312.00000 20617.27692
20549.00000 20644.00834
20435.00000 20673.18508
20551.00000 20698.60316
20373.00000 20708.80772
20655.00000 20687.31320
20299.00000 20618.39254
20535.00000 20498.23098
20252.00000 20341.37536
20238.00000 20172.85757
20247.00000 20013.87377
20148.00000 19875.03887
19758.00000 19758.38629
19894.00000 19661.60068
19869.00000 19581.11473
19743.00000 19513.71405
19460.00000 19456.76401
19544.00000 19408.35492
19582.00000 19367.15141
19515.00000 19332.24274
19387.00000 19302.95661
19551.00000 19278.67793
19750.00000 19259.03677
19308.00000 19243.80275
19457.00000 19232.89525
19325.00000 19226.43023
19626.00000 19224.65736
19415.00000 19227.20663
19404.00000 19233.89288
19409.00000 19245.66747
19199.00000 19262.64368
19512.00000 19284.52729
19349.00000 19310.25247
19274.00000 19337.04587
19576.00000 19359.36664
19289.00000 19368.16565
19244.00000 19352.36874
18864.00000 19304.23579
19072.00000 19227.71767
19339.00000 19138.46680
19304.00000 19052.18708
19134.00000 18978.73920
19066.00000 18921.73966
18924.00000 18881.08579
19005.00000 18855.06512
19017.00000 18841.73057
19002.00000 18839.83232
19140.00000 18848.45426
18898.00000 18867.07692
19092.00000 18895.50787
19024.00000 18933.80732
18967.00000 18982.26145
19071.00000 19041.38856
19289.00000 19111.95211
19176.00000 19194.96369
19254.00000 19291.66335
19250.00000 19403.45808
19377.00000 19532.27555
19183.00000 19678.87822
19300.00000 19842.98005
19519.00000 20021.72978
19959.00000 20206.76375
19904.00000 20379.95698
19882.00000 20509.30932
19783.00000 20550.06507
19681.00000 20460.11520
19424.00000 20228.11413
19535.00000 19890.13970
19412.00000 19511.61400
18942.00000 19151.46539
18742.00000 18842.65765
18660.00000 18594.72405
18249.00000 18404.03107
18364.00000 18262.07074
18301.00000 18160.00102
18301.00000 18090.31134
17993.00000 18046.37856
17837.00000 18023.72230
18210.00000 18019.97988
18002.00000 18033.35472
18000.00000 18062.84177
17991.00000 18107.77830
17932.00000 18168.27637
17924.00000 18244.82260
18105.00000 18338.02864
17858.00000 18448.55292
17509.00000 18576.04972
17634.00000 18717.31403
17895.00000 18864.83180
17663.00000 19002.85467
17684.00000 19103.86272
17513.00000 19129.55345
17398.00000 19043.31833
17524.00000 18833.54937
17694.00000 18528.49600
17637.00000 18182.83882
17457.00000 17848.01100
17518.00000 17554.49695
17610.00000 17312.56499
17407.00000 17120.44548
17335.00000 16971.37778
17358.00000 16857.76378
17364.00000 16772.89315
17466.00000 16711.39665
17438.00000 16669.18609
17348.00000 16643.29692
17215.00000 16631.62650
17393.00000 16632.62868
17286.00000 16645.68642
17206.00000 16669.86590
17093.00000 16703.71977
17162.00000 16747.80964
17327.00000 16801.39143
17226.00000 16862.70138
17195.00000 16927.90815
17258.00000 16989.69044
17147.00000 17036.23849
17196.00000 17052.59170
17199.00000 17026.61602
17111.00000 16957.72455
17030.00000 16860.15836
17162.00000 16755.86068
17032.00000 16663.57800
17251.00000 16593.97933
17393.00000 16550.82281
17043.00000 16534.00221
17325.00000 16541.96820
17297.00000 16573.01696
17294.00000 16626.01138
17577.00000 16699.59123
17458.00000 16793.09447
17652.00000 16906.24815
17772.00000 17039.13587
17703.00000 17192.20113
17735.00000 17366.18230
17972.00000 17561.49247
17827.00000 17777.06614
18410.00000 18011.57535
18285.00000 18259.28410
18601.00000 18507.78944
18766.00000 18734.43310
18757.00000 18904.98813
19086.00000 18980.72653
18767.00000 18936.91414
18658.00000 18784.51213
18384.00000 18577.68520
18335.00000 18372.15496
18123.00000 18207.07947
18001.00000 18100.87205
17985.00000 18057.49914
18124.00000 18073.80510
18069.00000 18144.44319
18084.00000 18264.42549
18089.00000 18430.18878
18490.00000 18639.81644
18748.00000 18892.89711
19127.00000 19190.26982
19223.00000 19533.58685
19610.00000 19925.30794
19892.00000 20366.50346
20480.00000 20852.92251
20909.00000 21373.33106
21362.00000 21901.32819
21641.00000 22385.54367
21956.00000 22741.66819
21679.00000 22859.46733
21593.00000 22640.19721
20793.00000 22057.66761
20412.00000 21192.39154
19360.00000 20194.59933
18748.00000 19208.43742
18082.00000 18324.17902
17708.00000 17578.30118
17314.00000 16971.70159
16913.00000 16487.99939
16637.00000 16105.81515
16627.00000 15804.75064
16577.00000 15567.59423
16438.00000 15380.64544
16670.00000 15233.24093
16474.00000 15117.32890
16260.00000 15027.77626
16137.00000 14959.34832
16250.00000 14908.83957
16613.00000 14874.02440
16476.00000 14853.38419
16559.00000 14845.98649
16396.00000 14851.41962
16441.00000 14869.73811
16414.00000 14901.45977
16547.00000 14947.60857
16396.00000 15009.77808
16897.00000 15090.22344
16576.00000 15191.96616
16563.00000 15318.85041
16681.00000 15475.53253
16656.00000 15667.19252
16669.00000 15898.81591
16897.00000 16174.40036
17016.00000 16497.99671
17126.00000 16868.54150
17315.00000 17285.45145
17601.00000 17747.95283
17752.00000 18255.43915
18130.00000 18807.70558
18652.00000 19404.91618
18999.00000 20047.39113
19387.00000 20735.17004
19697.00000 21467.51383
20293.00000 22242.72656
21070.00000 23059.09475
21549.00000 23917.33143
22484.00000 24823.81103
23452.00000 25791.21589
24340.00000 26835.92023
25651.00000 27974.33461
26665.00000 29221.13243
28023.00000 30590.67213
29691.00000 32097.49165
31699.00000 33756.64551
33592.00000 35585.52697
35952.00000 37607.13606
38486.00000 39843.78274
41528.00000 42311.10385
44850.00000 45023.89376
48929.00000 47983.96788
52240.00000 51165.05025
56536.00000 54486.53673
60316.00000 57773.00530
63251.00000 60705.07061
64899.00000 62792.74553
65329.00000 63440.70033
62707.00000 62169.14233
59353.00000 58914.81787
54148.00000 54155.43566
48405.00000 48690.47337
42691.00000 43271.09729
37486.00000 38381.55034
33162.00000 34230.92056
29576.00000 30841.79235
27608.00000 28141.13027
25419.00000 26021.98003
24404.00000 24376.80393
23615.00000 23111.68477
23345.00000 22158.70974
22984.00000 21445.10636
22322.00000 20923.44048
21765.00000 20554.54737
21421.00000 20302.27284
21117.00000 20128.20669
20695.00000 19986.74523
20212.00000 19823.83243
19379.00000 19585.18507
18983.00000 19236.01770
18601.00000 18781.72463
18110.00000 18267.23838
17831.00000 17757.78412
17424.00000 17299.62574
16941.00000 16917.76138
17074.00000 16620.51932
16865.00000 16405.74909
16478.00000 16266.99554
16578.00000 16196.59187
16433.00000 16187.13217
16492.00000 16232.07644
16582.00000 16325.71356
16639.00000 16462.80037
16109.00000 16637.46501
16531.00000 16841.81141
16565.00000 17064.00369
16735.00000 17285.85630
16629.00000 17484.16729
16767.00000 17634.52937
16735.00000 17722.89930
16972.00000 17755.52859
17055.00000 17763.41226
17294.00000 17783.85749
17146.00000 17845.49351
17527.00000 17965.56327
17716.00000 18152.25980
18095.00000 18408.22945
18267.00000 18735.22076
18916.00000 19132.66059
19179.00000 19599.59466
19584.00000 20135.06069
20411.00000 20735.44513
20557.00000 21391.49390
21264.00000 22082.97732
21995.00000 22770.97857
22196.00000 23389.56444
22509.00000 23843.00383
22581.00000 24020.70089
22318.00000 23838.06051
22006.00000 23287.66375
21461.00000 22458.92037
20437.00000 21500.31834
19797.00000 20556.50696
19213.00000 19728.91642
18627.00000 19070.77730
18557.00000 18599.95660
18318.00000 18313.51960
18254.00000 18198.45137
18265.00000 18238.07706
18551.00000 18416.58608
18932.00000 18718.80334
19205.00000 19130.72546
19538.00000 19645.41699
20351.00000 20253.53059
21166.00000 20950.27309
21320.00000 21732.62961
21936.00000 22599.48829
23165.00000 23552.42198
23886.00000 24596.42686
24933.00000 25740.34071
25744.00000 26996.06800
27025.00000 28377.32945
28632.00000 29898.72803
30181.00000 31575.67604
32254.00000 33424.30906
34542.00000 35461.06993
37294.00000 37701.24080
39696.00000 40155.87566
43128.00000 42825.66881
46223.00000 45690.37886
49820.00000 48690.82516
52400.00000 51701.46088
54694.00000 54495.55473
56403.00000 56717.42046
56402.00000 57840.21787
55314.00000 57449.90251
52990.00000 55361.10126
48933.00000 51793.45775
44501.00000 47296.05923
39764.00000 42497.09104
34916.00000 37888.30434
30769.00000 33755.58046
27451.00000 30211.56572
24299.00000 27257.56875
22268.00000 24836.73099
20643.00000 22870.49699
19424.00000 21279.37456
18610.00000 19991.93561
17813.00000 18948.23996
17391.00000 18099.71031
17058.00000 17407.82349
16609.00000 16842.35821
16452.00000 16379.73585
16105.00000 16001.56927
15989.00000 15693.55701
15711.00000 15444.57670
15698.00000 15247.51422
15668.00000 15093.69139
15398.00000 14978.17336
15485.00000 14897.02994
15296.00000 14847.43956
15326.00000 14827.25602
15154.00000 14834.86055
15029.00000 14869.23068
15259.00000 14928.52779
15256.00000 15010.54999
15508.00000 15111.58929
15223.00000 15225.26575
15504.00000 15341.35444
15516.00000 15445.51885
15540.00000 15521.59960
15746.00000 15557.58184
15724.00000 15553.13691
15950.00000 15522.94990
16051.00000 15492.23139
16229.00000 15487.75171
16570.00000 15531.61666
16622.00000 15638.94275
16818.00000 15819.36785
17410.00000 16078.75991
17624.00000 16420.24790
18000.00000 16842.04390
18356.00000 17342.83459
18980.00000 17920.77059
19535.00000 18573.88045
20180.00000 19301.33275
21094.00000 20101.54151
21738.00000 20974.18782
22643.00000 21920.73525
23136.00000 22946.14594
24438.00000 24059.96147
25516.00000 25275.69273
26574.00000 26608.92191
27520.00000 28075.55341
29349.00000 29690.87303
31175.00000 31468.90166
32814.00000 33421.12654
35220.00000 35553.83204
37552.00000 37862.75549
39795.00000 40323.73176
42628.00000 42877.68542
45311.00000 45402.26311
47207.00000 47682.21797
48912.00000 49412.99663
49699.00000 50231.22443
48996.00000 49826.56080
46729.00000 48096.62385
44099.00000 45235.08678
40709.00000 41661.66725
36239.00000 37845.13377
32923.00000 34156.93868
29264.00000 30821.91460
26454.00000 27938.50845
24180.00000 25519.99624
22324.00000 23532.05537
20965.00000 21919.55485
20025.00000 20622.87348
18859.00000 19586.11766
18465.00000 18759.84841
18123.00000 18102.69766
17847.00000 17580.36944
17570.00000 17164.80201
17087.00000 16834.67625
17005.00000 16578.17747
16914.00000 16385.22270
16799.00000 16253.18232
16469.00000 16181.75142
16582.00000 16171.07366
16192.00000 16220.91590
16451.00000 16330.31558
16419.00000 16497.45382
16457.00000 16719.91475
16377.00000 16992.41167
16381.00000 17306.63178
16776.00000 17649.70405
16790.00000 18002.18680
16950.00000 18337.86720
16895.00000 18627.68976
17240.00000 18849.38043
17358.00000 18999.38072
17329.00000 19098.05576
17524.00000 19182.68985
18015.00000 19294.43489
18409.00000 19466.18374
18663.00000 19719.22585
19077.00000 20064.28920
19643.00000 20504.15503
20159.00000 21034.17130
20853.00000 21638.41555
21315.00000 22290.30367
21949.00000 22946.28728
22519.00000 23536.57770
23266.00000 23967.41931
23103.00000 24134.65938
22824.00000 23955.89089
22423.00000 23412.81485
21911.00000 22568.42683
21241.00000 21543.28110
19765.00000 20466.84737
18959.00000 19439.63665
18191.00000 18522.89903
17412.00000 17743.74774
17061.00000 17105.65524
16520.00000 16598.41236
16511.00000 16205.03523
16205.00000 15905.34322
16119.00000 15677.54734
15872.00000 15498.53391
15884.00000 15344.41440
15794.00000 15194.06334
15416.00000 15030.55043
15331.00000 14849.31780
15238.00000 14658.27739
15083.00000 14472.56184
15222.00000 14307.68477
14817.00000 14175.06963
14704.00000 14081.21237
14815.00000 14028.65577
14660.00000 14019.37601
14686.00000 14050.62797
15022.00000 14119.97949
14900.00000 14225.79807
14970.00000 14366.49937
15135.00000 14542.17056
15332.00000 14753.38270
15696.00000 15001.59668
15932.00000 15289.18686
16079.00000 15619.42527
16393.00000 15996.41255
16944.00000 16424.86265
17229.00000 16910.13889
17819.00000 17457.10106
18501.00000 18068.41316
19510.00000 18744.72996
19843.00000 19482.71007
20452.00000 20272.68233
21519.00000 21095.33386
22072.00000 21918.08925
22720.00000 22693.33098
23053.00000 23362.75391
23832.00000 23869.64640
24050.00000 24186.53527
24006.00000 24348.03512
23903.00000 24424.10975
24486.00000 24499.30270
24501.00000 24646.92249
24326.00000 24916.81050
25060.00000 25334.79055
25784.00000 25905.94507
26171.00000 26616.65008
27741.00000 27433.19038
28573.00000 28296.50095
29642.00000 29115.38586
30041.00000 29762.97981
30213.00000 30077.20771
30244.00000 29918.00194
29546.00000 29234.80933
28798.00000 28084.87457
27365.00000 26620.21011
25787.00000 25024.60691
24573.00000 23454.94808
22990.00000 22015.45070
21690.00000 20759.76527
20378.00000 19704.63119
19038.00000 18842.56932
18273.00000 18152.99507
17972.00000 17609.07591
17423.00000 17181.43984
17042.00000 16840.36865
17044.00000 16558.49477
16427.00000 16313.93810
16650.00000 16093.73300
16624.00000 15894.96817
16717.00000 15722.21132
16602.00000 15582.76369
16413.00000 15482.73376
16643.00000 15425.19285
16549.00000 15409.92368
16761.00000 15433.85200
16462.00000 15489.96719
16786.00000 15567.39527
16779.00000 15650.36618
16645.00000 15717.55199
16888.00000 15743.63260
16844.00000 15704.56522
16523.00000 15586.30402
16336.00000 15391.61282
15880.00000 15140.69341
15584.00000 14863.33230
15518.00000 14587.79853
15249.00000 14335.45239
15242.00000 14117.26890
15018.00000 13937.89962
14720.00000 13797.73473
14955.00000 13694.45842
14750.00000 13624.50337
14683.00000 13584.12186
14696.00000 13569.64185
14563.00000 13578.01705
14568.00000 13607.29187
14696.00000 13656.94996
14593.00000 13727.98074
14552.00000 13823.30242
14459.00000 13946.15425
14695.00000 14098.77352
14710.00000 14283.42779
14934.00000 14501.28510
15112.00000 14752.44768
15072.00000 15035.50236
15514.00000 15347.23336
15812.00000 15682.46564
16003.00000 16034.47107
16217.00000 16396.44620
16428.00000 16764.35546
16907.00000 17139.84702
17114.00000 17531.25239
17635.00000 17952.86652
18065.00000 18416.24543
18721.00000 18931.42650
19246.00000 19503.11681
19999.00000 20128.92133
20640.00000 20796.97000
21623.00000 21482.52944
21772.00000 22143.70972
22671.00000 22718.81222
22983.00000 23129.76123
22940.00000 23296.96978
22969.00000 23165.42167
22655.00000 22732.18112
21841.00000 22053.57510
20889.00000 21225.03807
20220.00000 20347.70185
18967.00000 19501.35159
18307.00000 18740.74800
17364.00000 18092.00772
16995.00000 17563.05696
16453.00000 17149.03794
16058.00000 16837.31318
15897.00000 16612.50163
15653.00000 16455.68201
15655.00000 16348.66603
15683.00000 16279.12343
15720.00000 16241.15442
15808.00000 16235.14918
15752.00000 16265.20961
16127.00000 16336.18100
16277.00000 16450.95115
16630.00000 16609.44548
17271.00000 16807.64135
17694.00000 17037.07267
18003.00000 17282.58510
18056.00000 17521.66990
18466.00000 17726.40373
18785.00000 17867.17628
18794.00000 17921.79866
18789.00000 17885.77680
18468.00000 17777.12684
18331.00000 17631.35710
18177.00000 17489.87571
17710.00000 17389.52901
17533.00000 17357.59418
17611.00000 17411.49620
17534.00000 17560.47958
17673.00000 17808.23090
18045.00000 18155.04663
18634.00000 18599.65433
18836.00000 19140.53912
19351.00000 19778.67322
20066.00000 20514.15756
21103.00000 21347.47236
22033.00000 22281.45295
23157.00000 23317.85559
24782.00000 24456.38624
25947.00000 25691.82599
27307.00000 27009.54436
28770.00000 28379.70920
30203.00000 29749.39934
31215.00000 31034.46877
32439.00000 32116.35456
32962.00000 32850.25732
33107.00000 33094.78059
32689.00000 32760.62838
31741.00000 31854.60924
30598.00000 30485.09660
29263.00000 28825.72008
27081.00000 27056.34371
25419.00000 25321.05464
24038.00000 23714.26117
22230.00000 22285.38411
20898.00000 21050.80568
19896.00000 20008.27876
18601.00000 19128.75364
17897.00000 18383.90685
17178.00000 17744.89903
16759.00000 17186.70677
16391.00000 16691.38324
15870.00000 16248.79911
15612.00000 15854.79901
15583.00000 15507.97364
15113.00000 15207.12587
15122.00000 14950.07518
14972.00000 14733.50167
15122.00000 14553.20344
14779.00000 14404.19916
14783.00000 14281.16245
14774.00000 14178.97442
14451.00000 14092.42698
14499.00000 14017.79040
14397.00000 13953.04966
14369.00000 13897.71298
14298.00000 13851.92728
13878.00000 13817.44036
13931.00000 13794.36353
14147.00000 13783.76885
13937.00000 13783.71869
13856.00000 13792.13252
13714.00000 13805.64179
13713.00000 13819.89975
13757.00000 13829.98300
13740.00000 13831.38998
13909.00000 13821.63576
13791.00000 13801.28885
13943.00000 13773.89087
13755.00000 13744.53078
13820.00000 13718.73368
13852.00000 13700.23144
14030.00000 13691.25190
13877.00000 13692.68968
14020.00000 13704.05552
14224.00000 13724.01129
14010.00000 13750.60724
14139.00000 13781.75630
14146.00000 13815.91213
14239.00000 13852.76374
14374.00000 13893.67381
14490.00000 13941.60034
14349.00000 13999.53083
14379.00000 14070.69467
14326.00000 14157.93707
14525.00000 14263.80305
14365.00000 14390.76623
14550.00000 14541.33296
14730.00000 14718.31075
15020.00000 14925.01829
15140.00000 15165.48359
15372.00000 15444.57598
15671.00000 15768.31762
15799.00000 16145.71857
16043.00000 16583.15884
16355.00000 17089.03902
17000.00000 17671.66116
17463.00000 18338.77967
18050.00000 19096.38828
18736.00000 19948.49757
19625.00000 20897.20561
20526.00000 21943.13889
21305.00000 23086.48114
22459.00000 24329.06430
23892.00000 25676.53804
25574.00000 27137.34199
27018.00000 28720.59672
29322.00000 30430.24623
30938.00000 32259.80526
33255.00000 34185.12293
35667.00000 36156.19835
37927.00000 38088.48794
40035.00000 39856.08145
41390.00000 41272.24780
42642.00000 42170.67101
42944.00000 42416.11870
42727.00000 41968.95075
41968.00000 40910.45075
40927.00000 39418.94576
39153.00000 37711.41994
37784.00000 35985.37371
35765.00000 34387.85749
34576.00000 33009.83999
33575.00000 31893.22490
32546.00000 31041.69011
32213.00000 30431.97182
31264.00000 30025.70314
31096.00000 29778.77291
30826.00000 29662.99024
31197.00000 29667.61638
31055.00000 29795.71902
30892.00000 30055.99824
31098.00000 30451.81186
31467.00000 30974.91940
32061.00000 31591.53890
31812.00000 32245.26764
32826.00000 32851.51013
33090.00000 33299.93481
33014.00000 33468.55172
32690.00000 33234.30400
32452.00000 32570.06522
31659.00000 31513.48319
30366.00000 30168.74807
28936.00000 28669.41721
27843.00000 27140.52609
26538.00000 25677.31030
25001.00000 24340.90265
23753.00000 23163.17676
22850.00000 22154.08057
21392.00000 21309.01139
20869.00000 20614.57158
20254.00000 20053.70073
19716.00000 19609.84920
19087.00000 19269.59044
19154.00000 19020.61430
18690.00000 18852.75652
18307.00000 18755.74673
18525.00000 18717.50359
18235.00000 18722.59145
18328.00000 18750.92986
18317.00000 18777.30701
18042.00000 18773.06692
18033.00000 18710.07774
17949.00000 18568.04520
17728.00000 18342.38799
17630.00000 18045.75853
17350.00000 17703.72405
16938.00000 17345.35889
16785.00000 16996.25628
16461.00000 16674.70873
16112.00000 16391.25483
16228.00000 16150.10068
16013.00000 15950.66074
15603.00000 15789.28893
15660.00000 15661.04380
15309.00000 15561.34062
15326.00000 15487.07025
15040.00000 15436.83918
15616.00000 15410.31280
15261.00000 15407.60336
15058.00000 15427.30983
14899.00000 15466.35193
14990.00000 15520.11847
14857.00000 15579.73041
14957.00000 15636.28114
15048.00000 15680.00192
15005.00000 15703.48834
15156.00000 15704.20343
15228.00000 15685.57530
15113.00000 15655.65814
15289.00000 15624.14683
15448.00000 15599.37733
15519.00000 15586.34865
15865.00000 15586.21617
16032.00000 15596.26415
15915.00000 15610.52401
16033.00000 15621.22549
16189.00000 15621.12994
16275.00000 15606.03483
16179.00000 15576.85346
16295.00000 15541.45267
16199.00000 15510.66014
16095.00000 15496.00850
16022.00000 15507.39230
15973.00000 15552.63982
16077.00000 15636.33838
16076.00000 15761.35858
16143.00000 15929.26067
16143.00000 16140.71704
16555.00000 16395.79528
16817.00000 16694.01066
16941.00000 17034.11829
17751.00000 17413.58529
18011.00000 17827.81167
18742.00000 18268.44429
18833.00000 18721.75474
19299.00000 19166.31919
19908.00000 19570.60224
20463.00000 19898.26423
20759.00000 20111.45944
20824.00000 20181.51809
20642.00000 20099.63052
20659.00000 19881.72388
20410.00000 19563.65211
19803.00000 19189.36410
19589.00000 18799.07058
19028.00000 18422.37055
18381.00000 18076.55442
18271.00000 17767.85897
17519.00000 17493.36823
17504.00000 17243.92812
17000.00000 17010.89991
16555.00000 16785.94358
16295.00000 16568.06885
16195.00000 16361.32994
15896.00000 16171.96585
15445.00000 16006.36311
15507.00000 15869.40635
15267.00000 15763.97596
15382.00000 15691.12375
14997.00000 15650.79191
15390.00000 15642.37846
15177.00000 15664.99501
15179.00000 15719.21672
15463.00000 15806.88493
15506.00000 15932.07384
15624.00000 16100.01959
15829.00000 16316.02188
15971.00000 16584.77871
16318.00000 16909.27964
16619.00000 17292.74828
17075.00000 17737.13613
17819.00000 18243.20244
18101.00000 18811.21374
18914.00000 19440.77090
19664.00000 20130.31334
20534.00000 20876.31644
21189.00000 21670.66015
22041.00000 22497.95947
23044.00000 23332.20890
24032.00000 24133.53887
24324.00000 24846.56232
25525.00000 25402.76918
25906.00000 25719.70093
25963.00000 25746.38109
25789.00000 25465.34546
25422.00000 24902.93142
24775.00000 24123.80985
23906.00000 23210.42344
22322.00000 22242.03488
21759.00000 21282.10787
20762.00000 20374.92786
19633.00000 19547.14183
19012.00000 18812.36840
18077.00000 18174.42429
17371.00000 17630.54496
16480.00000 17174.07497
16464.00000 16796.37042
16044.00000 16488.17733
15403.00000 16240.27184
15160.00000 16043.19805
15059.00000 15887.37258
15099.00000 15764.99501
14747.00000 15667.52900
14761.00000 15586.91888
14678.00000 15516.55328
14793.00000 15451.73565
14865.00000 15390.33893
14883.00000 15333.83734
14540.00000 15285.85603
14534.00000 15250.80239
14682.00000 15232.73659
14764.00000 15235.17967
14800.00000 15260.39523
14699.00000 15308.41722
15121.00000 15380.22541
15420.00000 15476.70130
15401.00000 15599.02170
15717.00000 15748.91797
15875.00000 15928.77708
16271.00000 16142.04432
16849.00000 16389.91703
16988.00000 16672.09440
17289.00000 16986.67129
17685.00000 17329.61833
18092.00000 17695.35619
18497.00000 18078.07544
19300.00000 18473.50115
19614.00000 18880.30706
19622.00000 19299.87293
20198.00000 19734.36051
20472.00000 20182.95835
21120.00000 20638.22185
21606.00000 21083.22458
21595.00000 21490.42212
22190.00000 21823.17172
22268.00000 22041.08751
22130.00000 22109.83591
22004.00000 22012.35244
21817.00000 21755.50196
21396.00000 21365.66192
20936.00000 20893.04330
20473.00000 20382.19500
20001.00000 19867.33594
19268.00000 19370.03658
18699.00000 18901.03700
18334.00000 18462.41841
17630.00000 18049.74268
17003.00000 17658.76752
16950.00000 17285.66760
16361.00000 16929.92830
16371.00000 16594.34253
15823.00000 16282.72163
15580.00000 15998.01129
15465.00000 15741.50188
15160.00000 15512.57093
15062.00000 15309.29671
14994.00000 15128.86878
15050.00000 14968.29732
14742.00000 14825.30704
14598.00000 14698.04642
14580.00000 14585.00368
14794.00000 14485.54057
14442.00000 14399.24598
14274.00000 14325.69487
14183.00000 14264.31933
14268.00000 14213.73432
14227.00000 14172.80033
14283.00000 14141.14713
14419.00000 14118.03666
14383.00000 14102.89563
14376.00000 14095.32576
14447.00000 14095.06633
14299.00000 14101.77389
14262.00000 14115.02301
14482.00000 14134.27249
14391.00000 14158.87860
14493.00000 14188.22952
14470.00000 14221.89432
14401.00000 14259.98233
14778.00000 14303.32015
14797.00000 14353.15819
15310.00000 14411.32953
15016.00000 14479.83070
15279.00000 14560.53055
15258.00000 14655.05673
15831.00000 14764.82619
15804.00000 14890.97972
15933.00000 15034.55666
15992.00000 15196.87181
16397.00000 15378.97752
16378.00000 15581.69367
16674.00000 15805.52743
16887.00000 16050.11416
16958.00000 16313.61930
17005.00000 16592.50360
17376.00000 16881.60670
17770.00000 17174.88069
17757.00000 17467.39168
18345.00000 17755.71830
18435.00000 18040.13616
18853.00000 18324.69468
19203.00000 18615.02994
19417.00000 18915.12052
20040.00000 19225.88504
20391.00000 19543.24662
20190.00000 19858.44200
20822.00000 20160.42855
21019.00000 20439.15100
21555.00000 20691.14466
21439.00000 20923.14873
21773.00000 21153.49882
21956.00000 21407.84769
22521.00000 21711.19342
22617.00000 22087.27922
22797.00000 22555.02209
23305.00000 23125.61286
23962.00000 23805.94857
24720.00000 24596.46900
25478.00000 25494.38747
26626.00000 26493.37487
27733.00000 27581.63998
29067.00000 28738.51076
30315.00000 29929.85254
31292.00000 31103.84802
32785.00000 32189.33447
33729.00000 33099.20969
34301.00000 33741.59807
34772.00000 34039.47871
34920.00000 33952.64656
34940.00000 33492.52082
33852.00000 32719.74225
33351.00000 31723.29630
31891.00000 30600.43485
30921.00000 29435.53442
29753.00000 28280.74128
28121.00000 27164.50957
26670.00000 26096.83190
25764.00000 25075.02798
24407.00000 24099.92631
23433.00000 23173.26501
22347.00000 22300.48692
21567.00000 21488.29243
20539.00000 20742.34895
19503.00000 20064.89829
18735.00000 19454.28795
18361.00000 18905.76516
17312.00000 18412.81590
16949.00000 17968.66540
16699.00000 17568.23131
16254.00000 17206.97177
15726.00000 16883.98774
15573.00000 16597.65309
15582.00000 16347.47390
14975.00000 16133.13201
15343.00000 15953.08549
14936.00000 15806.24481
15238.00000 15691.44746
15106.00000 15607.44530
14854.00000 15552.95665
14846.00000 15527.02899
14694.00000 15528.33761
14838.00000 15555.84867
15105.00000 15607.47076
14921.00000 15681.27824
15186.00000 15774.91383
15340.00000 15885.67471
15080.00000 16011.29720
15520.00000 16150.20376
15583.00000 16301.32575
15681.00000 16463.42374
15801.00000 16634.11098
15979.00000 16808.76130
16055.00000 16980.06140
16167.00000 17138.00126
16396.00000 17271.43255
16510.00000 17370.69911
16720.00000 17429.58879
16770.00000 17448.94318
16797.00000 17436.81813
16837.00000 17406.36897
17071.00000 17372.27217
17001.00000 17347.62387
17102.00000 17342.02822
17446.00000 17361.21872
17558.00000 17407.71446
17741.00000 17482.77575
17915.00000 17583.64940
17745.00000 17709.10304
17759.00000 17856.41598
18172.00000 18020.29607
18448.00000 18191.83023
18557.00000 18357.88148
18446.00000 18501.38112
18118.00000 18603.27273
18179.00000 18646.60380
18216.00000 18620.79364
18045.00000 18524.89167
18126.00000 18367.62460
17563.00000 18165.07643
17434.00000 17935.35787
16998.00000 17694.24666
16504.00000 17452.90351
16567.00000 17217.57575
16174.00000 16991.43179
15999.00000 16776.40085
15809.00000 16572.13988
15872.00000 16379.84640
15780.00000 16201.41597
15277.00000 16038.73871
15104.00000 15892.82283
15324.00000 15763.33443
15228.00000 15648.56939
14970.00000 15545.86366
14892.00000 15452.41787
15063.00000 15366.20636
14873.00000 15286.58324
14980.00000 15214.07805
15131.00000 15149.77789
15190.00000 15095.07962
15185.00000 15050.52940
14965.00000 15015.62980
15120.00000 14989.24419
15045.00000 14969.79296
15243.00000 14955.89304
15326.00000 14946.68175
15123.00000 14941.72894
15353.00000 14940.77722
15074.00000 14943.06615
15173.00000 14947.05947
15390.00000 14950.16835
15433.00000 14949.62569
15342.00000 14942.23287
15431.00000 14925.93766
15613.00000 14900.50496
15404.00000 14867.55226
15326.00000 14830.50468
14949.00000 14793.57466
14964.00000 14760.92644
15016.00000 14736.12362
14849.00000 14722.02031
14685.00000 14720.79120
14636.00000 14734.10795
14692.00000 14763.32140
14552.00000 14809.43824
14650.00000 14873.36627
14867.00000 14956.03903
14876.00000 15057.99968
14797.00000 15179.82871
15053.00000 15322.12930
15014.00000 15485.33031
15518.00000 15669.82071
15804.00000 15876.00752
15899.00000 16104.05108
16032.00000 16353.52237
16206.00000 16623.27662
16490.00000 16911.43991
16550.00000 17215.02042
16775.00000 17530.26147
17409.00000 17853.93047
17821.00000 18184.64516
17746.00000 18524.15447
18315.00000 18878.36637
18734.00000 19260.02226
19194.00000 19678.90293
19653.00000 20145.89186
20489.00000 20669.75674
20760.00000 21255.98215
21416.00000 21907.43378
22385.00000 22623.94716
23385.00000 23403.21655
23909.00000 24239.98050
25018.00000 25124.99296
26068.00000 26043.16610
26938.00000 26970.78569
27965.00000 27876.73540
28937.00000 28724.14490
29781.00000 29474.93981
30448.00000 30102.83039
30970.00000 30601.95357
31301.00000 30983.44963
31786.00000 31304.88186
32224.00000 31626.68781
32217.00000 32009.39506
32690.00000 32505.54597
33009.00000 33154.57620
34199.00000 33980.42613
35257.00000 34993.03454
35830.00000 36186.04809
37359.00000 37536.71037
38471.00000 39001.77608
40369.00000 40514.66927
41380.00000 41983.47442
42626.00000 43293.03753
43354.00000 44304.52740
43973.00000 44884.84752
43778.00000 44956.16070
43648.00000 44490.40863
43364.00000 43524.21890
42155.00000 42151.35495
40633.00000 40496.71679
39185.00000 38688.77025
37235.00000 36840.44555
36480.00000 35040.99058
34246.00000 33355.75766
32766.00000 31829.55711
31809.00000 30490.79038
30303.00000 29356.33908
29373.00000 28433.67163
28696.00000 27723.57198
28166.00000 27224.64250
27818.00000 26934.91281
27643.00000 26853.52046
27885.00000 26983.79850
27804.00000 27329.68209
28445.00000 27896.26407
29263.00000 28693.77855
30088.00000 29734.06464
31757.00000 31028.89084
32961.00000 32588.30122
35086.00000 34417.14251
37073.00000 36514.14437
39646.00000 38866.79526
41907.00000 41448.46956
44811.00000 44213.03764
47945.00000 47088.79769
50439.00000 49972.39731
53119.00000 52725.04616
55639.00000 55174.66823
57209.00000 57128.79291
58779.00000 58400.96995
59738.00000 58834.53180
58740.00000 58363.77653
58128.00000 57057.98866
56331.00000 55054.69360
54614.00000 52542.23224
52457.00000 49717.36901
49324.00000 46754.40835
46530.00000 43791.16964
43434.00000 40927.80141
40972.00000 38231.77936
37796.00000 35744.47986
35619.00000 33486.82951
32855.00000 31464.26116
31278.00000 29670.78893
29192.00000 28092.67749
27674.00000 26711.18197
25815.00000 25505.38938
24625.00000 24454.36224
23432.00000 23538.94276
22819.00000 22742.76897
21925.00000 22052.65861
21154.00000 21458.07734
20462.00000 20950.44488
20107.00000 20522.43384
19604.00000 20168.32847
19547.00000 19883.16407
19193.00000 19661.42548
19177.00000 19499.95427
19001.00000 19396.27728
19046.00000 19349.20290
18840.00000 19358.14727
18851.00000 19422.85836
19334.00000 19543.40892
19606.00000 19719.95620
19564.00000 19953.43676
20359.00000 20245.77772
20667.00000 20599.96011
21329.00000 21019.65182
21802.00000 21508.33673
22459.00000 22068.21155
23032.00000 22699.33181
23927.00000 23398.15747
24505.00000 24159.42197
25440.00000 24978.22581
26459.00000 25839.57439
27158.00000 26728.72621
28020.00000 27625.28186
28870.00000 28500.64834
29991.00000 29316.78289
30358.00000 30028.06694
30627.00000 30586.88318
30953.00000 30955.29319
31649.00000 31111.58977
31703.00000 31061.78653
31514.00000 30839.20285
31108.00000 30497.86098
30953.00000 30101.52794
30605.00000 29713.25790
30113.00000 29389.44763
30232.00000 29178.46672
30440.00000 29119.99876
30254.00000 29243.85840
30973.00000 29573.87087
31146.00000 30128.39869
32509.00000 30920.10432
33636.00000 31955.58371
34556.00000 33234.47587
36642.00000 34748.25955
38178.00000 36478.56970
40231.00000 38394.84673
41869.00000 40453.28166
43549.00000 42578.03371
45944.00000 44675.73721
47598.00000 46628.23300
48588.00000 48298.04030
49632.00000 49543.09077
49518.00000 50240.11831
50154.00000 50310.32892
49303.00000 49741.60850
48348.00000 48591.88115
46575.00000 46974.03250
44791.00000 45028.55617
43020.00000 42896.22975
40661.00000 40699.63369
38169.00000 38535.25690
36450.00000 36473.74808
34127.00000 34563.04155
32233.00000 32832.08097
30832.00000 31294.31966
28830.00000 29958.15409
27488.00000 28808.00321
26326.00000 27826.52785
25744.00000 26994.44361
24708.00000 26291.91852
24139.00000 25701.28935
23906.00000 25208.39659
23169.00000 24802.76441
23172.00000 24476.40327
22887.00000 24222.15904
23067.00000 24033.55625
23022.00000 23904.45547
23232.00000 23830.42194
23396.00000 23811.00357
23405.00000 23851.12632
23992.00000 23961.00032
24055.00000 24154.25542
24635.00000 24445.12491
25479.00000 24845.53041
25848.00000 25363.19748
26465.00000 25997.88281
27056.00000 26741.53209
28527.00000 27576.19076
28976.00000 28472.29567
29793.00000 29386.96125
30721.00000 30261.50277
31662.00000 31022.94018
32147.00000 31599.10454
32229.00000 31922.77577
32688.00000 31946.64568
32419.00000 31654.39925
31995.00000 31064.55826
31486.00000 30224.72253
30496.00000 29199.34438
29780.00000 28055.72724
28576.00000 26854.06293
27697.00000 25642.91146
26648.00000 24458.51211
25263.00000 23326.87457
24252.00000 22265.82287
23198.00000 21286.42006
22464.00000 20394.39476
21492.00000 19591.18802
20601.00000 18874.85780
20082.00000 18241.36321
19150.00000 17685.10102
18778.00000 17200.02572
18142.00000 16780.01969
17839.00000 16419.24197
17125.00000 16112.20009
16887.00000 15853.77540
16687.00000 15639.58421
16213.00000 15464.71011
15962.00000 15324.02714
15751.00000 15213.14987
15568.00000 15127.83032
15330.00000 15063.61789
15254.00000 15015.84188
15133.00000 14979.31383
14795.00000 14948.60439
14950.00000 14918.67071
14892.00000 14885.59233
14677.00000 14847.42056
14709.00000 14804.65407
14648.00000 14760.47649
14724.00000 14718.96862
14462.00000 14686.17248
14702.00000 14666.53099
14511.00000 14663.68573
14366.00000 14680.43328
14502.00000 14718.49227
14813.00000 14778.33282
14481.00000 14859.21034
14610.00000 14959.72260
14461.00000 15076.04214
14571.00000 15203.34091
14537.00000 15335.97021
14756.00000 15468.46513
14959.00000 15595.60215
15007.00000 15713.18531
15124.00000 15817.35638
15215.00000 15903.96940
15303.00000 15967.83189
15050.00000 16003.63906
15355.00000 16004.92105
15138.00000 15966.68833
15444.00000 15887.34272
15342.00000 15769.93452
15239.00000 15622.13041
14926.00000 15453.66101
14861.00000 15278.61383
14775.00000 15108.64817
14684.00000 14953.65620
14670.00000 14821.71722
14354.00000 14719.31540
14510.00000 14651.54593
14580.00000 14622.26558
14423.00000 14634.36116
14607.00000 14689.03323
14617.00000 14786.22139
14900.00000 14924.08360
15076.00000 15098.83324
15174.00000 15304.29459
15352.00000 15531.24079
15616.00000 15767.28648
15995.00000 15997.22633
16088.00000 16202.34779
16061.00000 16360.46402
16293.00000 16456.31052
16458.00000 16478.19251
15989.00000 16422.10603
16082.00000 16292.55245
15958.00000 16101.23914
15845.00000 15864.03609
15283.00000 15597.86315
15307.00000 15318.12741
14776.00000 15037.31048
14531.00000 14764.97348
13993.00000 14507.80700
13992.00000 14270.12456
13612.00000 14054.00846
13393.00000 13859.88003
13215.00000 13686.72111
13150.00000 13532.75511
12862.00000 13395.85516
12715.00000 13274.87964
12431.00000 13167.80704
12770.00000 13074.07331
12401.00000 12993.87503
12547.00000 12927.86197
12229.00000 12876.81552
12171.00000 12841.44284
12414.00000 12822.26573
12287.00000 12819.68797
12539.00000 12833.98237
12607.00000 12865.36399
12568.00000 12913.85934
12574.00000 12979.52513
12760.00000 13062.48055
12845.00000 13163.28224
12870.00000 13283.28211
13163.00000 13423.93247
13403.00000 13587.93917
13237.00000 13778.26031
13474.00000 13998.04552
13761.00000 14249.60637
14042.00000 14534.16218
14535.00000 14851.13663
14748.00000 15197.60941
15112.00000 15567.81692
15312.00000 15952.78132
15949.00000 16340.12902
16230.00000 16714.67920
16445.00000 17059.55224
16904.00000 17358.60975
17121.00000 17599.36903
17299.00000 17775.85120
17677.00000 17890.72561
17652.00000 17955.01028
18030.00000 17985.80625
18347.00000 18002.95182
18752.00000 18025.79593
18659.00000 18069.26575
18922.00000 18144.31833
19223.00000 18256.77170
19403.00000 18407.62883
20157.00000 18592.25976
20245.00000 18800.85898
20794.00000 19019.91354
20996.00000 19233.65142
21129.00000 19426.31579
21524.00000 19584.70449
21530.00000 19699.83916
21390.00000 19767.26550
21306.00000 19785.60777
21128.00000 19754.58545
21266.00000 19673.49596
21001.00000 19541.16910
20525.00000 19357.38678
20364.00000 19125.08179
19920.00000 18851.93426
19229.00000 18550.47995
18767.00000 18236.70584
18449.00000 17927.77128
18119.00000 17639.77434
17847.00000 17386.64261
17391.00000 17179.65985
17309.00000 17027.81372
17296.00000 16937.39133
16857.00000 16912.50804
16930.00000 16955.29706
16860.00000 17064.92475
16706.00000 17237.71590
17011.00000 17466.93780
17192.00000 17742.15064
17332.00000 18048.78315
17414.00000 18367.53908
17549.00000 18674.26614
17505.00000 18942.01647
17785.00000 19143.07406
17996.00000 19252.72183
18030.00000 19253.53757
17685.00000 19139.08531
17538.00000 18915.16509
17194.00000 18598.14733
17198.00000 18211.05011
16833.00000 17778.96192
16418.00000 17325.48412
16244.00000 16870.63731
15587.00000 16430.06044
15536.00000 16015.66488
15303.00000 15636.08631
15241.00000 15297.18741
15038.00000 15002.69342
14805.00000 14754.56090
14451.00000 14553.59950
14396.00000 14401.00599
14202.00000 14295.99317
14368.00000 14238.56106
14274.00000 14228.97052
14466.00000 14267.89837
14290.00000 14356.44060
14545.00000 14496.22137
14816.00000 14689.37304
15098.00000 14939.91133
15482.00000 15250.61405
15570.00000 15623.03129
16098.00000 16058.67140
16656.00000 16557.30708
17146.00000 17116.14707
17840.00000 17728.78121
18870.00000 18383.99262
19334.00000 19064.93763
20109.00000 19748.37539
20571.00000 20404.54113
20902.00000 20998.40032
21626.00000 21492.29404
21877.00000 21850.81017
22236.00000 22046.75372
22347.00000 22065.43009
21998.00000 21908.80688
21894.00000 21589.08785
21330.00000 21140.93044
20862.00000 20599.83067
20079.00000 19997.56412
19765.00000 19361.49285
19100.00000 18713.75116
18254.00000 18071.58142
17482.00000 17448.03099
16743.00000 16852.44846
16219.00000 16290.96410
15635.00000 15766.66760
15338.00000 15280.88347
14508.00000 14833.18830
13996.00000 14422.87284
13800.00000 14049.49943
13360.00000 13710.80973
13219.00000 13405.34379
12923.00000 13133.98059
12699.00000 12893.36676
12090.00000 12682.00682
12081.00000 12498.56703
11958.00000 12341.79821
11912.00000 12210.62059
11878.00000 12104.11578
11892.00000 12021.56827
11738.00000 11962.46311
12092.00000 11926.61752
12118.00000 11913.90745
12036.00000 11924.63444
12074.00000 11959.29322
12398.00000 12018.96620
12381.00000 12104.88158
12626.00000 12218.44676
12708.00000 12361.55274
12863.00000 12536.52165
13521.00000 12745.51853
13430.00000 12990.91122
13669.00000 13274.89983
13902.00000 13599.14958
14401.00000 13964.42892
14790.00000 14370.17941
15167.00000 14814.06904
15632.00000 15291.64304
16020.00000 15796.03196
16648.00000 16318.01444
17011.00000 16846.56578
17386.00000 17370.06821
17808.00000 17878.23321
18275.00000 18364.39329
19059.00000 18827.52419
19725.00000 19273.11886
19967.00000 19712.31060
20493.00000 20159.72598
21068.00000 20630.70475
21590.00000 21132.46366
21875.00000 21670.04419
22762.00000 22235.93868
23338.00000 22816.63636
23707.00000 23385.73110
24089.00000 23909.40646
24489.00000 24348.20522
24755.00000 24661.81195
24843.00000 24815.38236
24925.00000 24786.05473
24458.00000 24567.49965
24211.00000 24170.77398
23468.00000 23621.30744
23266.00000 22952.94030
22297.00000 22201.65556
21608.00000 21400.99607
20864.00000 20579.73651
19904.00000 19761.38086
19051.00000 18964.78256
17856.00000 18205.15908
17355.00000 17493.45652
16637.00000 16837.53897
16050.00000 16242.42914
15542.00000 15710.61090
15146.00000 15242.66986
14449.00000 14837.69110
14114.00000 14493.83092
13854.00000 14206.43664
13454.00000 13971.22062
13509.00000 13783.09256
13397.00000 13636.15210
12994.00000 13523.60658
13191.00000 13437.82114
13154.00000 13370.40889
12977.00000 13312.39412
12875.00000 13254.75381
13071.00000 13189.26900
12705.00000 13109.58734
12689.00000 13012.17670
12780.00000 12896.70412
12422.00000 12765.83771
12295.00000 12624.44084
12148.00000 12478.02578
11864.00000 12332.63886
11870.00000 12193.03192
11556.00000 12062.42416
11349.00000 11942.84826
11425.00000 11836.21083
11377.00000 11741.42810
11239.00000 11657.28750
11085.00000 11581.91885
10921.00000 11513.31952
10789.00000 11449.44874
10646.00000 11388.55344
10669.00000 11329.13743
10739.00000 11270.04317
10821.00000 11210.15381
10678.00000 11148.48993
10658.00000 11084.37373
10719.00000 11017.62502
10876.00000 10948.71669
10663.00000 10878.96458
10623.00000 10809.78339
10780.00000 10743.57772
10764.00000 10681.64280
10943.00000 10625.35287
10833.00000 10575.70594
10998.00000 10533.31021
11104.00000 10498.49056
11289.00000 10471.22546
11146.00000 10451.29460
11414.00000 10437.63246
11326.00000 10429.10934
11498.00000 10424.35025
11566.00000 10421.75569
11579.00000 10419.68955
11430.00000 10416.33310
11533.00000 10409.91555
11376.00000 10398.77816
11238.00000 10382.00327
11023.00000 10359.28237
11123.00000 10331.38197
10805.00000 10299.97002
10868.00000 10267.38877
10576.00000 10236.29068
10705.00000 10209.25432
10493.00000 10188.86275
10606.00000 10176.66480
10329.00000 10173.54932
10144.00000 10179.88689
10330.00000 10195.51210
10239.00000 10221.37605
10281.00000 10256.09067
9853.00000 10300.00290
9995.00000 10352.77688
10208.00000 10414.94201
10057.00000 10487.24275
10352.00000 10570.50640
10202.00000 10665.82038
10247.00000 10773.29169
10391.00000 10892.19647
10378.00000 11020.66699
10613.00000 11155.84699
10701.00000 11293.81445
10722.00000 11430.03948
11086.00000 11559.58540
11175.00000 11677.91762
11032.00000 11781.56910
11694.00000 11867.77136
11705.00000 11938.92953
11925.00000 11997.92109
12169.00000 12048.48533
12078.00000 12094.28555
12358.00000 12138.25069
12688.00000 12182.10006
12596.00000 12225.83764
12618.00000 12267.73675
12917.00000 12304.20637
12923.00000 12331.04721
12834.00000 12343.64385
12740.00000 12337.64676
12833.00000 12309.84960
12603.00000 12259.18140
12488.00000 12186.78129
12561.00000 12095.40801
12444.00000 11989.22990
12386.00000 11872.13908
11818.00000 11747.81401
11818.00000 11619.33510
11729.00000 11489.10048
11549.00000 11358.77922
11404.00000 11229.40924
11182.00000 11101.43580
11243.00000 10974.89408
10791.00000 10849.54943
10863.00000 10725.36569
10718.00000 10602.50638
10548.00000 10480.52960
10367.00000 10360.70990
10347.00000 10243.16048
10225.00000 10128.36206
10140.00000 10016.60091
9946.00000 9908.15031
9869.00000 9803.26401
9595.00000 9702.21730
9607.00000 9605.25585
9350.00000 9512.52584
9418.00000 9424.44549
9235.00000 9341.15462
9182.00000 9263.16627
9023.00000 9190.94751
8882.00000 9125.15890
8740.00000 9066.50733
8692.00000 9015.64791
8658.00000 8973.12724
8833.00000 8939.13718
8792.00000 8913.66755
8818.00000 8896.43322
8597.00000 8886.98207
8483.00000 8884.41805
8597.00000 8887.73742
8628.00000 8895.85403
8425.00000 8907.59916
8580.00000 8921.78472
8450.00000 8937.12890
8539.00000 8952.28062
8414.00000 8965.96955
8429.00000 8976.87590
8527.00000 8983.78251
8369.00000 8985.68973
8336.00000 8981.94327
8458.00000 8972.19896
8579.00000 8956.32653
8361.00000 8934.26012
8457.00000 8906.19466
8423.00000 8872.64190
8476.00000 8834.34977
8226.00000 8792.32005
8381.00000 8747.77818
8418.00000 8702.04661
8337.00000 8656.38112
8485.00000 8611.80925
8508.00000 8568.99846
8375.00000 8528.24569
8239.00000 8489.58616
8356.00000 8452.74501
8216.00000 8417.19021
8406.00000 8382.39528
8168.00000 8347.89948
8310.00000 8313.47955
7944.00000 8279.20064
8283.00000 8245.41905
8027.00000 8212.73997
8174.00000 8181.82921
8064.00000 8153.43868
8088.00000 8128.11220
8166.00000 8106.27658
8060.00000 8088.18889
8083.00000 8073.99502
8142.00000 8063.73455
8007.00000 8057.38602
8269.00000 8055.03240
8214.00000 8056.68645
8263.00000 8062.66210
8034.00000 8073.18530
8024.00000 8088.62354
8196.00000 8109.31525
8174.00000 8135.57028
8261.00000 8167.55169
8257.00000 8205.21405
8289.00000 8248.34643
8372.00000 8296.54983
8580.00000 8349.30939
8501.00000 8406.06477
8584.00000 8466.32098
8560.00000 8529.77989
8774.00000 8596.36330
8824.00000 8666.25839
8884.00000 8739.59126
8914.00000 8816.44538
8832.00000 8896.56636
9139.00000 8979.25957
8900.00000 9063.28303
9133.00000 9146.77052
8972.00000 9227.30834
9195.00000 9302.01064
9040.00000 9368.01279
9094.00000 9422.69682
9206.00000 9463.98056
9162.00000 9491.37121
9314.00000 9505.99448
9130.00000 9509.50529
9209.00000 9504.18019
9296.00000 9492.53282
9197.00000 9476.63942
9140.00000 9457.85351
9217.00000 9436.74160
9230.00000 9413.01113
9300.00000 9385.52920
9275.00000 9352.85011
9209.00000 9313.52562
9136.00000 9266.40616
9082.00000 9211.10974
9203.00000 9148.18216
9143.00000 9078.33309
9063.00000 9004.80345
9053.00000 8930.17606
9208.00000 8856.95490
8951.00000 8787.29270
9023.00000 8722.99812
8603.00000 8665.41103
8820.00000 8615.49445
8614.00000 8573.93703
8593.00000 8541.29661
8516.00000 8518.11750
8634.00000 8504.92430
8422.00000 8501.91358
8509.00000 8509.35546
8477.00000 8527.32632
8295.00000 8555.56793
8266.00000 8593.41980
8594.00000 8639.69692
8404.00000 8692.74047
8376.00000 8750.30519
8715.00000 8809.72840
8290.00000 8868.37539
8553.00000 8923.98178
8658.00000 8974.49334
8534.00000 9019.00193
8656.00000 9057.63002
8760.00000 9091.07147
8868.00000 9121.07927
8933.00000 9149.67746
8843.00000 9177.91081
9310.00000 9205.95867
9068.00000 9232.97513
9328.00000 9256.98773
9187.00000 9275.25315
9382.00000 9284.67712
9392.00000 9282.28097
9410.00000 9265.78774
9423.00000 9234.11462
9460.00000 9187.02629
9454.00000 9126.95808
9468.00000 9056.98564
9299.00000 8980.37151
9308.00000 8900.37467
9207.00000 8819.61508
9243.00000 8740.41979
8877.00000 8664.15164
9211.00000 8591.87919
8936.00000 8524.19146
8855.00000 8461.49498
8525.00000 8404.06692
8701.00000 8352.40336
8558.00000 8306.94017
8366.00000 8268.10446
8452.00000 8236.32851
8254.00000 8212.02954
8250.00000 8195.12356
8006.00000 8185.34686
8207.00000 8181.85794
8036.00000 8183.57110
8030.00000 8189.29111
8032.00000 8197.76791
8031.00000 8207.85900
7970.00000 8218.70491
8032.00000 8229.84605
8011.00000 8241.43613
7891.00000 8253.58661
7932.00000 8266.74431
8030.00000 8281.34973
7988.00000 8297.76386
7840.00000 8316.18114
7926.00000 8336.52053
7931.00000 8358.41727
8018.00000 8381.43157
7816.00000 8404.88685
7940.00000 8427.94262
7878.00000 8449.70094
7938.00000 8469.29515
7929.00000 8485.78590
8104.00000 8498.20130
8157.00000 8505.88404
8057.00000 8508.29514
7954.00000 8505.18193
8295.00000 8496.67202
8231.00000 8483.16524
8117.00000 8465.37155
8109.00000 8444.22756
8216.00000 8421.03065
8225.00000 8396.53494
8328.00000 8371.50221
8483.00000 8346.52905
8303.00000 8322.47990
8373.00000 8299.56030
8394.00000 8278.22616
8508.00000 8258.83001
8495.00000 8241.68410
8444.00000 8227.08631
8472.00000 8215.35518
8386.00000 8206.84351
8563.00000 8201.90477
8532.00000 8200.94745
8469.00000 8204.23759
8446.00000 8212.08135
8519.00000 8224.81224
8468.00000 8242.80745
8463.00000 8266.48009
8547.00000 8296.35431
8723.00000 8333.03060
8429.00000 8377.25165
8494.00000 8429.76174
8761.00000 8491.32555
8516.00000 8562.67356
8624.00000 8644.14126
8726.00000 8735.59223
8721.00000 8836.32630
8719.00000 8944.94500
8813.00000 9059.32399
8838.00000 9176.72394
9094.00000 9293.89913
9096.00000 9407.40076
9187.00000 9513.70568
9093.00000 9609.38681
9209.00000 9690.99512
9208.00000 9755.77389
9559.00000 9801.42958
9416.00000 9826.33907
9392.00000 9829.83212
9256.00000 9812.30242
9360.00000 9775.26065
9316.00000 9721.13448
9194.00000 9652.89141
9308.00000 9573.57827
9235.00000 9486.13591
9272.00000 9392.66796
9301.00000 9295.38772
9113.00000 9195.18152
9013.00000 9092.84880
8967.00000 8989.00415
8942.00000 8884.20663
8647.00000 8778.94386
8694.00000 8673.97538
8647.00000 8570.27926
8548.00000 8469.02275
8483.00000 8371.33306
8368.00000 8278.30597
8325.00000 8190.82411
8170.00000 8109.29427
8221.00000 8033.97525
7956.00000 7964.89545
7895.00000 7901.96338
7872.00000 7845.04787
7924.00000 7794.04528
7888.00000 7748.88155
7774.00000 7709.68291
7689.00000 7676.50746
7538.00000 7649.40376
7643.00000 7628.36516
7690.00000 7613.19659
7558.00000 7603.47078
7620.00000 7598.47039
7604.00000 7597.38387
7524.00000 7599.64788
7446.00000 7603.91988
7396.00000 7609.24314
7375.00000 7614.80395
7452.00000 7619.99986
7388.00000 7624.45197
7672.00000 7627.89733
7726.00000 7630.36445
7520.00000 7631.97621
7322.00000 7632.91569
7467.00000 7633.50672
7528.00000 7634.13990
7564.00000 7635.22297
7587.00000 7637.10421
7505.00000 7640.02720
7508.00000 7644.07740
7532.00000 7649.17301
7526.00000 7655.06516
7568.00000 7661.48034
7628.00000 7667.91734
7717.00000 7673.94229
7829.00000 7679.21392
7869.00000 7683.50784
7684.00000 7686.71122
7831.00000 7688.82860
7795.00000 7689.97854
7912.00000 7690.15962
7725.00000 7689.44625
7633.00000 7687.82712
7709.00000 7685.29702
7777.00000 7681.76942
7839.00000 7677.15686
7796.00000 7671.68597
7805.00000 7665.40469
7883.00000 7658.60800
7842.00000 7651.72406
7715.00000 7645.29559
7600.00000 7639.86800
7767.00000 7635.88941
7677.00000 7633.74408
7591.00000 7633.57633
7452.00000 7635.35753
7510.00000 7638.85285
7630.00000 7643.64538
7601.00000 7649.23328
7520.00000 7654.80388
7459.00000 7660.01142
7557.00000 7663.98815
7508.00000 7667.01922
7452.00000 7668.40520
7427.00000 7667.99767
7508.00000 7665.92915
7402.00000 7662.26177
7546.00000 7657.49982
7443.00000 7652.57576
7263.00000 7648.25672
7603.00000 7645.31283
7320.00000 7644.21039
7475.00000 7645.09478
7462.00000 7647.87923
7422.00000 7652.13542
7481.00000 7657.32977
7546.00000 7662.92524
7571.00000 7668.60333
7527.00000 7674.25268
7559.00000 7679.94947
7471.00000 7685.88850
7539.00000 7692.94461
7548.00000 7701.66305
7462.00000 7712.29915
7536.00000 7724.76535
7419.00000 7738.59657
7713.00000 7752.99285
7593.00000 7766.55036
7542.00000 7778.30981
7728.00000 7787.50579
7583.00000 7793.56002
7623.00000 7796.35221
7543.00000 7796.24803
7593.00000 7793.79105
7632.00000 7790.33621
7800.00000 7787.14719
7746.00000 7785.23827
7622.00000 7785.67434
7841.00000 7789.47661
7882.00000 7797.72774
7941.00000 7811.16493
7781.00000 7830.60004
7977.00000 7856.70766
7998.00000 7889.98250
7947.00000 7930.65435
8048.00000 7978.54919
8117.00000 8032.99669
8080.00000 8092.79480
8103.00000 8156.04936
8340.00000 8220.36944
8306.00000 8282.67411
8287.00000 8339.82925
8217.00000 8389.00444
8351.00000 8428.01752
8446.00000 8455.62988
8210.00000 8471.75991
8215.00000 8477.39996
8379.00000 8473.74319
8279.00000 8463.43549
8249.00000 8448.71114
8053.00000 8431.25884
8209.00000 8412.16235
8134.00000 8392.04153
8126.00000 8371.11498
8128.00000 8349.48519
8229.00000 8327.29769
8053.00000 8304.85996
8075.00000 8282.78657
8000.00000 8261.76588
8162.00000 8243.26591
8118.00000 8228.29547
7946.00000 8217.57383
8137.00000 8211.38694
8027.00000 8209.53144
7976.00000 8211.30605
7955.00000 8215.76694
8254.00000 8221.41896
8094.00000 8226.47608
8176.00000 8229.51495
7988.00000 8229.23284
8200.00000 8224.45557
7996.00000 8213.85440
7954.00000 8196.58742
7952.00000 8172.28909
7893.00000 8140.86398
7944.00000 8102.52408
7883.00000 8057.78768
7956.00000 8007.56409
7733.00000 7952.83454
7664.00000 7894.61258
7657.00000 7833.93444
7680.00000 7771.81613
7450.00000 7709.20811
7438.00000 7647.00784
7422.00000 7585.99641
7487.00000 7526.97107
7435.00000 7470.56596
7253.00000 7417.38382
7199.00000 7368.04388
7299.00000 7322.95622
7284.00000 7282.53386
7338.00000 7247.13415
7223.00000 7216.87352
7211.00000 7191.57802
7160.00000 7171.33031
7064.00000 7155.82801
7292.00000 7144.63932
7248.00000 7137.08109
7217.00000 7132.35666
7229.00000 7129.50706
7228.00000 7127.57137
7269.00000 7125.66673
7054.00000 7123.11261
7237.00000 7119.44889
7168.00000 7114.67973
7245.00000 7108.96139
7208.00000 7102.67334
7218.00000 7096.42164
7441.00000 7090.76445
7248.00000 7086.16695
7244.00000 7082.91885
7134.00000 7081.14611
7203.00000 7080.86792
7434.00000 7082.01380
7319.00000 7084.48786
7338.00000 7088.21519
7338.00000 7093.11676
7345.00000 7099.21834
7502.00000 7106.52888
7454.00000 7114.84911
7224.00000 7124.02245
7456.00000 7133.58115
7281.00000 7142.98715
7308.00000 7151.60027
7203.00000 7158.83997
7348.00000 7164.29112
7243.00000 7167.78330
7147.00000 7169.40922
7392.00000 7169.62594
7213.00000 7169.12650
7236.00000 7168.78483
7206.00000 7169.52428
7275.00000 7172.18081
7354.00000 7177.51333
7313.00000 7186.16628
7334.00000 7198.69620
7352.00000 7215.54246
7267.00000 7237.15644
7287.00000 7264.02834
7582.00000 7296.71284
7600.00000 7335.80202
7552.00000 7381.91143
7676.00000 7435.65537
7772.00000 7497.59707
7833.00000 7568.16195
7800.00000 7647.64788
7975.00000 7736.28446
8036.00000 7834.16670
8248.00000 7941.28801
8357.00000 8057.51709
8716.00000 8182.57096
8678.00000 8315.89161
8766.00000 8456.45984
8807.00000 8602.59633
8961.00000 8751.91905
9215.00000 8901.32798
9424.00000 9046.91954
9527.00000 9184.22870
9513.00000 9308.64393
9722.00000 9415.92374
9786.00000 9502.70758
9696.00000 9566.98453
9823.00000 9608.39318
9971.00000 9628.25851
9768.00000 9629.28666
9720.00000 9615.11915
9648.00000 9589.80919
9617.00000 9557.31967
9959.00000 9521.18567
9695.00000 9484.25845
9711.00000 9448.55365
9528.00000 9415.45434
9593.00000 9385.49491
9349.00000 9358.47512
9331.00000 9333.55871
9289.00000 9309.32192
9264.00000 9283.98997
9284.00000 9255.58069
9028.00000 9222.11406
9082.00000 9181.80087
9098.00000 9133.20482
8957.00000 9075.32005
8866.00000 9007.68634
8778.00000 8930.36928
8908.00000 8844.06785
8676.00000 8750.08429
8748.00000 8650.08118
8597.00000 8546.18035
8563.00000 8440.62448
8450.00000 8335.66078
8427.00000 8233.33281
8320.00000 8135.50643
8216.00000 8043.70754
7869.00000 7959.14522
8057.00000 7882.76658
8039.00000 7815.30024
8075.00000 7757.29203
7909.00000 7709.17163
7930.00000 7671.19504
7990.00000 7643.50346
7818.00000 7626.15501
7694.00000 7619.03440
7803.00000 7621.76924
7695.00000 7633.93011
7780.00000 7654.96828
7808.00000 7684.25243
7856.00000 7721.08145
7788.00000 7764.61439
7744.00000 7813.97532
7890.00000 7868.24320
7868.00000 7926.39142
7920.00000 7987.46127
8217.00000 8050.21647
7998.00000 8113.79968
8064.00000 8177.26442
7956.00000 8240.24325
8176.00000 8301.84544
8110.00000 8361.74918
8135.00000 8419.90030
8433.00000 8476.45888
8425.00000 8531.69356
8460.00000 8585.78947
8606.00000 8638.62703
8693.00000 8689.63315
8646.00000 8737.53932
8614.00000 8780.52693
8703.00000 8816.19945
8708.00000 8842.08997
8684.00000 8855.60298
8711.00000 8854.45808
8697.00000 8838.67444
8783.00000 8808.66785
8577.00000 8765.88896
8624.00000 8712.52604
8608.00000 8651.12559
8613.00000 8584.40614
8533.00000 8514.94385
8642.00000 8444.95137
8489.00000 8376.21981
8530.00000 8310.16740
8546.00000 8247.82067
8424.00000 8189.79119
8171.00000 8136.49433
8409.00000 8088.12118
8240.00000 8044.12746
8246.00000 8004.27986
8295.00000 7967.99801
8217.00000 7934.56718
8388.00000 7903.37335
8398.00000 7873.73072
8240.00000 7845.12579
8304.00000 7817.04533
8085.00000 7789.23387
8504.00000 7761.65096
8333.00000 7734.44889
8006.00000 7707.88382
8127.00000 7682.61108
8215.00000 7658.88644
8273.00000 7637.00481
8169.00000 7617.30998
8305.00000 7600.20726
8188.00000 7585.84864
8147.00000 7574.29074
8067.00000 7565.51560
8136.00000 7559.46940
8091.00000 7556.07728
7921.00000 7555.38853
7968.00000 7557.29542
8011.00000 7561.80180
7922.00000 7569.11047
7983.00000 7579.54065
7910.00000 7593.39157
7962.00000 7611.13474
8076.00000 7633.37655
8007.00000 7660.86686
8094.00000 7693.98466
7980.00000 7732.95598
8029.00000 7777.89312
8220.00000 7828.55521
8070.00000 7884.30791
8116.00000 7944.22117
8175.00000 8007.03218
8307.00000 8071.28152
8324.00000 8135.49848
8392.00000 8198.17750
8500.00000 8258.50852
8346.00000 8316.75448
8675.00000 8373.53265
8496.00000 8430.17467
8774.00000 8488.55158
8867.00000 8550.45090
8830.00000 8617.65004
8682.00000 8691.65702
9050.00000 8773.50933
9263.00000 8863.34363
9186.00000 8960.40688
9080.00000 9063.17790
9323.00000 9169.25404
9483.00000 9275.49354
9624.00000 9378.20972
9629.00000 9473.42423
9699.00000 9557.08527
9709.00000 9625.53225
9841.00000 9675.75289
9669.00000 9705.40071
9762.00000 9713.16550
9741.00000 9698.72894
9685.00000 9662.72095
9425.00000 9606.74298
9553.00000 9532.91524
9452.00000 9443.93609
9436.00000 9343.74980
9441.00000 9235.80747
9217.00000 9123.33331
9219.00000 9009.23696
9085.00000 8895.90365
8985.00000 8785.14143
9134.00000 8678.28405
8940.00000 8576.21984
8681.00000 8479.55782
8753.00000 8388.61640
8489.00000 8303.43150
8636.00000 8223.78601
8499.00000 8149.31270
8439.00000 8079.30398
8434.00000 8012.83738
8360.00000 7948.81223
8335.00000 7886.13075
8258.00000 7823.77695
8085.00000 7760.94340
8048.00000 7697.21603
7997.00000 7632.51702
7911.00000 7566.95628
7916.00000 7501.06489
7845.00000 7435.87538
7622.00000 7372.15410
7748.00000 7310.70251
7506.00000 7252.22251
7418.00000 7197.24841
7541.00000 7146.22016
7363.00000 7099.40395
7096.00000 7056.95716
7173.00000 7018.91927
7133.00000 6985.24424
7136.00000 6955.84273
7229.00000 6930.44939
6953.00000 6908.65525
7032.00000 6890.06190
6999.00000 6874.19373
7061.00000 6860.55906
7022.00000 6848.75594
6907.00000 6838.50766
6926.00000 6829.53503
6984.00000 6821.90356
7026.00000 6815.77674
7004.00000 6811.37921
6777.00000 6808.98539
6900.00000 6808.90062
6911.00000 6811.29689
6855.00000 6816.30582
6977.00000 6824.08014
6939.00000 6834.83334
6945.00000 6848.79943
6984.00000 6866.29919
6969.00000 6887.76224
7100.00000 6913.70310
7106.00000 6944.60728
7043.00000 6980.90517
7188.00000 7022.98739
7110.00000 7070.88815
7212.00000 7124.40330
7113.00000 7183.09590
7234.00000 7246.16616
7209.00000 7312.42869
7292.00000 7380.36929
7240.00000 7448.13795
7394.00000 7513.64465
7209.00000 7574.63988
7391.00000 7628.84698
7411.00000 7674.10942
7256.00000 7708.48997
7367.00000 7730.45618
7528.00000 7738.93192
7276.00000 7733.41155
7457.00000 7714.02484
7267.00000 7681.50683
7204.00000 7637.17664
7191.00000 7582.79885
7175.00000 7520.49442
7155.00000 7452.45145
7060.00000 7380.83064
6908.00000 7307.64290
6831.00000 7234.68410
6995.00000 7163.51560
6841.00000 7095.47053
6814.00000 7031.71569
6724.00000 6973.12992
6693.00000 6920.47833
6914.00000 6874.41913
6705.00000 6835.44776
6721.00000 6803.91947
6636.00000 6780.08183
6707.00000 6763.94193
6746.00000 6755.51894
6648.00000 6754.53658
6559.00000 6760.62851
6626.00000 6773.28944
6737.00000 6791.87340
6470.00000 6815.56990
6623.00000 6843.41409
6701.00000 6874.41814
6814.00000 6907.41424
6787.00000 6941.18727
6959.00000 6974.50540
6775.00000 7006.31467
6828.00000 7035.67304
6867.00000 7061.80651
6712.00000 7084.23494
6782.00000 7102.69289
6708.00000 7117.11079
6829.00000 7127.55197
6780.00000 7134.13010
6810.00000 7136.90059
6885.00000 7135.87382
6637.00000 7130.99559
6776.00000 7122.19819
6892.00000 7109.47820
6821.00000 7092.93988
6812.00000 7072.86658
6892.00000 7049.74163
6813.00000 7024.21324
6753.00000 6997.07296
6845.00000 6969.17907
6818.00000 6941.47131
6806.00000 6914.82621
6849.00000 6890.03114
6808.00000 6867.83793
6870.00000 6848.94904
6807.00000 6833.97034
6757.00000 6823.43425
6774.00000 6817.77442
6769.00000 6817.31346
6795.00000 6822.31758
6869.00000 6832.84045
6680.00000 6848.70778
6960.00000 6869.54289
6814.00000 6894.80190
6983.00000 6923.54456
6914.00000 6954.64673
6934.00000 6986.72096
7039.00000 7018.35829
6935.00000 7048.19772
7144.00000 7074.85363
6984.00000 7097.06093
6911.00000 7113.76064
6937.00000 7124.16919
6902.00000 7127.71228
6906.00000 7124.38177
6952.00000 7114.42063
7127.00000 7098.24476
6967.00000 7076.68381
6839.00000 7050.81878
7038.00000 7021.67252
6843.00000 6990.35016
7019.00000 6957.98671
6917.00000 6925.62764
6892.00000 6894.27035
6789.00000 6864.87242
6866.00000 6838.19843
6866.00000 6814.85434
6915.00000 6795.24083
6925.00000 6779.52597
6805.00000 6767.67764
6893.00000 6759.40088
6769.00000 6754.10251
6824.00000 6751.02964
6888.00000 6749.31462
6854.00000 6747.95720
6797.00000 6746.06541
6847.00000 6742.57077
6635.00000 6737.04703
6715.00000 6729.35737
6724.00000 6719.64736
6566.00000 6708.32467
6612.00000 6695.98478
6594.00000 6683.50577
6711.00000 6671.70004
6586.00000 6661.31579
6543.00000 6653.07092
6693.00000 6647.52948
6448.00000 6645.20519
6582.00000 6646.44853
6550.00000 6651.51270
6481.00000 6660.48072
6515.00000 6673.40211
6488.00000 6690.01124
6405.00000 6709.92833
6467.00000 6732.57387
6593.00000 6757.26773
6685.00000 6783.27551
6585.00000 6809.75823
6528.00000 6835.76341
6708.00000 6860.66321
6554.00000 6883.99795
6528.00000 6905.21499
6384.00000 6923.89241
6543.00000 6939.70412
6567.00000 6952.35732
6574.00000 6961.63273
6608.00000 6967.33208
6596.00000 6969.27177
6382.00000 6967.45992
6544.00000 6962.08201
6714.00000 6953.42772
6589.00000 6941.91088
6545.00000 6928.00655
6546.00000 6912.23179
6561.00000 6895.12261
6526.00000 6877.13302
6660.00000 6858.64125
6777.00000 6839.86753
6626.00000 6821.06683
6672.00000 6802.48998
6582.00000 6784.51730
6524.00000 6767.51000
6655.00000 6751.94092
6741.00000 6738.30504
6683.00000 6727.25258
6690.00000 6719.33927
6835.00000 6715.09932
6665.00000 6715.04705
6707.00000 6719.59978
6653.00000 6729.10188
6781.00000 6743.65143
6810.00000 6763.31788
6774.00000 6787.89682
6942.00000 6816.97173
6782.00000 6849.89567
6932.00000 6885.76643
6870.00000 6923.37944
6983.00000 6961.58514
7071.00000 6999.21074
6940.00000 7035.16442
6959.00000 7068.54600
7014.00000 7098.71855
7101.00000 7125.34322
6944.00000 7148.38946
7088.00000 7168.05098
6987.00000 7184.65345
7094.00000 7198.70016
6924.00000 7210.76112
6870.00000 7221.39044
6894.00000 7231.15394
7050.00000 7240.63561
7065.00000 7250.48373
6867.00000 7261.21717
7011.00000 7273.42366
6972.00000 7287.69508
7027.00000 7304.49531
6996.00000 7324.37631
7032.00000 7347.71620
7049.00000 7374.81467
7170.00000 7405.94151
7125.00000 7441.34917
6949.00000 7481.30241
7187.00000 7526.08915
7216.00000 7576.03042
7395.00000 7631.40798
7411.00000 7692.58929
7377.00000 7759.83340
7609.00000 7833.37168
7456.00000 7913.36386
7580.00000 8000.06437
7911.00000 8093.94551
7983.00000 8195.64099
8031.00000 8306.05635
8152.00000 8426.39688
8437.00000 8558.17236
8505.00000 8703.14498
8775.00000 8863.28536
8964.00000 9040.70027
9071.00000 9237.48342
9303.00000 9455.71132
9627.00000 9697.47264
10021.00000 9964.70891
10208.00000 10259.12353
10848.00000 10582.05731
11129.00000 10934.34376
11377.00000 11316.62185
11864.00000 11727.30581
12586.00000 12163.78329
12943.00000 12621.93980
13245.00000 13095.68319
13565.00000 13576.82016
14120.00000 14055.10534
14664.00000 14518.56819
14781.00000 14954.03864
15148.00000 15348.09837
15615.00000 15688.10183
15915.00000 15963.49676
15984.00000 16166.82199
15978.00000 16294.36181
15910.00000 16346.38405
15957.00000 16326.80782
16296.00000 16242.43667
15918.00000 16101.94981
15548.00000 15914.85505
15650.00000 15690.56110
15215.00000 15437.65017
14628.00000 15163.47361
14745.00000 14874.00245
14300.00000 14573.88293
14226.00000 14266.62410
13758.00000 13954.83230
13454.00000 13640.61846
13034.00000 13325.55331
12861.00000 13011.93604
12493.00000 12701.91976
12324.00000 12397.84426
12231.00000 12102.43866
11820.00000 11818.07880
11420.00000 11546.79426
11095.00000 11290.50375
10983.00000 11050.71801
10680.00000 10828.41691
10563.00000 10624.08150
10429.00000 10437.68145
10268.00000 10268.65203
10246.00000 10115.94802
9990.00000 9978.07279
9753.00000 9853.14974
9521.00000 9738.95489
9591.00000 9633.11478
9564.00000 9533.21245
9519.00000 9437.00179
9259.00000 9342.64220
9319.00000 9248.60640
9328.00000 9153.96771
8983.00000 9058.35636
9025.00000 8961.92890
8960.00000 8865.22783
8924.00000 8769.07231
8757.00000 8674.42437
8562.00000 8582.28693
8578.00000 8493.64143
8370.00000 8409.43445
8372.00000 8330.54512
8348.00000 8257.82522
8220.00000 8192.07752
8208.00000 8134.01154
8135.00000 8084.42803
8204.00000 8044.00602
8026.00000 8013.27078
8193.00000 7992.69166
8161.00000 7982.71806
8379.00000 7983.63132
8180.00000 7995.58229
7952.00000 8018.67361
8206.00000 8052.81707
8030.00000 8097.71576
8243.00000 8152.84434
8301.00000 8217.35552
8122.00000 8289.91214
8467.00000 8368.71890
8376.00000 8451.48184
8646.00000 8535.56794
8435.00000 8617.91947
8592.00000 8695.25927
8796.00000 8764.28297
8832.00000 8821.90081
8582.00000 8865.52674
8629.00000 8893.07737
8619.00000 8903.41080
8938.00000 8896.20397
8777.00000 8871.94958
8455.00000 8831.80419
8841.00000 8777.36531
8773.00000 8710.48912
8822.00000 8633.06492
8709.00000 8546.94901
8547.00000 8453.89636
8564.00000 8355.54300
8487.00000 8253.26258
8235.00000 8148.59498
8274.00000 8043.13730
8293.00000 7938.30604
7905.00000 7835.39143
7894.00000 7735.50099
7948.00000 7639.59601
7680.00000 7548.44025
7846.00000 7462.73873
7739.00000 7382.78263
7669.00000 7308.72525
7533.00000 7240.57115
7659.00000 7178.26355
7634.00000 7121.73302
7379.00000 7070.84823
7121.00000 7025.45506
7203.00000 6985.40451
7106.00000 6950.56977
7105.00000 6920.95840
7174.00000 6896.52966
6917.00000 6877.12614
7010.00000 6862.54542
7012.00000 6852.51425
7044.00000 6846.70885
7146.00000 6844.62298
6818.00000 6845.74678
6875.00000 6849.50864
6872.00000 6855.30181
6871.00000 6862.59045
6783.00000 6870.77649
6869.00000 6879.32366
6568.00000 6887.69668
6862.00000 6895.39192
6861.00000 6902.01937
6771.00000 6907.26749
6790.00000 6910.93582
6739.00000 6912.82824
6729.00000 6912.78884
6764.00000 6910.72475
6880.00000 6906.73626
6797.00000 6900.83620
6698.00000 6893.03903
6718.00000 6883.33697
6640.00000 6871.79723
6628.00000 6858.63188
6803.00000 6844.11735
6742.00000 6828.69842
6753.00000 6812.84123
6693.00000 6797.17893
6881.00000 6782.64105
6708.00000 6769.97904
6708.00000 6759.95242
6956.00000 6753.33537
6773.00000 6750.79969
6804.00000 6752.98547
6792.00000 6760.42463
6704.00000 6773.60876
7012.00000 6792.98360
6771.00000 6819.01055
6968.00000 6851.96345
6836.00000 6892.06901
7097.00000 6939.45928
6978.00000 6994.10725
7090.00000 7055.79350
7151.00000 7124.09402
7344.00000 7198.45893
7351.00000 7278.17451
7485.00000 7362.42203
7542.00000 7450.29206
7515.00000 7540.84547
7697.00000 7632.97199
7716.00000 7725.52522
7805.00000 7817.80002
7933.00000 7908.94513
7758.00000 7998.28371
8226.00000 8085.03394
7968.00000 8168.86697
8038.00000 8249.52130
8198.00000 8326.76157
8167.00000 8400.16244
8330.00000 8469.52928
8444.00000 8534.60369
8504.00000 8595.04662
8560.00000 8650.10151
8508.00000 8698.83824
8636.00000 8740.18438
8563.00000 8772.95994
8756.00000 8795.60961
8636.00000 8807.23739
8550.00000 8807.50489
8534.00000 8796.43229
8514.00000 8774.63588
8625.00000 8743.35789
8538.00000 8704.36723
8469.00000 8659.70722
8495.00000 8611.66175
8586.00000 8562.55955
8646.00000 8514.68386
8578.00000 8470.06265
8208.00000 8430.48951
8316.00000 8397.50155
8555.00000 8372.36058
8370.00000 8355.98658
8248.00000 8348.95048
8329.00000 8351.70400
8247.00000 8364.09175
8324.00000 8385.78337
8388.00000 8415.96872
8357.00000 8453.48771
8463.00000 8496.95632
8357.00000 8544.67614
8588.00000 8594.64929
8678.00000 8644.87372
8492.00000 8693.46526
8627.00000 8738.67236
8409.00000 8778.97573
8606.00000 8813.10785
8435.00000 8840.02472
8614.00000 8858.78874
8797.00000 8868.60462
8736.00000 8868.73675
8596.00000 8858.56968
8684.00000 8837.60722
8617.00000 8805.56757
8345.00000 8762.48042
8431.00000 8708.78162
8358.00000 8645.16324
8549.00000 8572.73474
8432.00000 8492.76225
8291.00000 8406.61913
8387.00000 8315.71734
8029.00000 8221.40079
8004.00000 8124.87094
7892.00000 8027.30461
7966.00000 7929.81656
7950.00000 7833.38559
7855.00000 7738.94282
7698.00000 7647.38028
7624.00000 7559.48985
7773.00000 7476.16565
7624.00000 7398.15656
7530.00000 7326.11962
7336.00000 7260.64254
7341.00000 7202.17157
7476.00000 7151.11381
7490.00000 7107.80585
7310.00000 7072.56210
7311.00000 7045.72261
7169.00000 7027.42218
7161.00000 7017.78278
7128.00000 7016.91060
7180.00000 7024.82531
7049.00000 7041.43270
7124.00000 7066.53130
6944.00000 7099.73854
7085.00000 7140.40724
7186.00000 7187.73537
7261.00000 7240.62632
7183.00000 7297.75793
7252.00000 7357.56389
7241.00000 7418.27906
7037.00000 7477.97734
7379.00000 7534.63014
7243.00000 7586.23076
7221.00000 7630.89556
7304.00000 7666.92206
7300.00000 7693.07954
7114.00000 7708.43593
7175.00000 7712.59842
7251.00000 7705.66666
7247.00000 7688.17771
7131.00000 7661.12137
7154.00000 7625.81810
7206.00000 7583.59824
7211.00000 7535.83860
7367.00000 7483.85335
7026.00000 7428.77123
6997.00000 7371.49685
7089.00000 7312.75481
7074.00000 7253.06255
7000.00000 7192.75667
6889.00000 7132.18701
7061.00000 7071.63565
6929.00000 7011.40881
6798.00000 6951.86627
6891.00000 6893.44748
6807.00000 6836.64074
6684.00000 6781.98424
6863.00000 6730.02841
6733.00000 6681.28050
6782.00000 6636.26682
6808.00000 6595.41781
6732.00000 6559.14541
6673.00000 6527.76876
6812.00000 6501.53992
6536.00000 6480.61289
6595.00000 6465.13268
6610.00000 6455.17430
6725.00000 6450.83675
6601.00000 6452.13789
6782.00000 6459.09423
6756.00000 6471.73744
6885.00000 6490.10749
6942.00000 6514.24523
6992.00000 6544.20477
7000.00000 6580.05537
6890.00000 6621.77479
6921.00000 6669.28926
7133.00000 6722.44281
7110.00000 6780.94003
7341.00000 6844.40018
7332.00000 6912.26278
7365.00000 6983.76185
7422.00000 7057.95307
7377.00000 7133.63410
7467.00000 7209.38438
7595.00000 7283.60898
7452.00000 7354.56772
7455.00000 7420.44821
7561.00000 7479.51235
7628.00000 7530.18514
7720.00000 7571.19632
7686.00000 7601.68002
7708.00000 7621.18740
7788.00000 7629.73468
7738.00000 7627.69751
7553.00000 7615.77638
7557.00000 7594.89764
7593.00000 7566.12740
7658.00000 7530.59153
7524.00000 7489.43316
7704.00000 7443.80900
7394.00000 7394.86690
7380.00000 7343.67685
7504.00000 7291.25143
7279.00000 7238.62210
7371.00000 7186.77995
7357.00000 7136.62808
7211.00000 7089.02715
7304.00000 7044.75309
7351.00000 7004.42943
7209.00000 6968.48237
7138.00000 6937.31652
7132.00000 6911.06036
7210.00000 6889.64594
7253.00000 6872.86288
7080.00000 6860.23902
7233.00000 6851.10320
7032.00000 6844.65292
7176.00000 6840.02862
7237.00000 6836.26809
7222.00000 6832.39633
7092.00000 6827.52917
7054.00000 6820.90725
6848.00000 6811.97766
7078.00000 6800.18097
7140.00000 6785.44584
6895.00000 6767.84814
6812.00000 6747.59220
6842.00000 6725.00578
6920.00000 6700.91139
6920.00000 6675.84555
6642.00000 6650.40207
6611.00000 6625.07117
6718.00000 6600.35417
6768.00000 6576.70312
6741.00000 6554.52646
6520.00000 6534.20825
6437.00000 6516.09844
6614.00000 6500.48375
6485.00000 6487.57660
6555.00000 6477.57603
6475.00000 6470.67821
6392.00000 6466.90026
6492.00000 6466.25775
6343.00000 6468.68588
6557.00000 6474.02591
6357.00000 6482.07066
6615.00000 6492.60372
6459.00000 6505.34931
6467.00000 6519.85185
6428.00000 6535.62750
6268.00000 6552.35203
6438.00000 6569.47320
6436.00000 6586.42284
6381.00000 6602.85132
6355.00000 6618.18617
6633.00000 6632.06461
6443.00000 6644.28730
6469.00000 6654.84187
6610.00000 6663.92580
6511.00000 6671.92308
6485.00000 6679.40159
6399.00000 6687.06127
6594.00000 6695.67668
6476.00000 6706.05725
6489.00000 6719.00319
6785.00000 6735.21561
6842.00000 6755.33508
6777.00000 6779.83382
6844.00000 6809.16189
7045.00000 6843.54013
7041.00000 6883.19490
7312.00000 6927.82862
7148.00000 6977.10855
7356.00000 7030.51622
7274.00000 7087.42627
7248.00000 7146.95279
7483.00000 7208.00068
7484.00000 7269.32421
7479.00000 7329.44171
7509.00000 7386.69503
7644.00000 7439.37807
7595.00000 7485.73770
7671.00000 7524.15365
7849.00000 7553.16878
7667.00000 7571.73207
7641.00000 7579.26536
7560.00000 7575.60082
7756.00000 7560.58754
7750.00000 7535.57744
7593.00000 7501.95162
7485.00000 7461.13704
7633.00000 7414.65672
7488.00000 7364.00431
7538.00000 7310.52039
7298.00000 7255.42053
7379.00000 7199.77289
7171.00000 7144.43965
7135.00000 7090.14739
7154.00000 7037.42707
7017.00000 6986.70773
7071.00000 6938.31288
7004.00000 6892.52968
6938.00000 6849.50486
6807.00000 6809.42834
6952.00000 6772.36484
6930.00000 6738.44717
6750.00000 6707.74508
6595.00000 6680.30552
6862.00000 6656.06107
6844.00000 6635.05590
6806.00000 6617.18414
6803.00000 6602.29970
6706.00000 6590.24678
6906.00000 6580.84542
6907.00000 6573.88495
6750.00000 6569.21783
6799.00000 6566.67338
6925.00000 6566.14177
6903.00000 6567.57789
6905.00000 6570.98748
6830.00000 6576.40980
6839.00000 6583.85068
6975.00000 6593.44109
7034.00000 6605.15709
6947.00000 6618.89424
6857.00000 6634.44326
6966.00000 6651.44914
6961.00000 6669.46535
6921.00000 6687.88332
7039.00000 6706.05544
6881.00000 6723.28252
6983.00000 6738.88892
6862.00000 6752.25179
7051.00000 6762.68541
6919.00000 6769.75517
6912.00000 6772.95765
6911.00000 6772.03431
6786.00000 6766.79120
6778.00000 6757.11861
6777.00000 6743.12872
6721.00000 6724.90690
6948.00000 6702.66044
6730.00000 6676.72359
6552.00000 6647.44604
6670.00000 6615.28829
6633.00000 6580.78156
6559.00000 6544.50180
6551.00000 6507.01499
6445.00000 6468.87357
6399.00000 6430.61453
6378.00000 6392.67601
6417.00000 6355.40363
6242.00000 6319.11377
6265.00000 6284.02982
6326.00000 6250.29108
5971.00000 6217.98969
6130.00000 6187.17128
5967.00000 6157.83895
6045.00000 6129.95589
6056.00000 6103.46259
6053.00000 6078.41638
6038.00000 6054.84182
5926.00000 6032.78209
5999.00000 6012.33252
5984.00000 5993.61639
5890.00000 5976.73252
5795.00000 5961.77128
5886.00000 5948.79477
5850.00000 5937.81052
5937.00000 5928.76673
5867.00000 5921.61152
5757.00000 5916.20815
5830.00000 5912.34128
5951.00000 5909.68792
5839.00000 5908.01107
5930.00000 5906.99334
5822.00000 5906.29939
5990.00000 5905.58632
5899.00000 5904.48911
5752.00000 5902.69461
5821.00000 5899.91674
5836.00000 5895.91859
5786.00000 5890.44075
5716.00000 5883.35643
5617.00000 5874.54737
5810.00000 5864.00983
5775.00000 5851.75882
5738.00000 5837.88415
5737.00000 5822.54016
5776.00000 5805.94175
5854.00000 5788.32952
5689.00000 5769.97852
5684.00000 5751.18263
5615.00000 5732.24263
5641.00000 5713.45445
5592.00000 5695.10728
5504.00000 5677.46303
5506.00000 5660.79430
5560.00000 5645.32235
5516.00000 5631.27507
5516.00000 5618.85119
5531.00000 5608.22085
5497.00000 5599.52340
5661.00000 5592.86426
5743.00000 5588.31091
5568.00000 5585.90418
5736.00000 5585.52777
5682.00000 5587.14627
5591.00000 5590.58537
5521.00000 5595.63403
5526.00000 5602.02904
5621.00000 5609.48288
5574.00000 5617.65305
5738.00000 5626.12703
5608.00000 5634.73880
5756.00000 5643.44165
5663.00000 5651.73756
5574.00000 5659.46210
5680.00000 5666.48304
5665.00000 5672.73817
5628.00000 5678.20766
5742.00000 5682.90801
5649.00000 5686.88105
5658.00000 5690.17720
5717.00000 5692.91160
5699.00000 5695.20739
5712.00000 5697.20323
5593.00000 5699.06417
5684.00000 5700.98222
5649.00000 5703.16098
5681.00000 5705.79800
5556.00000 5709.12208
5812.00000 5713.37773
5818.00000 5718.76042
5814.00000 5725.40039
5680.00000 5733.43658
5746.00000 5742.98346
5930.00000 5754.12581
5945.00000 5766.86973
5812.00000 5781.23425
5904.00000 5797.21702
5806.00000 5814.79537
5962.00000 5833.95651
5945.00000 5854.74929
6184.00000 5877.20092
6108.00000 5901.39711
6222.00000 5927.42590
6105.00000 5955.38401
6178.00000 5985.36680
6311.00000 6017.47672
6455.00000 6051.80339
6265.00000 6088.40004
6324.00000 6127.09438
6344.00000 6167.70067
6381.00000 6209.95131
6474.00000 6253.61553
6482.00000 6298.38147
6594.00000 6343.70775
6616.00000 6388.94106
6788.00000 6433.40893
6701.00000 6476.31506
6593.00000 6516.74411
6573.00000 6553.75762
6770.00000 6586.40977
6704.00000 6613.70060
6746.00000 6634.63762
6818.00000 6648.95227
6726.00000 6656.36576
6777.00000 6656.84917
6650.00000 6650.64532
6864.00000 6638.19877
6630.00000 6620.11022
6653.00000 6597.08279
6651.00000 6570.38680
6551.00000 6540.49200
6554.00000 6508.03485
6402.00000 6473.76532
6330.00000 6438.27102
6405.00000 6402.06667
6216.00000 6365.69364
6274.00000 6329.62049
6238.00000 6294.23122
6172.00000 6259.87265
6144.00000 6226.90783
6105.00000 6195.67972
6050.00000 6166.50474
6207.00000 6139.66998
6102.00000 6115.44456
5921.00000 6094.00421
6205.00000 6075.48705
5984.00000 6060.02252
6106.00000 6047.78575
5979.00000 6038.69365
5905.00000 6032.78086
5946.00000 6029.91336
6052.00000 6029.90976
6021.00000 6032.65045
5920.00000 6038.05365
5755.00000 6045.94819
5876.00000 6056.16566
5839.00000 6068.65366
5935.00000 6083.34205
5835.00000 6100.16131
6143.00000 6119.08854
6110.00000 6140.12249
5975.00000 6163.28093
5983.00000 6188.63029
6095.00000 6216.28987
6219.00000 6246.26173
6153.00000 6278.71911
6249.00000 6313.85246
6341.00000 6351.79576
6442.00000 6392.79842
6148.00000 6436.70203
6511.00000 6483.35594
6349.00000 6532.55080
6496.00000 6583.76313
6578.00000 6636.32687
6492.00000 6689.36963
6676.00000 6741.78877
6654.00000 6792.33475
6768.00000 6839.65892
6690.00000 6882.33503
6668.00000 6918.98804
6740.00000 6948.39361
6711.00000 6969.58263
6886.00000 6981.86653
6832.00000 6984.93056
6815.00000 6978.81223
6828.00000 6963.89791
6738.00000 6940.60611
6683.00000 6909.98214
6592.00000 6873.23389
6623.00000 6831.42491
6525.00000 6785.60750
6656.00000 6736.78294
6516.00000 6685.83699
6559.00000 6633.60809
6266.00000 6580.83383
6291.00000 6528.16578
6248.00000 6476.18103
6197.00000 6425.39151
6230.00000 6376.23570
6299.00000 6329.05557
6396.00000 6284.11387
6200.00000 6241.55053
6129.00000 6201.50239
6039.00000 6164.00539
5904.00000 6129.04238
5851.00000 6096.59503
5940.00000 6066.44688
5880.00000 6038.47733
6031.00000 6012.54735
5887.00000 5988.55356
5680.00000 5966.39277
5811.00000 5946.03129
5846.00000 5927.34599
5993.00000 5910.48252
5962.00000 5895.38154
5724.00000 5882.00304
5902.00000 5870.32192
5855.00000 5860.27100
5720.00000 5851.60928
5660.00000 5844.16678
5726.00000 5837.77475
5755.00000 5832.18943
5603.00000 5827.11475
5610.00000 5822.32143
5757.00000 5817.55014
5595.00000 5812.61923
5590.00000 5807.39690
5712.00000 5801.81202
5645.00000 5795.86461
5694.00000 5789.61587
5712.00000 5783.20240
5721.00000 5776.80508
5629.00000 5770.61290
5821.00000 5764.84991
5543.00000 5759.76842
5681.00000 5755.59742
5717.00000 5752.54803
5605.00000 5750.85012
5799.00000 5750.67114
5781.00000 5752.09615
5835.00000 5755.24615
5918.00000 5760.21363
5912.00000 5767.03973
5795.00000 5775.73363
5900.00000 5786.29402
6101.00000 5798.68773
6046.00000 5812.87197
6029.00000 5828.79359
6220.00000 5846.40605
6194.00000 5865.62347
6087.00000 5886.38777
6127.00000 5908.50049
6164.00000 5931.74929
6216.00000 5955.85369
6209.00000 5980.50773
6259.00000 6005.31038
6319.00000 6029.71688
6246.00000 6053.12349
6304.00000 6074.84700
6382.00000 6094.16356
6272.00000 6110.44201
6410.00000 6122.97535
6389.00000 6131.20073
6265.00000 6134.66444
6226.00000 6133.13391
6253.00000 6126.55742
6227.00000 6115.04382
6333.00000 6098.91892
6202.00000 6078.60958
6139.00000 6054.66219
6149.00000 6027.66949
6100.00000 5998.28505
6133.00000 5967.15562
6163.00000 5934.88763
6010.00000 5902.05724
5953.00000 5869.20621
5955.00000 5836.81761
5915.00000 5805.33746
5737.00000 5775.15375
5845.00000 5746.62728
5831.00000 5720.06145
5808.00000 5695.70842
5827.00000 5673.82788
5780.00000 5654.57643
5776.00000 5638.10297
5765.00000 5624.53441
5689.00000 5613.96425
5684.00000 5606.46498
5766.00000 5602.16062
5713.00000 5601.09062
5606.00000 5603.27690
5606.00000 5608.77275
5711.00000 5617.62797
5778.00000 5629.88181
5845.00000 5645.59665
5679.00000 5664.80855
5760.00000 5687.58876
5632.00000 5713.94974
5790.00000 5743.90653
5953.00000 5777.49756
5825.00000 5814.75183
5874.00000 5855.59268
6021.00000 5900.01409
6044.00000 5947.88466
6111.00000 5999.06299
6131.00000 6053.37465
6114.00000 6110.61301
6295.00000 6170.44549
6442.00000 6232.56190
6372.00000 6296.56524
6369.00000 6362.01575
6537.00000 6428.46945
6555.00000 6495.41782
6676.00000 6562.33722
6752.00000 6628.67842
6947.00000 6693.86274
6807.00000 6757.29934
6879.00000 6818.34868
6840.00000 6876.30139
6892.00000 6930.52755
6926.00000 6980.20100
6913.00000 7024.53690
6992.00000 7062.78190
6984.00000 7094.26062
7091.00000 7118.42545
6913.00000 7134.84322
7053.00000 7143.39117
7014.00000 7144.16157
6906.00000 7137.50277
6960.00000 7123.96601
6769.00000 7104.30435
6816.00000 7079.37172
6768.00000 7050.03675
6852.00000 7017.18520
6735.00000 6981.61571
6641.00000 6944.04434
6682.00000 6905.03258
6585.00000 6865.03937
6597.00000 6824.40487
6448.00000 6783.37435
6505.00000 6742.13621
6602.00000 6700.84361
6383.00000 6659.63904
6417.00000 6618.67451
6389.00000 6578.12323
6360.00000 6538.24358
6303.00000 6499.40219
6205.00000 6461.94948
6291.00000 6426.36715
6228.00000 6393.01475
6155.00000 6362.32655
6136.00000 6334.70255
6165.00000 6310.46238
6080.00000 6289.90725
6254.00000 6273.32960
6068.00000 6260.93053
5996.00000 6252.85205
6090.00000 6249.17335
6165.00000 6249.97095
6049.00000 6255.11089
6086.00000 6264.65618
6091.00000 6278.24320
6004.00000 6295.51210
6102.00000 6315.99731
6085.00000 6339.16183
5971.00000 6364.29341
6051.00000 6390.64911
6037.00000 6417.40848
6141.00000 6443.69025
6194.00000 6468.57407
6153.00000 6491.13853
6116.00000 6510.61292
6255.00000 6526.28010
6083.00000 6537.55727
6165.00000 6544.02256
6266.00000 6545.47623
6191.00000 6541.62020
6213.00000 6532.91410
6194.00000 6519.76341
6188.00000 6502.66895
6317.00000 6482.19236
6166.00000 6458.94289
6138.00000 6433.56043
6247.00000 6406.59973
6147.00000 6378.56476
6156.00000 6349.90828
6159.00000 6321.02116
5959.00000 6292.21351
6185.00000 6263.74697
6162.00000 6235.85740
6072.00000 6208.72677
6003.00000 6182.51375
6101.00000 6157.39337
5995.00000 6133.46895
6188.00000 6110.78242
6018.00000 6089.49543
5975.00000 6069.70308
6011.00000 6051.46797
6003.00000 6034.85707
5956.00000 6019.91641
5996.00000 6006.63809
6060.00000 5995.09955
6044.00000 5985.28686
5983.00000 5977.14241
5795.00000 5970.58267
6073.00000 5965.41012
5941.00000 5961.47584
6090.00000 5958.51659
5931.00000 5956.31353
6169.00000 5954.52387
5899.00000 5952.79129
6004.00000 5950.89159
6042.00000 5948.64113
6052.00000 5945.82006
5843.00000 5942.22811
6060.00000 5937.82560
6060.00000 5932.60408
6052.00000 5926.62709
5884.00000 5920.00754
5900.00000 5912.89779
5784.00000 5905.43734
5986.00000 5897.77998
5877.00000 5890.09162
5842.00000 5882.53668
5897.00000 5875.26532
5738.00000 5868.32114
5692.00000 5861.80079
5740.00000 5855.75548
5741.00000 5850.26045
5811.00000 5845.33378
5795.00000 5840.99742
5630.00000 5837.25833
5632.00000 5834.12664
5744.00000 5831.62824
5601.00000 5829.78981
5678.00000 5828.62717
5700.00000 5828.15678
5635.00000 5828.39434
5662.00000 5829.32146
5728.00000 5830.89347
5757.00000 5833.01929
5859.00000 5835.61567
5579.00000 5838.58854
5804.00000 5841.80975
5805.00000 5845.09122
5651.00000 5848.29651
5658.00000 5851.30589
5687.00000 5854.02224
5838.00000 5856.37087
5710.00000 5858.43097
5721.00000 5860.26675
5805.00000 5862.02486
5669.00000 5863.89064
5836.00000 5866.06173
5950.00000 5868.73725
5811.00000 5872.14854
5797.00000 5876.49606
5869.00000 5881.94729
5981.00000 5888.65098
5955.00000 5896.74069
6028.00000 5906.28935
5945.00000 5917.36799
6075.00000 5930.03633
6097.00000 5944.31233
6046.00000 5960.16983
5930.00000 5977.64854
6087.00000 5996.74099
6024.00000 6017.38766
6117.00000 6039.51631
6081.00000 6063.00501
6079.00000 6087.69260
6240.00000 6113.37077
6222.00000 6139.84972
6242.00000 6166.80802
6167.00000 6194.09907
6263.00000 6221.44081
6377.00000 6248.61969
6157.00000 6275.42681
6345.00000 6301.73027
6340.00000 6327.41572
6320.00000 6352.30378
6367.00000 6376.30234
6339.00000 6399.29927
6447.00000 6421.18101
6363.00000 6441.77889
6605.00000 6460.93435
6421.00000 6478.43675
6634.00000 6494.03490
6531.00000 6507.49766
6500.00000 6518.58740
6582.00000 6527.07909
6651.00000 6532.78514
6665.00000 6535.56457
6573.00000 6535.32782
6515.00000 6532.07042
6560.00000 6525.88774
6575.00000 6516.96235
6368.00000 6505.52991
6448.00000 6491.90990
6614.00000 6476.47283
6423.00000 6459.64303
6632.00000 6441.76884
6366.00000 6423.38133
6379.00000 6404.89285
6398.00000 6386.73642
6276.00000 6369.32901
6376.00000 6353.05829
6395.00000 6338.27632
6444.00000 6325.28164
6430.00000 6314.32570
6374.00000 6305.56812
6341.00000 6299.08371
6308.00000 6294.86691
6467.00000 6292.81852
6383.00000 6292.86889
6323.00000 6294.67437
6354.00000 6297.89423
6412.00000 6302.12178
6294.00000 6306.91313
6519.00000 6311.79699
6414.00000 6316.30548
6300.00000 6320.02092
6291.00000 6322.54952
6423.00000 6323.58956
6370.00000 6322.96132
6343.00000 6320.56344
6446.00000 6316.36647
6390.00000 6310.45859
6392.00000 6303.12026
6310.00000 6294.60951
6389.00000 6285.30226
6357.00000 6275.53487
6384.00000 6265.66655
6232.00000 6256.04984
6462.00000 6246.98063
6224.00000 6238.74218
6411.00000 6231.57600
6335.00000 6225.60713
6439.00000 6220.95407
6256.00000 6217.71686
6311.00000 6215.92425
6324.00000 6215.64435
6378.00000 6216.85916
6255.00000 6219.60945
6227.00000 6223.92452
6448.00000 6229.84354
6393.00000 6237.42601
6260.00000 6246.72984
6401.00000 6257.81027
6372.00000 6270.71506
6355.00000 6285.52357
6424.00000 6302.19411
6449.00000 6320.66822
6511.00000 6340.92681
6522.00000 6362.86733
6490.00000 6386.41585
6492.00000 6411.30478
6546.00000 6437.32293
6554.00000 6464.22944
6612.00000 6491.76592
6495.00000 6519.69869
6742.00000 6547.81942
6653.00000 6575.98929
6634.00000 6604.11334
6846.00000 6632.13086
6703.00000 6659.95143
6853.00000 6687.85284
6773.00000 6715.96091
6869.00000 6744.39007
6892.00000 6773.19677
6851.00000 6802.38277
6886.00000 6831.82719
6915.00000 6861.32976
6919.00000 6890.54589
6944.00000 6919.20356
6935.00000 6946.76615
6986.00000 6972.69137
7103.00000 6996.44932
6954.00000 7017.54002
6909.00000 7035.56463
6802.00000 7050.17525
6995.00000 7061.20330
7023.00000 7068.60294
6943.00000 7072.49157
6942.00000 7073.17483
6942.00000 7071.03242
7149.00000 7066.39655
7095.00000 7059.87016
6984.00000 7052.16359
6917.00000 7043.77968
6989.00000 7035.31211
6941.00000 7027.27055
7026.00000 7020.07893
7104.00000 7014.12778
6869.00000 7009.71082
6996.00000 7006.95448
7108.00000 7005.95370
7090.00000 7006.70918
6983.00000 7009.10681
7005.00000 7012.92314
6967.00000 7017.88494
6939.00000 7023.59980
7011.00000 7029.65047
7068.00000 7035.49705
6855.00000 7040.62767
6986.00000 7044.54219
6944.00000 7046.77424
6905.00000 7046.95232
7046.00000 7044.79665
6906.00000 7040.13295
6836.00000 7032.89623
6813.00000 7023.27340
6985.00000 7011.56912
6926.00000 6998.18509
6848.00000 6983.60641
6803.00000 6968.39975
6846.00000 6953.15552
6682.00000 6938.54264
6897.00000 6925.21233
6865.00000 6913.67505
6876.00000 6904.40265
6876.00000 6897.91367
6932.00000 6894.58090
6867.00000 6894.69531
6885.00000 6898.42343
6930.00000 6905.84384
6995.00000 6916.95043
7039.00000 6931.65436
6994.00000 6949.81304
7038.00000 6971.16979
7025.00000 6995.33219
7281.00000 7021.88149
7126.00000 7050.24410
7188.00000 7079.88190
7192.00000 7110.24573
7371.00000 7140.74148
7249.00000 7170.75183
7320.00000 7199.68891
7230.00000 7227.06008
7301.00000 7252.36409
7243.00000 7275.24345
7117.00000 7295.40441
7269.00000 7312.66746
7236.00000 7326.95205
7289.00000 7338.28309
7265.00000 7346.75128
7448.00000 7352.46905
7425.00000 7355.51140
7465.00000 7355.92917
7273.00000 7353.73228
7288.00000 7348.77016
7221.00000 7340.80873
7483.00000 7329.53364
7094.00000 7314.62037
7150.00000 7295.75256
7176.00000 7272.61033
7117.00000 7244.93323
7029.00000 7212.48821
6910.00000 7175.20892
7070.00000 7133.16155
7027.00000 7086.53941
6738.00000 7035.66639
7003.00000 6980.99780
6656.00000 6923.04758
6678.00000 6862.38076
6521.00000 6799.60071
6721.00000 6735.31552
6566.00000 6670.08228
6537.00000 6604.43308
6575.00000 6538.85460
6330.00000 6473.77654
6357.00000 6409.57656
6302.00000 6346.60705
6320.00000 6285.16148
6166.00000 6225.54908
6136.00000 6167.98287
6058.00000 6112.67421
6031.00000 6059.79268
5987.00000 6009.50911
6128.00000 5961.99434
6041.00000 5917.39214
6014.00000 5875.83894
5935.00000 5837.46556
6030.00000 5802.39528
5888.00000 5770.73015
5960.00000 5742.57688
5860.00000 5718.02209
5787.00000 5697.13176
5881.00000 5679.97585
5859.00000 5666.59440
5833.00000 5657.03671
5713.00000 5651.30794
5807.00000 5649.42064
5799.00000 5651.35295
5903.00000 5657.04317
6027.00000 5666.44561
5920.00000 5679.42981
5938.00000 5695.85079
5937.00000 5715.54905
6045.00000 5738.21975
5996.00000 5763.55408
5942.00000 5791.19512
6023.00000 5820.73453
6154.00000 5851.71945
6139.00000 5883.65084
6059.00000 5915.99246
6000.00000 5948.19326
6060.00000 5979.62074
6304.00000 6009.74364
6203.00000 6038.02841
6272.00000 6063.95441
6339.00000 6087.01903
6233.00000 6106.77296
6143.00000 6122.81856
6134.00000 6134.85912
6256.00000 6142.68436
6043.00000 6146.11261
6115.00000 6145.07436
6245.00000 6139.60062
6185.00000 6129.83242
6106.00000 6116.00446
6165.00000 6098.43890
6105.00000 6077.51862
5953.00000 6053.69114
5973.00000 6027.43811
5990.00000 5999.24927
5921.00000 5969.62581
6008.00000 5939.04588
5832.00000 5907.98935
5809.00000 5876.86221
5820.00000 5846.05574
5897.00000 5815.91612
5769.00000 5786.74227
5854.00000 5758.79492
5712.00000 5732.29600
5784.00000 5707.43323
5743.00000 5684.35446
5863.00000 5663.17692
5810.00000 5643.97583
5787.00000 5626.77052
5596.00000 5611.53986
5799.00000 5598.24825
5710.00000 5586.79174
5740.00000 5577.04393
5805.00000 5568.84325
5756.00000 5561.99788
5510.00000 5556.30263
5714.00000 5551.54464
5780.00000 5547.51609
5705.00000 5544.02069
5761.00000 5540.88257
5764.00000 5537.94531
5636.00000 5535.07547
5741.00000 5532.24692
5811.00000 5529.44264
5699.00000 5526.69938
5660.00000 5524.10394
5733.00000 5521.78215
5609.00000 5519.91072
5715.00000 5518.69554
5787.00000 5518.30581
5702.00000 5518.95966
5775.00000 5520.86065
5712.00000 5524.21556
5711.00000 5529.19080
5683.00000 5535.93412
5768.00000 5544.56036
5779.00000 5555.18949
5878.00000 5567.87333
5731.00000 5582.65629
5700.00000 5599.54102
5817.00000 5618.47963
5947.00000 5639.42688
5815.00000 5662.24680
5950.00000 5686.94509
5860.00000 5713.22761
6039.00000 5740.85686
5857.00000 5769.56812
6060.00000 5799.03969
5960.00000 5828.92941
5962.00000 5858.84826
5911.00000 5888.35715
5959.00000 5916.99749
6015.00000 5944.37331
5989.00000 5970.07468
6158.00000 5993.64137
6124.00000 6014.68118
6074.00000 6032.84221
5953.00000 6047.81921
6081.00000 6059.35645
5979.00000 6067.15359
6148.00000 6071.04329
5996.00000 6071.13133
6133.00000 6067.44544
5877.00000 6060.10018
5970.00000 6049.25208
6010.00000 6035.14210
5925.00000 6018.06634
5998.00000 5998.34969
5692.00000 5976.40139
5805.00000 5952.63700
5837.00000 5927.48450
5752.00000 5901.36984
5826.00000 5874.70482
5798.00000 5847.87699
5620.00000 5821.24034
5619.00000 5795.12635
5818.00000 5769.83403
5768.00000 5745.64216
5659.00000 5722.76781
5617.00000 5701.41615
5721.00000 5681.73074
5464.00000 5663.86571
5613.00000 5647.92310
5606.00000 5634.00068
5507.00000 5622.20356
5578.00000 5612.58093
5706.00000 5605.20432
5518.00000 5600.12445
5467.00000 5597.36390
5498.00000 5596.95243
5436.00000 5598.90897
5690.00000 5603.32558
5485.00000 5610.24869
5637.00000 5619.68686
5503.00000 5631.69274
5559.00000 5646.32488
5630.00000 5663.64239
5625.00000 5683.71192
5844.00000 5706.58896
5756.00000 5732.34747
5769.00000 5761.05396
5714.00000 5792.73936
5790.00000 5827.42387
5781.00000 5865.12253
5732.00000 5905.76810
5837.00000 5949.31433
5796.00000 5995.63091
5978.00000 6044.57344
6086.00000 6095.92116
5930.00000 6149.41177
6112.00000 6204.73755
6165.00000 6261.62801
6223.00000 6319.62735
6297.00000 6378.51244
6343.00000 6437.85554
6347.00000 6497.32169
6279.00000 6556.60000
6529.00000 6615.42660
6567.00000 6673.58191
6595.00000 6730.89023
6695.00000 6787.20968
6698.00000 6842.42643
6810.00000 6896.45250
6675.00000 6949.19899
6767.00000 7000.53802
6842.00000 7050.30895
6876.00000 7098.32678
6951.00000 7144.33961
7233.00000 7188.00729
7059.00000 7228.93141
7192.00000 7266.72147
7100.00000 7300.96552
7139.00000 7331.21504
7158.00000 7357.00219
7277.00000 7377.88911
7430.00000 7393.59350
7358.00000 7403.85212
7303.00000 7408.48673
7263.00000 7407.40243
7330.00000 7400.63636
7302.00000 7388.33564
7439.00000 7370.75508
7277.00000 7348.22950
7337.00000 7321.16717
7221.00000 7289.99255
7249.00000 7255.16757
7444.00000 7217.11152
7082.00000 7176.28349
7203.00000 7133.01044
7015.00000 7087.58811
7179.00000 7040.26715
7020.00000 6991.26127
6871.00000 6940.69421
6814.00000 6888.75539
7051.00000 6835.58061
6729.00000 6781.31626
6731.00000 6726.13509
6563.00000 6670.25259
6697.00000 6613.89026
6412.00000 6557.31580
6564.00000 6500.81686
6424.00000 6444.72205
6521.00000 6389.32824
6329.00000 6334.93538
6389.00000 6281.80309
6244.00000 6230.23497
6168.00000 6180.47735
6159.00000 6132.70090
6094.00000 6087.04558
6111.00000 6043.60308
6111.00000 6002.42216
5893.00000 5963.51003
5772.00000 5926.83252
5666.00000 5892.31235
5742.00000 5859.84366
5899.00000 5829.30791
5634.00000 5800.59943
5703.00000 5773.55531
5705.00000 5748.02879
5670.00000 5723.90255
5711.00000 5701.07008
5678.00000 5679.43605
5546.00000 5658.94425
5645.00000 5639.56357
5556.00000 5621.28494
5655.00000 5604.11865
5645.00000 5588.09592
5447.00000 5573.26699
5460.00000 5559.68059
5432.00000 5547.39781
5407.00000 5536.47648
5482.00000 5526.98671
5445.00000 5518.97351
5371.00000 5512.50279
5512.00000 5507.63842
5324.00000 5504.40304
5459.00000 5502.83384
5364.00000 5502.94979
5413.00000 5504.76021
5414.00000 5508.24994
5391.00000 5513.39135
5560.00000 5520.13086
5458.00000 5528.38484
5521.00000 5538.05356
5420.00000 5549.02092
5522.00000 5561.14457
5482.00000 5574.24057
5592.00000 5588.15969
5574.00000 5602.67770
5558.00000 5617.71340
5536.00000 5633.00887
5536.00000 5648.36997
5819.00000 5663.63011
5581.00000 5678.64033
5797.00000 5693.29054
5600.00000 5707.48263
5633.00000 5721.14380
5749.00000 5734.22471
5686.00000 5746.69313
5616.00000 5758.56007
5716.00000 5769.91042
5616.00000 5780.72532
5923.00000 5791.00531
5800.00000 5800.74063
5647.00000 5809.91362
5843.00000 5818.54069
5764.00000 5826.58633
5798.00000 5834.03387
5907.00000 5840.87690
5902.00000 5847.15786
5809.00000 5852.89030
5800.00000 5858.14558
5939.00000 5862.99822
5917.00000 5867.56564
5843.00000 5871.97961
5840.00000 5876.38294
5835.00000 5880.91815
5938.00000 5885.71294
5882.00000 5890.84365
6042.00000 5896.40500
5982.00000 5902.46437
6066.00000 5908.98866
6026.00000 5915.88297
5970.00000 5923.01031
5947.00000 5930.18769
5935.00000 5937.19852
6017.00000 5943.77726
6047.00000 5949.63928
5948.00000 5954.51230
5891.00000 5958.14850
5969.00000 5960.32156
6091.00000 5960.88351
6023.00000 5959.71674
5861.00000 5956.79418
5933.00000 5952.13881
5751.00000 5945.84555
5860.00000 5938.06264
5954.00000 5928.91186
6000.00000 5918.75650
5811.00000 5907.86033
5799.00000 5896.52165
5755.00000 5884.99040
5816.00000 5873.50957
5697.00000 5862.28023
5736.00000 5851.44125
5566.00000 5841.21943
5659.00000 5831.64422
5596.00000 5822.76717
5632.00000 5814.57115
5637.00000 5806.98068
5854.00000 5799.88858
5534.00000 5793.14873
5649.00000 5786.62651
5514.00000 5780.15062
5526.00000 5773.52728
5605.00000 5766.58703
5455.00000 5759.16613
5340.00000 5751.11943
5410.00000 5742.32963
5615.00000 5732.70354
5326.00000 5722.19145
5357.00000 5710.76665
5515.00000 5698.42009
5366.00000 5685.32603
5410.00000 5671.49068
5370.00000 5657.00295
5409.00000 5641.96876
5349.00000 5626.50674
5331.00000 5610.70843
5263.00000 5594.77994
5321.00000 5578.80053
5334.00000 5562.89663
5308.00000 5547.15510
5151.00000 5531.66556
5302.00000 5516.50512
5202.00000 5501.72861
5393.00000 5487.39522
5246.00000 5473.53715
5153.00000 5460.17780
5118.00000 5447.32169
5103.00000 5434.96635
5249.00000 5423.10072
5082.00000 5411.70671
5095.00000 5400.75858
5212.00000 5390.23047
5305.00000 5380.10981
5063.00000 5370.38893
5157.00000 5361.05157
5201.00000 5352.08801
5209.00000 5343.49891
5138.00000 5335.27869
5203.00000 5327.42140
5313.00000 5319.94333
5125.00000 5312.85781
5259.00000 5306.16054
5178.00000 5299.84267
5113.00000 5293.87974
5214.00000 5288.24296
5167.00000 5282.88241
5174.00000 5277.75314
5168.00000 5272.77274
5138.00000 5267.90304
5214.00000 5263.04963
5308.00000 5258.10596
5255.00000 5252.99504
5228.00000 5247.57128
5401.00000 5241.80833
5404.00000 5235.58286
5246.00000 5228.81283
5334.00000 5221.43067
5202.00000 5213.38169
5247.00000 5204.63579
5301.00000 5195.20101
5436.00000 5185.05373
5389.00000 5174.25690
5388.00000 5162.87582
5425.00000 5150.99200
5367.00000 5138.71142
5234.00000 5126.13554
5302.00000 5113.37776
5281.00000 5100.55403
5102.00000 5087.80227
5348.00000 5075.24872
5265.00000 5063.01263
5344.00000 5051.20344
5451.00000 5039.91912
5185.00000 5029.24831
5372.00000 5019.28289
5363.00000 5010.07852
5206.00000 5001.68402
5217.00000 4994.13806
5251.00000 4987.45029
5161.00000 4981.67641
5221.00000 4976.79077
5282.00000 4972.77815
5229.00000 4969.60894
5426.00000 4967.25010
5276.00000 4965.66065
5193.00000 4964.78522
5303.00000 4964.55696
5267.00000 4964.90273
5108.00000 4965.74258
5184.00000 4966.99945
5180.00000 4968.57820
5237.00000 4970.38332
5210.00000 4972.31794
5140.00000 4974.28692
5273.00000 4976.21637
5245.00000 4978.01372
5140.00000 4979.60478
5236.00000 4980.92987
5337.00000 4981.95676
5229.00000 4982.62981
5179.00000 4982.98143
5168.00000 4982.99490
5134.00000 4982.68768
5261.00000 4982.08933
5247.00000 4981.24498
5145.00000 4980.21154
5072.00000 4979.04176
5125.00000 4977.78751
5077.00000 4976.50468
5210.00000 4975.24518
5204.00000 4974.11113
5107.00000 4973.10754
5093.00000 4972.26407
5175.00000 4971.61924
5194.00000 4971.20153
5225.00000 4971.02972
5115.00000 4971.11817
5145.00000 4971.46886
5201.00000 4972.08314
4945.00000 4972.96216
5158.00000 4974.15281
5010.00000 4975.64676
5135.00000 4977.44987
5072.00000 4979.57499
5117.00000 4982.04256
5082.00000 4984.87139
5094.00000 4988.09264
5135.00000 4991.70203
5077.00000 4995.70310
5146.00000 5000.09530
5100.00000 5004.93973
5173.00000 5010.24104
4964.00000 5015.96242
5059.00000 5022.09089
5068.00000 5028.60458
5048.00000 5035.46504
5095.00000 5042.65928
5190.00000 5050.13304
5140.00000 5057.81799
5105.00000 5065.65057
4997.00000 5073.53594
5148.00000 5081.45587
5227.00000 5089.32640
5110.00000 5097.07055
5137.00000 5104.62598
5029.00000 5111.93957
5065.00000 5118.93714
5038.00000 5125.62693
5135.00000 5132.00226
5112.00000 5138.03216
5120.00000 5143.73003
5148.00000 5149.10645
5318.00000 5154.17832
5050.00000 5158.97468
5232.00000 5163.51347
5316.00000 5167.81339
5009.00000 5171.90160
5090.00000 5175.79160
5164.00000 5179.47725
5197.00000 5182.97170
5088.00000 5186.25137
5087.00000 5189.27663
5164.00000 5191.99808
5002.00000 5194.33909
5185.00000 5196.19208
5139.00000 5197.43970
5095.00000 5198.00880
5212.00000 5197.75847
5133.00000 5196.56792
5283.00000 5194.30052
5170.00000 5190.87947
5069.00000 5186.22620
5109.00000 5180.30821
5077.00000 5173.06414
5156.00000 5164.48098
5105.00000 5154.57357
4977.00000 5143.36821
5141.00000 5130.93919
5110.00000 5117.38172
5034.00000 5102.78759
5033.00000 5087.26750
4910.00000 5070.92373
4878.00000 5053.88903
5013.00000 5036.36524
4934.00000 5018.46665
4944.00000 5000.34505
4870.00000 4982.13525
5118.00000 4963.95961
4979.00000 4945.93773
4845.00000 4928.20673
4954.00000 4910.87682
4857.00000 4894.08658
4793.00000 4877.89610
4759.00000 4862.45191
4797.00000 4847.79779
4819.00000 4834.00359
4707.00000 4821.11089
4737.00000 4809.14418
4800.00000 4798.11971
4842.00000 4787.99779
4762.00000 4778.79911
4735.00000 4770.45527
4717.00000 4762.89558
4733.00000 4756.06452
4674.00000 4749.86684
4713.00000 4744.21630
4625.00000 4739.01895
4616.00000 4734.18036
4612.00000 4729.61430
4660.00000 4725.23347
4561.00000 4720.96389
4620.00000 4716.74025
4600.00000 4712.48242
4617.00000 4708.15103
4532.00000 4703.70101
4579.00000 4699.09127
4519.00000 4694.24580
4507.00000 4689.14396
4641.00000 4683.71311
4624.00000 4677.93464
4606.00000 4671.85332
4496.00000 4665.42735
4431.00000 4658.63826
4511.00000 4651.47023
4447.00000 4643.94414
4532.00000 4636.07092
4537.00000 4627.86196
4641.00000 4619.34599
4363.00000 4610.51323
4489.00000 4601.45515
4446.00000 4592.17870
4464.00000 4582.71349
4440.00000 4573.09285
4446.00000 4563.32655
4428.00000 4553.45817
4332.00000 4543.50772
4386.00000 4533.49056
4394.00000 4523.41869
4447.00000 4513.32248
4446.00000 4503.21871
4472.00000 4493.11733
4543.00000 4483.04555
4420.00000 4473.03762
4603.00000 4463.11964
4353.00000 4453.32440
4514.00000 4443.70522
4483.00000 4434.29149
4474.00000 4425.10782
4378.00000 4416.20461
4453.00000 4407.60424
4440.00000 4399.38995
4256.00000 4391.58886
4418.00000 4384.22980
4414.00000 4377.33863
4382.00000 4370.93744
4329.00000 4365.13011
4305.00000 4359.94622
4356.00000 4355.40319
4381.00000 4351.53324
4385.00000 4348.39878
4380.00000 4345.96631
4430.00000 4344.33550
4517.00000 4343.48000
4407.00000 4343.40407
4418.00000 4344.10283
4443.00000 4345.55495
4362.00000 4347.73638
4486.00000 4350.61230
4228.00000 4354.14019
4407.00000 4358.27422
4493.00000 4362.95491
4432.00000 4368.12951
4412.00000 4373.72921
4401.00000 4379.69419
4535.00000 4385.96086
4355.00000 4392.46980
4496.00000 4399.16800
4535.00000 4406.00361
4434.00000 4412.91075
4448.00000 4419.88960
4485.00000 4426.89636
4508.00000 4434.03288
4484.00000 4441.23650
4590.00000 4448.52154
4470.00000 4455.91440
4561.00000 4463.44248
4512.00000 4471.18061
4560.00000 4479.16817
4550.00000 4487.44728
4597.00000 4496.05973
4556.00000 4505.11077
4531.00000 4514.65515
4715.00000 4524.70938
4668.00000 4535.31683
4732.00000 4546.51340
4621.00000 4558.33348
4664.00000 4570.81083
4776.00000 4583.93351
4707.00000 4597.69210
4790.00000 4612.06996
4773.00000 4627.03724
4726.00000 4642.55407
4757.00000 4658.55738
4767.00000 4674.97234
4737.00000 4691.70774
4946.00000 4708.66959
4889.00000 4725.76811
4894.00000 4742.88006
4819.00000 4759.87845
4907.00000 4776.63675
4953.00000 4793.11986
4953.00000 4809.27088
4853.00000 4824.97777
4991.00000 4840.16151
4956.00000 4854.76848
5027.00000 4868.77451
5080.00000 4882.23417
5157.00000 4895.09018
5107.00000 4907.34113
5114.00000 4918.98202
5011.00000 4930.01381
5077.00000 4940.41518
5086.00000 4950.15004
5160.00000 4959.16013
5015.00000 4967.38333
5164.00000 4974.74812
5145.00000 4981.15801
5040.00000 4986.45176
5132.00000 4990.56707
4931.00000 4993.42172
5159.00000 4994.92861
5012.00000 4995.00020
4978.00000 4993.55545
4981.00000 4990.52653
5008.00000 4985.86498
5015.00000 4979.53682
4882.00000 4971.52191
4894.00000 4961.79186
4921.00000 4950.33978
4832.00000 4937.23473
4799.00000 4922.53306
4863.00000 4906.28115
4847.00000 4888.57764
4840.00000 4869.47403
4962.00000 4849.11774
4773.00000 4827.61287
4720.00000 4805.08213
4798.00000 4781.65671
4760.00000 4757.44498
4684.00000 4732.59345
4716.00000 4707.27126
4721.00000 4681.58017
4448.00000 4655.76046
4590.00000 4629.88521
4530.00000 4604.08454
4405.00000 4578.49978
4594.00000 4553.23581
4477.00000 4528.41340
4352.00000 4504.12293
4354.00000 4480.40584
4475.00000 4457.33885
4358.00000 4434.96269
4370.00000 4413.29175
4233.00000 4392.33771
4280.00000 4372.10459
4228.00000 4352.58359
4185.00000 4333.75923
4388.00000 4315.60907
4219.00000 4298.10531
4350.00000 4281.21346
4214.00000 4264.93703
4258.00000 4249.22459
4234.00000 4234.14821
4277.00000 4219.63218
4269.00000 4205.65684
4057.00000 4192.20000
4222.00000 4179.24091
4256.00000 4166.74901
4116.00000 4154.67844
4275.00000 4142.99339
4097.00000 4131.68674
4112.00000 4120.71115
4050.00000 4110.03009
4090.00000 4099.57620
4022.00000 4089.29936
4120.00000 4079.17039
3990.00000 4069.14654
4041.00000 4059.18210
3985.00000 4049.23909
4005.00000 4039.28460
3924.00000 4029.29628
3884.00000 4019.26081
3931.00000 4009.15927
3908.00000 3998.99519
3939.00000 3988.74563
3788.00000 3978.42090
4021.00000 3968.03054
3885.00000 3957.57899
3980.00000 3947.08502
3871.00000 3936.55570
3918.00000 3926.00540
3932.00000 3915.44789
3937.00000 3904.89364
3900.00000 3894.35618
3811.00000 3883.84619
3814.00000 3873.35946
3850.00000 3862.91488
3933.00000 3852.51889
3732.00000 3842.17940
3639.00000 3831.89638
3832.00000 3821.66945
3732.00000 3811.49625
3693.00000 3801.38823
3686.00000 3791.35546
3785.00000 3781.39108
3777.00000 3771.51326
3596.00000 3761.72795
3780.00000 3752.05034
3749.00000 3742.50233
3737.00000 3733.09758
3683.00000 3723.87155
3665.00000 3714.84954
3660.00000 3706.05099
3705.00000 3697.51634
3813.00000 3689.26992
3689.00000 3681.33205
3656.00000 3673.72232
3562.00000 3666.45549
3648.00000 3659.53917
3707.00000 3652.97796
3664.00000 3646.76020
3605.00000 3640.87729
3624.00000 3635.30154
3676.00000 3630.05945
3709.00000 3625.09603
3670.00000 3620.38044
3640.00000 3615.88760
3642.00000 3611.59049
3493.00000 3607.46681
3639.00000 3603.49075
3606.00000 3599.63348
3670.00000 3595.87683
3603.00000 3592.19193
3621.00000 3588.63552
3617.00000 3585.16079
3561.00000 3581.75469
3603.00000 3578.40634
3642.00000 3575.16692
3516.00000 3572.03090
3595.00000 3568.99438
3656.00000 3566.06054
3680.00000 3563.23406
3599.00000 3560.52059
3541.00000 3557.92273
3607.00000 3555.43730
3598.00000 3553.05004
3580.00000 3550.74646
3514.00000 3548.57569
3577.00000 3546.48058
3618.00000 3544.44475
3658.00000 3542.43766
3693.00000 3540.42662
3572.00000 3538.38320
3580.00000 3536.26608
3694.00000 3534.02281
3611.00000 3531.59858
3675.00000 3528.93549
loop_
_refln_index_h
_refln_index_k
_refln_index_l
_refln_F_squared_calc
_refln_F_squared_meas
_refln_F_squared_sigma
_refln_observed_status
0 0 2 1.18 1.18 0.00 o
2 1 1 0.01 0.01 0.00 o
0 2 2 0.01 0.01 0.00 o
0 3 1 0.17 0.16 0.00 o
2 2 2 0.00 0.00 0.00 o
3 2 1 0.86 0.86 0.00 o
0 0 4 0.64 0.64 0.00 o
0 3 3 2.88 2.85 0.00 o
4 1 1 0.35 0.35 0.00 o
0 4 2 3.17 3.09 0.00 o
3 3 2 1.38 1.41 0.00 o
4 2 2 3.95 4.00 0.00 o
4 3 1 12.25 12.10 0.00 o
0 5 1 0.66 0.65 0.00 o
5 2 1 0.84 0.82 0.00 o
0 4 4 93.30 92.68 0.00 o
4 3 3 0.60 0.60 0.00 o
0 5 3 7.01 7.09 0.00 o
4 4 2 1.70 1.67 0.00 o
0 0 6 2.83 2.79 0.00 o
5 3 2 21.19 20.52 0.00 o
6 1 1 1.90 1.84 0.00 o
0 6 2 0.51 0.50 0.00 o
5 4 1 112.52 109.40 0.00 o
6 2 2 0.01 0.01 0.00 o
6 3 1 4.78 4.86 0.00 o
4 4 4 1.05 1.08 0.00 o
5 4 3 0.21 0.20 0.00 o
0 5 5 104.38 103.27 0.00 o
0 7 1 8.37 8.29 0.00 o
0 6 4 1.26 1.24 0.00 o
6 3 3 8.99 8.64 0.00 o
5 5 2 0.50 0.48 0.00 o
7 2 1 0.95 0.91 0.00 o
6 4 2 37.79 36.60 0.00 o
0 7 3 5.34 5.41 0.00 o
6 5 1 26.52 26.80 0.00 o
7 3 2 0.03 0.03 0.00 o
0 0 8 65.04 65.95 0.00 o
5 5 4 3.42 3.53 0.00 o
7 4 1 1.52 1.57 0.00 o
8 1 1 0.02 0.02 0.00 o
6 4 4 0.42 0.44 0.00 o
0 8 2 11.59 12.23 0.00 o
6 5 3 0.59 0.63 0.00 o
0 6 6 3.55 3.59 0.00 o
8 2 2 1.30 1.32 0.00 o
7 4 3 47.17 46.83 0.00 o
8 3 1 0.42 0.42 0.00 o
0 7 5 0.22 0.22 0.00 o
6 6 2 4.12 4.06 0.00 o
7 5 2 19.54 19.79 0.00 o
0 8 4 0.45 0.45 0.00 o
8 3 3 0.78 0.78 0.00 o
0 9 1 103.22 103.49 0.00 o
8 4 2 5.38 5.37 0.00 o
6 5 5 0.20 0.20 0.00 o
7 6 1 1.26 1.28 0.00 o
9 2 1 0.05 0.05 0.00 o
6 6 4 3.51 3.54 0.00 o
7 5 4 1.37 1.39 0.00 o
8 5 1 0.24 0.24 0.00 o
0 9 3 0.03 0.03 0.00 o
7 6 3 5.20 5.05 0.00 o
9 3 2 0.25 0.24 0.00 o
8 4 4 164.75 164.99 0.00 o
8 5 3 18.64 19.06 0.00 o
9 4 1 2.47 2.53 0.00 o
0 7 7 2.88 2.94 0.00 o
0 8 6 0.45 0.46 0.00 o
0 0 10 112.18 113.32 0.00 o
7 7 2 0.11 0.11 0.00 o
10 1 1 2.99 3.00 0.00 o
8 6 2 0.48 0.47 0.00 o
0 10 2 26.48 26.14 0.00 o
9 4 3 2.88 2.84 0.00 o
0 9 5 0.02 0.02 0.00 o
6 6 6 0.53 0.52 0.00 o
10 2 2 9.83 9.70 0.00 o
7 6 5 3.26 3.30 0.00 o
9 5 2 0.50 0.51 0.00 o
10 3 1 6.53 6.60 0.00 o
7 7 4 1.37 1.39 0.00 o
8 5 5 40.59 41.23 0.00 o
8 7 1 5.36 5.44 0.00 o
8 6 4 10.73 10.75 0.00 o
0 10 4 0.92 0.92 0.00 o
10 3 3 0.53 0.52 0.00 o
9 6 1 2.12 2.08 0.00 o
10 4 2 1.55 1.52 0.00 o
8 7 3 2.71 2.69 0.00 o
9 5 4 73.42 72.93 0.00 o
0 11 1 25.08 24.91 0.00 o
9 6 3 3.99 3.89 0.00 o
10 5 1 0.94 0.92 0.00 o
11 2 1 1.41 1.38 0.00 o
0 8 8 1.80 1.78 0.00 o
0 9 7 3.20 3.22 0.00 o
0 11 3 9.20 9.26 0.00 o
10 4 4 67.66 67.97 0.00 o
8 8 2 1.16 1.16 0.00 o
7 7 6 1.11 1.11 0.00 o
10 5 3 10.14 10.08 0.00 o
9 7 2 1.64 1.63 0.00 o
11 3 2 1.03 1.03 0.00 o
8 6 6 0.05 0.04 0.00 o
0 10 6 2.35 2.34 0.00 o
8 7 5 0.18 0.19 0.00 o
11 4 1 0.26 0.27 0.00 o
10 6 2 1.70 1.75 0.00 o
9 6 5 0.89 0.92 0.00 o
8 8 4 12.53 12.91 0.00 o
0 0 12 3.03 3.13 0.00 o
9 7 4 0.06 0.06 0.00 o
11 4 3 12.68 12.99 0.00 o
9 8 1 20.63 21.14 0.00 o
0 11 5 1.00 1.02 0.00 o
12 1 1 2.66 2.73 0.00 o
0 12 2 9.35 9.50 0.00 o
10 5 5 168.46 171.20 0.00 o
11 5 2 9.24 9.39 0.00 o
10 7 1 15.02 15.26 0.00 o
10 6 4 31.68 31.84 0.00 o
12 2 2 4.71 4.74 0.00 o
9 8 3 2.14 2.09 0.00 o
12 3 1 5.78 5.65 0.00 o
10 7 3 4.74 4.57 0.00 o
11 6 1 0.12 0.12 0.00 o
0 12 4 31.03 30.10 0.00 o
8 7 7 1.23 1.21 0.00 o
11 5 4 2.24 2.20 0.00 o
0 9 9 1.51 1.49 0.00 o
12 3 3 3.16 3.11 0.00 o
8 8 6 0.01 0.01 0.00 o
0 10 8 6.67 6.55 0.00 o
12 4 2 41.25 40.50 0.00 o
9 7 6 9.89 9.65 0.00 o
11 6 3 0.59 0.57 0.00 o
9 9 2 1.39 1.35 0.00 o
10 8 2 7.79 7.66 0.00 o
9 8 5 0.10 0.10 0.00 o
0 11 7 1.43 1.43 0.00 o
12 5 1 3.45 3.46 0.00 o
0 13 1 0.21 0.21 0.00 o
10 6 6 10.52 10.61 0.00 o
10 7 5 0.00 0.00 0.00 o
11 7 2 0.07 0.07 0.00 o
13 2 1 0.01 0.01 0.00 o
12 4 4 0.81 0.80 0.00 o
9 9 4 0.41 0.41 0.00 o
12 5 3 1.33 1.31 0.00 o
0 13 3 18.76 18.47 0.00 o
10 8 4 0.00 0.00 0.00 o
0 12 6 13.00 12.88 0.00 o
11 6 5 48.29 48.27 0.00 o
10 9 1 4.16 4.16 0.00 o
13 3 2 91.70 91.66 0.00 o
12 6 2 7.25 7.26 0.00 o
11 7 4 2.57 2.58 0.00 o
11 8 1 12.55 12.59 0.00 o
13 4 1 375.94 377.10 0.00 o
10 9 3 1.24 1.27 0.00 o
8 8 8 0.03 0.03 0.00 o
9 8 7 0.41 0.41 0.00 o
12 5 5 0.01 0.01 0.00 o
11 8 3 0.23 0.23 0.00 o
13 4 3 21.06 21.51 0.00 o
12 7 1 13.27 13.55 0.00 o
0 13 5 613.56 626.61 0.00 o
12 6 4 4.16 4.26 0.00 o
0 0 14 4.58 4.70 0.00 o
9 9 6 0.20 0.21 0.00 o
10 7 7 9.14 9.26 0.00 o
13 5 2 1.82 1.84 0.00 o
14 1 1 0.04 0.04 0.00 o
10 8 6 0.94 0.94 0.00 o
0 10 10 2.12 2.12 0.00 o
0 14 2 1.41 1.42 0.00 o
12 7 3 4.44 4.46 0.00 o
0 11 9 4.56 4.58 0.00 o
10 10 2 9.53 9.64 0.00 o
14 2 2 19.26 19.48 0.00 o
10 9 5 6.12 6.22 0.00 o
11 7 6 10.95 11.14 0.00 o
11 9 2 9.57 9.73 0.00 o
13 6 1 90.20 91.77 0.00 o
14 3 1 96.55 98.23 0.00 o
0 12 8 0.27 0.28 0.00 o
11 8 5 0.01 0.01 0.00 o
13 5 4 16.80 17.13 0.00 o
12 8 2 4.92 4.95 0.00 o
0 14 4 573.54 576.55 0.00 o
13 6 3 0.05 0.05 0.00 o
14 3 3 3.56 3.53 0.00 o
12 6 6 14.60 14.35 0.00 o
10 10 4 21.24 20.87 0.00 o
14 4 2 0.03 0.03 0.00 o
12 7 5 23.57 23.39 0.00 o
11 9 4 16.24 16.12 0.00 o
0 13 7 7.97 7.91 0.00 o
11 10 1 0.11 0.11 0.00 o
13 7 2 48.86 50.31 0.00 o
14 5 1 265.14 273.03 0.00 o
12 8 4 10.49 10.99 0.00 o
9 9 8 0.00 0.00 0.00 o
12 9 1 2.10 2.20 0.00 o
0 15 1 0.31 0.33 0.00 o
10 8 8 0.48 0.49 0.00 o
14 4 4 2.84 2.93 0.00 o
10 9 7 7.94 8.00 0.00 o
13 6 5 2.09 2.10 0.00 o
11 10 3 1.18 1.19 0.00 o
14 5 3 0.00 0.00 0.00 o
15 2 1 12.97 13.07 0.00 o
0 14 6 3.14 3.11 0.00 o
11 8 7 1.53 1.50 0.00 o
12 9 3 17.82 17.44 0.00 o
13 7 4 5.04 4.93 0.00 o
13 8 1 1.60 1.56 0.00 o
0 15 3 1.06 1.03 0.00 o
10 10 6 1.03 1.00 0.00 o
14 6 2 54.91 53.64 0.00 o
11 9 6 0.65 0.64 0.00 o
15 3 2 0.08 0.07 0.00 o
12 7 7 0.16 0.15 0.00 o
13 8 3 86.10 84.81 0.00 o
0 11 11 0.02 0.02 0.00 o
15 4 1 8.35 8.23 0.00 o
12 8 6 0.25 0.24 0.00 o
0 12 10 1.25 1.23 0.00 o
11 10 5 0.96 0.93 0.00 o
14 5 5 3.34 3.26 0.00 o
11 11 2 5.81 5.66 0.00 o
14 7 1 0.19 0.19 0.00 o
12 10 2 0.82 0.80 0.00 o
14 6 4 0.39 0.38 0.00 o
12 9 5 0.44 0.43 0.00 o
0 13 9 1.00 0.98 0.00 o
15 4 3 0.15 0.15 0.00 o
0 15 5 6.77 6.63 0.00 o
13 7 6 14.23 14.25 0.00 o
13 9 2 14.08 14.11 0.00 o
14 7 3 54.50 54.60 0.00 o
15 5 2 27.19 27.24 0.00 o
0 0 16 1.10 1.13 0.00 o
11 11 4 55.51 57.65 0.00 o
13 8 5 40.36 41.92 0.00 o
16 1 1 0.02 0.02 0.00 o
12 10 4 86.35 88.99 0.00 o
0 14 8 2.82 2.91 0.00 o
0 16 2 4.06 4.19 0.00 o
10 9 9 2.91 2.94 0.00 o
15 6 1 0.52 0.53 0.00 o
10 10 8 3.43 3.39 0.00 o
14 8 2 0.04 0.04 0.00 o
16 2 2 0.73 0.72 0.00 o
11 9 8 1.63 1.59 0.00 o
13 9 4 162.11 157.87 0.00 o
12 11 1 1.97 1.92 0.00 o
15 5 4 2.35 2.29 0.00 o
16 3 1 4.15 4.04 0.00 o
14 6 6 1.11 1.09 0.00 o
11 10 7 1.17 1.16 0.00 o
14 7 5 1.24 1.23 0.00 o
15 6 3 0.32 0.32 0.00 o
13 10 1 0.00 0.00 0.00 o
12 8 8 3.59 3.58 0.00 o
0 16 4 0.08 0.08 0.00 o
12 9 7 1.59 1.60 0.00 o
12 11 3 0.90 0.90 0.00 o
0 15 7 0.22 0.22 0.00 o
16 3 3 5.69 5.71 0.00 o
14 8 4 251.80 252.58 0.00 o
16 4 2 12.85 12.88 0.00 o
11 11 6 8.10 8.10 0.00 o
13 10 3 3.76 3.76 0.00 o
15 7 2 0.13 0.13 0.00 o
14 9 1 4.46 4.46 0.00 o
12 10 6 12.73 12.68 0.00 o
13 8 7 0.61 0.61 0.00 o
16 5 1 0.04 0.04 0.00 o
13 9 6 0.01 0.01 0.00 o
15 6 5 0.16 0.16 0.00 o
14 9 3 0.37 0.37 0.00 o
0 12 12 0.87 0.89 0.00 o
16 4 4 0.01 0.01 0.00 o
12 11 5 72.66 73.41 0.00 o
15 7 4 20.29 20.50 0.00 o
0 13 11 4.69 4.74 0.00 o
16 5 3 22.23 22.46 0.00 o
15 8 1 0.00 0.00 0.00 o
0 17 1 5.33 5.39 0.00 o
12 12 2 2.55 2.57 0.00 o
0 16 6 2.42 2.44 0.00 o
13 10 5 321.06 321.94 0.00 o
14 7 7 17.58 17.63 0.00 o
13 11 2 5.91 5.93 0.00 o
17 2 1 0.47 0.47 0.00 o
14 8 6 19.37 19.31 0.00 o
0 14 10 1.71 1.71 0.00 o
16 6 2 0.21 0.21 0.00 o
15 8 3 0.15 0.15 0.00 o
0 17 3 1.87 1.85 0.00 o
10 10 10 3.00 2.95 0.00 o
14 10 2 1.04 1.02 0.00 o
11 10 9 4.14 4.06 0.00 o
14 9 5 57.28 56.18 0.00 o
17 3 2 1.26 1.24 0.00 o
12 12 4 1.73 1.69 0.00 o
11 11 8 7.70 7.56 0.00 o
12 9 9 3.29 3.23 0.00 o
13 11 4 6.93 6.81 0.00 o
16 5 5 0.67 0.66 0.00 o
0 15 9 0.62 0.61 0.00 o
16 7 1 0.30 0.29 0.00 o
17 4 1 0.16 0.15 0.00 o
12 10 8 1.45 1.45 0.00 o
16 6 4 21.02 20.96 0.00 o
15 7 6 3.51 3.58 0.00 o
15 9 2 2.83 2.89 0.00 o
14 10 4 10.91 11.30 0.00 o
13 9 8 0.52 0.54 0.00 o
12 11 7 4.13 4.27 0.00 o
15 8 5 12.94 13.39 0.00 o
16 7 3 1.51 1.56 0.00 o
13 12 1 4.60 4.75 0.00 o
17 4 3 2.17 2.25 0.00 o
0 17 5 0.04 0.04 0.00 o
13 10 7 1.33 1.33 0.00 o
14 11 1 13.49 13.48 0.00 o
17 5 2 0.02 0.02 0.00 o
0 16 8 4.59 4.55 0.00 o
15 9 4 54.23 53.96 0.00 o
13 12 3 6.90 6.86 0.00 o
12 12 6 1.64 1.65 0.00 o
14 8 8 6.68 6.72 0.00 o
16 8 2 1.92 1.93 0.00 o
0 0 18 2.86 2.88 0.00 o
13 11 6 22.31 22.59 0.00 o
14 9 7 15.91 16.11 0.00 o
14 11 3 16.43 16.63 0.00 o
15 10 1 10.48 10.61 0.00 o
17 6 1 2.96 3.00 0.00 o
18 1 1 3.99 4.03 0.00 o
16 6 6 4.61 4.66 0.00 o
0 18 2 13.55 13.69 0.00 o
16 7 5 9.59 9.62 0.00 o
17 5 4 15.14 15.20 0.00 o
14 10 6 7.25 7.22 0.00 o
18 2 2 5.01 4.99 0.00 o
15 10 3 4.05 4.00 0.00 o
17 6 3 4.89 4.82 0.00 o
18 3 1 0.05 0.04 0.00 o
16 8 4 0.18 0.17 0.00 o
13 12 5 1.05 1.02 0.00 o
15 8 7 0.78 0.76 0.00 o
0 13 13 0.08 0.08 0.00 o
16 9 1 0.13 0.13 0.00 o
0 17 7 6.25 6.07 0.00 o
0 14 12 0.20 0.19 0.00 o
0 18 4 17.91 17.32 0.00 o
11 11 10 0.50 0.48 0.00 o
14 11 5 1.74 1.69 0.00 o
15 9 6 11.88 11.52 0.00 o
13 13 2 1.18 1.14 0.00 o
17 7 2 0.43 0.42 0.00 o
18 3 3 1.03 1.00 0.00 o
12 10 10 0.00 0.00 0.00 o
14 12 2 1.89 1.85 0.00 o
18 4 2 0.15 0.15 0.00 o
12 11 9 3.13 3.09 0.00 o
16 9 3 2.98 2.94 0.00 o
0 15 11 5.06 4.99 0.00 o
13 10 9 0.24 0.24 0.00 o
15 10 5 2.74 2.74 0.00 o
15 11 2 0.24 0.24 0.00 o
17 6 5 0.81 0.81 0.00 o
18 5 1 0.26 0.26 0.00 o
12 12 8 0.00 0.00 0.00 o
13 11 8 5.67 5.66 0.00 o
13 13 4 3.81 3.80 0.00 o
16 7 7 0.79 0.79 0.00 o
17 7 4 1.07 1.06 0.00 o
17 8 1 1.74 1.73 0.00 o
14 12 4 1.33 1.32 0.00 o
16 8 6 1.03 1.02 0.00 o
18 4 4 1.89 1.88 0.00 o
0 16 10 2.23 2.22 0.00 o
14 9 9 42.83 42.36 0.00 o
18 5 3 6.38 6.31 0.00 o
14 10 8 3.40 3.36 0.00 o
16 10 2 2.77 2.74 0.00 o
0 18 6 0.18 0.18 0.00 o
13 12 7 25.18 25.01 0.00 o
15 11 4 5.90 5.86 0.00 o
16 9 5 2.64 2.62 0.00 o
17 8 3 0.35 0.35 0.00 o
0 19 1 5.19 5.16 0.00 o
18 6 2 0.07 0.07 0.00 o
14 11 7 1.16 1.15 0.00 o
14 13 1 3.27 3.25 0.00 o
19 2 1 1.43 1.42 0.00 o
15 9 8 0.41 0.40 0.00 o
15 12 1 0.22 0.22 0.00 o
0 17 9 37.85 37.44 0.00 o
0 19 3 2.89 2.86 0.00 o
16 10 4 0.41 0.41 0.00 o
13 13 6 11.29 11.36 0.00 o
15 10 7 1.11 1.12 0.00 o
14 13 3 3.58 3.60 0.00 o
17 7 6 9.84 9.89 0.00 o
18 5 5 1.68 1.69 0.00 o
17 9 2 22.37 22.49 0.00 o
18 7 1 8.01 8.05 0.00 o
19 3 2 0.00 0.00 0.00 o
14 12 6 0.00 0.00 0.00 o
18 6 4 0.67 0.68 0.00 o
15 12 3 0.90 0.90 0.00 o
17 8 5 9.66 9.72 0.00 o
16 11 1 0.55 0.56 0.00 o
19 4 1 0.07 0.07 0.00 o
15 11 6 1.06 1.04 0.00 o
18 7 3 19.10 18.78 0.00 o
16 8 8 7.05 6.88 0.00 o
12 11 11 10.70 10.42 0.00 o
16 9 7 1.87 1.82 0.00 o
16 11 3 0.00 0.00 0.00 o
17 9 4 4.75 4.63 0.00 o
19 4 3 0.57 0.56 0.00 o
0 19 5 0.05 0.05 0.00 o
12 12 10 0.17 0.16 0.00 o
0 18 8 26.51 25.98 0.00 o
13 11 10 0.09 0.09 0.00 o
14 13 5 8.17 8.10 0.00 o
17 10 1 1.28 1.27 0.00 o
19 5 2 1.41 1.39 0.00 o
16 10 6 0.31 0.31 0.00 o
18 8 2 8.45 8.46 0.00 o
0 14 14 3.54 3.54 0.00 o
13 12 9 4.78 4.80 0.00 o
15 12 5 1.52 1.52 0.00 o
0 15 13 2.42 2.43 0.00 o
14 10 10 8.95 8.94 0.00 o
18 6 6 2.91 2.91 0.00 o
14 14 2 0.05 0.05 0.00 o
14 11 9 0.92 0.91 0.00 o
18 7 5 0.35 0.35 0.00 o
15 13 2 0.03 0.03 0.00 o
17 10 3 0.18 0.18 0.00 o
19 6 1 0.57 0.57 0.00 o
0 16 12 5.04 4.96 0.00 o
0 0 20 38.40 37.78 0.00 o
13 13 8 46.59 45.78 0.00 o
16 11 5 9.71 9.54 0.00 o
17 8 7 0.21 0.21 0.00 o
19 5 4 4.64 4.56 0.00 o
20 1 1 10.48 10.30 0.00 o
14 12 8 5.28 5.21 0.00 o
18 8 4 0.25 0.25 0.00 o
16 12 2 0.14 0.14 0.00 o
0 20 2 7.87 7.77 0.00 o
15 10 9 0.32 0.32 0.00 o
17 9 6 0.00 0.00 0.00 o
18 9 1 6.15 6.10 0.00 o
19 6 3 21.70 21.54 0.00 o
14 14 4 1.20 1.20 0.00 o
20 2 2 0.62 0.62 0.00 o
15 11 8 0.18 0.18 0.00 o
15 13 4 1.26 1.26 0.00 o
0 17 11 0.01 0.01 0.00 o
0 19 7 1.95 1.95 0.00 o
20 3 1 6.60 6.58 0.00 o
14 13 7 2.58 2.56 0.00 o
17 10 5 6.12 6.08 0.00 o
18 9 3 1.24 1.23 0.00 o
17 11 2 1.25 1.24 0.00 o
19 7 2 4.99 4.95 0.00 o
16 12 4 3.23 3.20 0.00 o
0 20 4 10.91 10.83 0.00 o
16 9 9 0.24 0.23 0.00 o
15 12 7 0.65 0.65 0.00 o
20 3 3 5.59 5.56 0.00 o
16 10 8 0.56 0.56 0.00 o
20 4 2 17.57 17.54 0.00 o
18 7 7 12.17 12.17 0.00 o
15 14 1 0.11 0.11 0.00 o
19 6 5 0.16 0.16 0.00 o
18 8 6 0.11 0.11 0.00 o
0 18 10 17.55 17.52 0.00 o
16 11 7 0.08 0.08 0.00 o
17 11 4 0.55 0.54 0.00 o
16 13 1 0.02 0.02 0.00 o
19 7 4 4.15 4.12 0.00 o
19 8 1 1.10 1.10 0.00 o
20 5 1 0.12 0.12 0.00 o
14 14 6 0.80 0.79 0.00 o
18 10 2 14.65 14.48 0.00 o
15 13 6 0.35 0.35 0.00 o
15 14 3 1.28 1.26 0.00 o
18 9 5 20.17 19.86 0.00 o
12 12 12 0.30 0.29 0.00 o
20 4 4 0.72 0.71 0.00 o
13 12 11 11.75 11.54 0.00 o
17 9 8 3.23 3.18 0.00 o
16 13 3 0.30 0.30 0.00 o
19 8 3 0.25 0.24 0.00 o
17 12 1 1.33 1.31 0.00 o
20 5 3 9.14 8.98 0.00 o
16 12 6 0.01 0.01 0.00 o
0 20 6 0.00 0.00 0.00 o
13 13 10 29.61 29.21 0.00 o
14 11 11 3.18 3.14 0.00 o
17 10 7 0.74 0.73 0.00 o
14 12 10 0.98 0.97 0.00 o
18 10 4 7.51 7.43 0.00 o
20 6 2 0.00 0.00 0.00 o
17 12 3 2.79 2.77 0.00 o
0 19 9 3.96 3.93 0.00 o
0 21 1 2.80 2.78 0.00 o
14 13 9 25.64 25.31 0.00 o
15 11 10 4.01 3.96 0.00 o
15 14 5 3.76 3.72 0.00 o
17 11 6 6.24 6.16 0.00 o
19 7 6 0.18 0.18 0.00 o
18 11 1 8.02 7.92 0.00 o
19 9 2 2.43 2.40 0.00 o
21 2 1 24.15 23.85 0.00 o
15 12 9 6.89 6.78 0.00 o
16 13 5 0.05 0.04 0.00 o
19 8 5 0.31 0.31 0.00 o
20 5 5 14.31 14.07 0.00 o
0 15 15 11.47 11.28 0.00 o
20 7 1 0.03 0.03 0.00 o
0 21 3 3.52 3.47 0.00 o
18 8 8 1.27 1.25 0.00 o
20 6 4 0.10 0.10 0.00 o
0 16 14 0.11 0.11 0.00 o
18 9 7 21.04 20.73 0.00 o
18 11 3 8.21 8.09 0.00 o
15 15 2 0.15 0.15 0.00 o
21 3 2 0.23 0.23 0.00 o
14 14 8 20.81 20.54 0.00 o
16 10 10 17.26 17.03 0.00 o
16 14 2 1.73 1.71 0.00 o
15 13 8 7.74 7.66 0.00 o
16 11 9 0.12 0.12 0.00 o
17 12 5 4.03 3.99 0.00 o
19 9 4 2.19 2.17 0.00 o
20 7 3 1.04 1.03 0.00 o
0 17 13 0.36 0.36 0.00 o
21 4 1 0.24 0.24 0.00 o
18 10 6 9.34 9.29 0.00 o
19 10 1 3.28 3.28 0.00 o
17 13 2 1.38 1.38 0.00 o
16 12 8 0.13 0.13 0.00 o
0 20 8 2.05 2.07 0.00 o
15 15 4 1.22 1.23 0.00 o
21 4 3 1.73 1.75 0.00 o
0 21 5 22.98 23.26 0.00 o
16 14 4 0.21 0.22 0.00 o
20 8 2 0.01 0.01 0.00 o
0 18 12 0.23 0.24 0.00 o
17 10 9 0.03 0.03 0.00 o
15 14 7 12.45 12.69 0.00 o
18 11 5 0.61 0.62 0.00 o
19 10 3 0.05 0.05 0.00 o
21 5 2 1.44 1.47 0.00 o
18 12 2 3.98 4.06 0.00 o
20 6 6 0.50 0.51 0.00 o
17 11 8 1.68 1.71 0.00 o
16 13 7 5.10 5.20 0.00 o
17 13 4 17.25 17.59 0.00 o
19 8 7 3.24 3.31 0.00 o
20 7 5 0.10 0.10 0.00 o
19 9 6 3.30 3.37 0.00 o
21 6 1 7.11 7.27 0.00 o
20 8 4 1.32 1.35 0.00 o
13 13 12 2.17 2.23 0.00 o
17 12 7 1.85 1.90 0.00 o
16 15 1 2.53 2.59 0.00 o
20 9 1 3.35 3.43 0.00 o
21 5 4 2.31 2.36 0.00 o
0 19 11 5.47 5.61 0.00 o
14 12 12 0.12 0.13 0.00 o
18 12 4 5.99 6.12 0.00 o
0 0 22 0.17 0.17 0.00 o
14 13 11 1.97 2.01 0.00 o
15 15 6 4.97 5.07 0.00 o
18 9 9 88.48 90.19 0.00 o
19 10 5 4.92 5.01 0.00 o
17 14 1 0.63 0.64 0.00 o
19 11 2 0.46 0.47 0.00 o
21 6 3 41.44 42.24 0.00 o
22 1 1 0.00 0.00 0.00 o
18 10 8 1.01 1.02 0.00 o
16 14 6 3.60 3.65 0.00 o
0 22 2 8.07 8.19 0.00 o
15 12 11 3.72 3.77 0.00 o
16 15 3 2.15 2.17 0.00 o
20 9 3 3.75 3.79 0.00 o
0 21 7 3.49 3.53 0.00 o
14 14 10 44.07 44.49 0.00 o
22 2 2 15.70 15.85 0.00 o
15 13 10 13.51 13.64 0.00 o
17 13 6 0.89 0.90 0.00 o
18 11 7 3.57 3.61 0.00 o
18 13 1 6.24 6.29 0.00 o
17 14 3 0.52 0.53 0.00 o
21 7 2 0.03 0.03 0.00 o
22 3 1 35.25 35.58 0.00 o
16 11 11 3.95 3.99 0.00 o
19 11 4 0.63 0.63 0.00 o
20 7 7 0.04 0.04 0.00 o
16 12 10 1.12 1.13 0.00 o
20 8 6 0.90 0.91 0.00 o
0 20 10 0.10 0.10 0.00 o
0 22 4 0.72 0.73 0.00 o
15 14 9 2.47 2.49 0.00 o
18 13 3 10.40 10.47 0.00 o
21 6 5 0.21 0.21 0.00 o
22 3 3 0.52 0.52 0.00 o
18 12 6 2.55 2.56 0.00 o
20 10 2 16.02 16.07 0.00 o
22 4 2 6.61 6.63 0.00 o
16 13 9 1.25 1.25 0.00 o
19 9 8 1.69 1.69 0.00 o
16 15 5 22.70 22.75 0.00 o
20 9 5 11.56 11.58 0.00 o
19 12 1 0.37 0.37 0.00 o
21 7 4 4.84 4.85 0.00 o
21 8 1 6.85 6.86 0.00 o
17 11 10 2.03 2.05 0.00 o
19 10 7 10.16 10.26 0.00 o
17 14 5 87.49 88.29 0.00 o
22 5 1 12.08 12.19 0.00 o
0 16 16 7.13 7.25 0.00 o
15 15 8 3.33 3.41 0.00 o
17 12 9 3.26 3.35 0.00 o
19 12 3 1.20 1.24 0.00 o
21 8 3 1.69 1.73 0.00 o
0 17 15 0.38 0.39 0.00 o
16 14 8 1.10 1.14 0.00 o
20 10 4 1.35 1.40 0.00 o
16 16 2 9.22 9.54 0.00 o
22 4 4 8.38 8.67 0.00 o
18 13 5 22.25 23.18 0.00 o
19 11 6 9.90 10.31 0.00 o
17 15 2 0.41 0.43 0.00 o
22 5 3 0.14 0.15 0.00 o
0 18 14 0.69 0.72 0.00 o
0 22 6 9.98 10.43 0.00 o
17 13 8 11.91 12.44 0.00 o
20 11 1 0.45 0.47 0.00 o
0 21 9 1.22 1.28 0.00 o
18 10 10 0.05 0.05 0.00 o
18 14 2 1.52 1.58 0.00 o
22 6 2 20.49 21.34 0.00 o
18 11 9 9.37 9.71 0.00 o
21 7 6 1.69 1.75 0.00 o
21 9 2 0.95 0.98 0.00 o
20 8 8 0.35 0.36 0.00 o
16 16 4 0.00 0.00 0.00 o
16 15 7 0.76 0.78 0.00 o
17 15 4 47.68 48.98 0.00 o
19 12 5 0.63 0.65 0.00 o
20 9 7 0.78 0.80 0.00 o
21 8 5 15.52 15.95 0.00 o
20 11 3 8.86 9.10 0.00 o
0 19 13 1.16 1.19 0.00 o
0 23 1 0.33 0.34 0.00 o
18 12 8 4.24 4.34 0.00 o
14 13 13 0.03 0.03 0.00 o
17 14 7 0.20 0.20 0.00 o
19 13 2 0.06 0.06 0.00 o
22 5 5 0.99 1.01 0.00 o
22 7 1 0.00 0.00 0.00 o
23 2 1 1.92 1.96 0.00 o
14 14 12 0.19 0.19 0.00 o
18 14 4 108.54 110.80 0.00 o
20 10 6 8.54 8.72 0.00 o
22 6 4 1.91 1.95 0.00 o
15 13 12 0.05 0.05 0.00 o
21 9 4 4.09 4.18 0.00 o
0 23 3 101.55 103.73 0.00 o
15 14 11 4.75 4.88 0.00 o
19 10 9 0.00 0.00 0.00 o
18 13 7 0.06 0.06 0.00 o
22 7 3 6.99 7.19 0.00 o
21 10 1 0.08 0.09 0.00 o
23 3 2 10.05 10.33 0.00 o
16 12 12 0.20 0.20 0.00 o
0 20 12 11.17 11.50 0.00 o
16 13 11 9.77 10.06 0.00 o
19 11 8 11.35 11.70 0.00 o
19 13 4 17.15 17.66 0.00 o
20 11 5 9.60 9.89 0.00 o
17 16 1 0.88 0.91 0.00 o
23 4 1 2.64 2.72 0.00 o
16 16 6 1.21 1.25 0.00 o
20 12 2 1.56 1.60 0.00 o
0 22 8 0.15 0.15 0.00 o
15 15 10 4.60 4.71 0.00 o
17 15 6 0.03 0.03 0.00 o
21 10 3 2.46 2.52 0.00 o
18 15 1 0.03 0.04 0.00 o
16 14 10 0.80 0.82 0.00 o
22 8 2 4.83 4.92 0.00 o
17 12 11 3.96 4.01 0.00 o
19 12 7 0.91 0.92 0.00 o
17 16 3 16.43 16.67 0.00 o
21 8 7 0.57 0.58 0.00 o
23 4 3 3.14 3.18 0.00 o
0 23 5 0.24 0.25 0.00 o
18 14 6 1.58 1.60 0.00 o
22 6 6 0.13 0.13 0.00 o
17 13 10 2.21 2.22 0.00 o
18 15 3 10.88 10.92 0.00 o
21 9 6 0.00 0.00 0.00 o
19 14 1 4.29 4.31 0.00 o
22 7 5 0.31 0.31 0.00 o
23 5 2 1.33 1.33 0.00 o
20 12 4 1.62 1.61 0.00 o
16 15 9 0.10 0.10 0.00 o
20 9 9 6.23 6.15 0.00 o
0 21 11 1.94 1.92 0.00 o
20 10 8 0.17 0.17 0.00 o
22 8 4 57.77 56.69 0.00 o
18 11 11 4.33 4.23 0.00 o
17 14 9 6.11 5.96 0.00 o
19 13 6 5.12 5.00 0.00 o
21 10 5 0.29 0.28 0.00 o
19 14 3 1.22 1.19 0.00 o
21 11 2 32.52 31.76 0.00 o
22 9 1 0.17 0.16 0.00 o
23 6 1 33.87 33.09 0.00 o
18 12 10 1.24 1.21 0.00 o
17 16 5 1.11 1.08 0.00 o
20 11 7 0.12 0.12 0.00 o
20 13 1 0.34 0.33 0.00 o
23 5 4 1.92 1.88 0.00 o
18 13 9 1.73 1.69 0.00 o
18 15 5 0.02 0.02 0.00 o
22 9 3 2.10 2.05 0.00 o
23 6 3 0.32 0.31 0.00 o
16 16 8 0.32 0.31 0.00 o
0 0 24 14.65 14.28 0.00 o
17 15 8 2.28 2.22 0.00 o
21 11 4 0.23 0.22 0.00 o
20 13 3 0.88 0.85 0.00 o
0 17 17 29.43 28.68 0.00 o
0 23 7 17.67 17.22 0.00 o
24 1 1 0.02 0.02 0.00 o
20 12 6 2.37 2.31 0.00 o
0 18 16 0.40 0.39 0.00 o
0 24 2 8.31 8.11 0.00 o
19 11 10 5.19 5.08 0.00 o
19 14 5 1.42 1.39 0.00 o
17 17 2 10.64 10.40 0.00 o
22 7 7 3.29 3.22 0.00 o
23 7 2 23.59 23.06 0.00 o
18 14 8 2.73 2.68 0.00 o
18 16 2 0.92 0.90 0.00 o
22 8 6 2.67 2.62 0.00 o
0 22 10 0.89 0.88 0.00 o
24 2 2 2.29 2.25 0.00 o
19 12 9 4.51 4.45 0.00 o
21 9 8 0.19 0.19 0.00 o
21 12 1 2.55 2.51 0.00 o
0 19 15 1.25 1.23 0.00 o
24 3 1 0.98 0.97 0.00 o
14 14 14 2.20 2.17 0.00 o
22 10 2 0.15 0.15 0.00 o
15 14 13 0.75 0.74 0.00 o
21 10 7 0.60 0.59 0.00 o
22 9 5 4.36 4.31 0.00 o
19 15 2 0.22 0.21 0.00 o
23 6 5 7.20 7.11 0.00 o
0 24 4 59.47 58.85 0.00 o
15 15 12 1.61 1.59 0.00 o
16 13 13 1.05 1.04 0.00 o
19 13 8 5.39 5.34 0.00 o
17 16 7 2.08 2.06 0.00 o
20 13 5 0.00 0.00 0.00 o
21 12 3 12.63 12.51 0.00 o
17 17 4 5.38 5.33 0.00 o
23 7 4 5.87 5.81 0.00 o
23 8 1 0.04 0.04 0.00 o
24 3 3 0.88 0.87 0.00 o
16 14 12 7.27 7.21 0.00 o
18 16 4 1.48 1.47 0.00 o
0 20 14 0.64 0.64 0.00 o
24 4 2 1.15 1.14 0.00 o
18 15 7 0.09 0.09 0.00 o
21 11 6 1.22 1.21 0.00 o
20 10 10 0.37 0.37 0.00 o
22 10 4 3.08 3.05 0.00 o
20 14 2 2.74 2.72 0.00 o
16 15 11 0.08 0.08 0.00 o
17 13 12 19.62 19.40 0.00 o
20 11 9 1.63 1.61 0.00 o
19 15 4 1.32 1.30 0.00 o
23 8 3 9.92 9.81 0.00 o
24 5 1 22.13 21.88 0.00 o
17 14 11 5.39 5.28 0.00 o
19 14 7 2.24 2.19 0.00 o
22 11 1 0.43 0.42 0.00 o
20 12 8 1.95 1.91 0.00 o
24 4 4 0.06 0.06 0.00 o
21 12 5 0.15 0.15 0.00 o
0 21 13 12.51 12.15 0.00 o
24 5 3 0.02 0.02 0.00 o
0 23 9 28.86 28.02 0.00 o
18 12 12 1.73 1.68 0.00 o
16 16 10 6.50 6.30 0.00 o
22 8 8 1.97 1.91 0.00 o
20 14 4 6.03 5.84 0.00 o
0 24 6 4.96 4.81 0.00 o
17 15 10 0.57 0.56 0.00 o
18 13 11 2.23 2.16 0.00 o
17 17 6 1.84 1.79 0.00 o
22 9 7 0.05 0.05 0.00 o
22 11 3 0.12 0.12 0.00 o
18 17 1 23.09 22.40 0.00 o
21 13 2 2.45 2.38 0.00 o
23 7 6 10.32 10.01 0.00 o
23 9 2 3.38 3.28 0.00 o
18 16 6 4.19 4.08 0.00 o
24 6 2 0.42 0.41 0.00 o
20 13 7 1.58 1.55 0.00 o
19 16 1 0.33 0.33 0.00 o
23 8 5 25.51 24.94 0.00 o
18 14 10 5.43 5.33 0.00 o
22 10 6 1.94 1.91 0.00 o
21 10 9 0.45 0.45 0.00 o
19 15 6 2.28 2.24 0.00 o
18 17 3 0.73 0.72 0.00 o
17 16 9 5.18 5.08 0.00 o
19 12 11 2.34 2.29 0.00 o
21 11 8 0.03 0.03 0.00 o
21 13 4 10.41 10.21 0.00 o
19 16 3 3.37 3.30 0.00 o
20 15 1 8.24 8.08 0.00 o
23 9 4 1.36 1.33 0.00 o
24 5 5 0.42 0.41 0.00 o
24 7 1 2.46 2.41 0.00 o
0 25 1 33.14 32.48 0.00 o
24 6 4 1.16 1.13 0.00 o
0 22 12 15.20 14.85 0.00 o
18 15 9 5.39 5.25 0.00 o
19 13 10 5.80 5.65 0.00 o
22 11 5 0.20 0.19 0.00 o
23 10 1 14.22 13.86 0.00 o
25 2 1 1.12 1.09 0.00 o
20 14 6 3.62 3.53 0.00 o
22 12 2 0.01 0.01 0.00 o
21 12 7 0.25 0.25 0.00 o
20 15 3 0.24 0.24 0.00 o
24 7 3 7.76 7.56 0.00 o
0 25 3 21.40 20.85 0.00 o
19 14 9 0.01 0.01 0.00 o
18 17 5 2.01 1.98 0.00 o
23 10 3 0.38 0.38 0.00 o
21 14 1 44.80 43.95 0.00 o
25 3 2 1.95 1.91 0.00 o
0 24 8 1.61 1.58 0.00 o
20 11 11 2.11 2.09 0.00 o
17 17 8 1.94 1.92 0.00 o
19 16 5 2.30 2.28 0.00 o
23 8 7 3.42 3.39 0.00 o
25 4 1 0.85 0.84 0.00 o
18 16 8 1.50 1.49 0.00 o
20 12 10 1.12 1.11 0.00 o
22 12 4 0.45 0.45 0.00 o
24 8 2 2.44 2.42 0.00 o
15 15 14 0.06 0.06 0.00 o
21 13 6 2.33 2.32 0.00 o
22 9 9 4.35 4.32 0.00 o
21 14 3 0.10 0.10 0.00 o
23 9 6 3.11 3.09 0.00 o
16 14 14 1.34 1.33 0.00 o
22 10 8 0.49 0.48 0.00 o
0 18 18 813.91 807.49 0.00 o
24 6 6 0.85 0.84 0.00 o
16 15 13 44.77 44.41 0.00 o
19 15 8 1.97 1.95 0.00 o
20 13 9 2.20 2.18 0.00 o
20 15 5 1.73 1.72 0.00 o
24 7 5 5.11 5.07 0.00 o
0 19 17 2.30 2.29 0.00 o
0 23 11 3.00 2.98 0.00 o
25 4 3 4.26 4.23 0.00 o
0 25 5 0.97 0.96 0.00 o
18 18 2 0.41 0.41 0.00 o
17 14 13 82.48 81.95 0.00 o
22 11 7 16.82 16.71 0.00 o
23 10 5 51.62 51.29 0.00 o
19 17 2 0.60 0.60 0.00 o
23 11 2 5.59 5.56 0.00 o
22 13 1 1.76 1.75 0.00 o
25 5 2 3.46 3.44 0.00 o
16 16 12 0.47 0.47 0.00 o
24 8 4 5.20 5.18 0.00 o
0 20 16 3.99 3.97 0.00 o
17 15 12 3.52 3.51 0.00 o
24 9 1 0.53 0.53 0.00 o
20 14 8 6.46 6.45 0.00 o
20 16 2 4.57 4.57 0.00 o
18 13 13 119.54 119.68 0.00 o
21 11 10 2.08 2.08 0.00 o
18 17 7 2.41 2.41 0.00 o
21 14 5 3.32 3.33 0.00 o
22 13 3 0.34 0.34 0.00 o
25 6 1 4.63 4.63 0.00 o
18 14 12 0.45 0.45 0.00 o
18 18 4 9.71 9.74 0.00 o
22 12 6 1.03 1.04 0.00 o
17 16 11 0.06 0.06 0.00 o
21 12 9 9.00 9.04 0.00 o
19 16 7 0.81 0.81 0.00 o
19 17 4 0.04 0.04 0.00 o
23 11 4 6.31 6.33 0.00 o
24 9 3 3.60 3.62 0.00 o
0 21 15 4.06 4.08 0.00 o
25 5 4 0.07 0.07 0.00 o
18 15 11 10.52 10.57 0.00 o
21 15 2 2.69 2.70 0.00 o
25 6 3 6.56 6.59 0.00 o
20 16 4 3.69 3.70 0.00 o
19 13 12 1.59 1.60 0.00 o
21 13 8 5.28 5.30 0.00 o
20 15 7 1.68 1.68 0.00 o
23 9 8 6.29 6.32 0.00 o
24 7 7 1.07 1.08 0.00 o
23 12 1 8.49 8.53 0.00 o
0 25 7 5.66 5.69 0.00 o
24 8 6 0.37 0.37 0.00 o
0 24 10 0.50 0.50 0.00 o
0 0 26 219.91 221.25 0.00 o
17 17 10 6.82 6.88 0.00 o
19 14 11 10.72 10.82 0.00 o
22 13 5 0.80 0.81 0.00 o
23 10 7 0.99 1.00 0.00 o
25 7 2 0.30 0.30 0.00 o
26 1 1 0.46 0.46 0.00 o
18 16 10 8.51 8.61 0.00 o
0 22 14 0.86 0.87 0.00 o
24 10 2 2.50 2.53 0.00 o
0 26 2 39.30 39.79 0.00 o
21 15 4 1.69 1.72 0.00 o
23 12 3 0.30 0.31 0.00 o
24 9 5 1.23 1.25 0.00 o
22 10 10 0.05 0.05 0.00 o
18 18 6 0.36 0.37 0.00 o
22 14 2 2.65 2.69 0.00 o
26 2 2 0.18 0.18 0.00 o
19 15 10 1.04 1.06 0.00 o
22 11 9 9.20 9.33 0.00 o
19 17 6 0.17 0.17 0.00 o
21 14 7 0.01 0.01 0.00 o
23 11 6 7.12 7.22 0.00 o
19 18 1 0.82 0.84 0.00 o
25 6 5 11.35 11.50 0.00 o
26 3 1 0.04 0.04 0.00 o
20 12 12 0.10 0.10 0.00 o
20 13 11 3.90 3.92 0.00 o
20 17 1 9.15 9.20 0.00 o
25 7 4 7.20 7.24 0.00 o
25 8 1 0.25 0.25 0.00 o
22 12 8 3.02 3.02 0.00 o
20 16 6 0.07 0.07 0.00 o
24 10 4 22.68 22.71 0.00 o
0 26 4 0.49 0.49 0.00 o
18 17 9 41.52 41.44 0.00 o
19 18 3 1.11 1.11 0.00 o
26 3 3 3.32 3.31 0.00 o
20 14 10 0.02 0.02 0.00 o
22 14 4 12.16 12.12 0.00 o
26 4 2 0.42 0.42 0.00 o
19 16 9 0.75 0.74 0.00 o
20 17 3 1.15 1.14 0.00 o
23 12 5 0.94 0.94 0.00 o
21 16 1 12.00 11.96 0.00 o
0 23 13 17.56 17.50 0.00 o
24 11 1 18.76 18.70 0.00 o
25 8 3 0.87 0.87 0.00 o
21 15 6 2.23 2.23 0.00 o
22 13 7 7.03 7.02 0.00 o
23 13 2 1.14 1.14 0.00 o
26 5 1 0.09 0.09 0.00 o
24 8 8 2.02 2.01 0.00 o
16 15 15 0.09 0.09 0.00 o
21 12 11 0.76 0.76 0.00 o
20 15 9 2.66 2.66 0.00 o
21 16 3 0.66 0.66 0.00 o
24 9 7 0.30 0.30 0.00 o
24 11 3 0.26 0.26 0.00 o
0 25 9 0.06 0.06 0.00 o
16 16 14 13.86 13.80 0.00 o
26 4 4 36.55 36.40 0.00 o
17 15 14 13.18 13.10 0.00 o
21 13 10 0.33 0.32 0.00 o
23 10 9 9.26 9.21 0.00 o
19 18 5 0.22 0.21 0.00 o
22 15 1 27.35 27.18 0.00 o
25 7 6 6.98 6.94 0.00 o
25 9 2 1.15 1.15 0.00 o
26 5 3 8.92 8.87 0.00 o
18 18 8 53.74 53.31 0.00 o
24 10 6 9.28 9.21 0.00 o
0 26 6 10.24 10.16 0.00 o
17 16 13 0.01 0.01 0.00 o
19 17 8 0.50 0.50 0.00 o
23 11 8 3.58 3.54 0.00 o
20 17 5 2.46 2.44 0.00 o
23 13 4 2.69 2.66 0.00 o
25 8 5 0.05 0.05 0.00 o
18 14 14 187.06 185.30 0.00 o
22 14 6 7.74 7.67 0.00 o
26 6 2 5.25 5.20 0.00 o
18 15 13 11.77 11.66 0.00 o
21 14 9 4.58 4.53 0.00 o
22 15 3 0.19 0.19 0.00 o
20 16 8 0.06 0.06 0.00 o
0 24 12 0.11 0.11 0.00 o
17 17 12 0.25 0.24 0.00 o
21 16 5 0.10 0.10 0.00 o
23 12 7 4.27 4.23 0.00 o
24 11 5 1.74 1.72 0.00 o
0 19 19 4.53 4.48 0.00 o
25 9 4 0.59 0.58 0.00 o
18 16 12 1.31 1.30 0.00 o
24 12 2 0.15 0.14 0.00 o
0 20 18 0.02 0.02 0.00 o
19 14 13 66.79 66.13 0.00 o
22 11 11 24.94 24.69 0.00 o
19 19 2 4.75 4.70 0.00 o
23 14 1 44.09 43.65 0.00 o
26 5 5 12.48 12.36 0.00 o
25 10 1 0.49 0.49 0.00 o
26 7 1 9.90 9.80 0.00 o
22 12 10 10.39 10.29 0.00 o
20 18 2 1.46 1.45 0.00 o
26 6 4 6.47 6.41 0.00 o
19 15 12 0.29 0.28 0.00 o
21 15 8 0.76 0.75 0.00 o
0 21 17 12.87 12.77 0.00 o
0 27 1 160.18 158.97 0.00 o
18 17 11 10.83 10.80 0.00 o
22 13 9 26.57 26.51 0.00 o
19 18 7 0.19 0.19 0.00 o
22 15 5 0.15 0.15 0.00 o
23 13 6 1.19 1.19 0.00 o
21 17 2 0.04 0.04 0.00 o
23 14 3 2.37 2.36 0.00 o
25 10 3 4.93 4.92 0.00 o
26 7 3 2.65 2.65 0.00 o
27 2 1 0.46 0.46 0.00 o
24 12 4 1.30 1.30 0.00 o
19 16 11 0.00 0.00 0.00 o
20 13 13 0.02 0.02 0.00 o
20 17 7 0.63 0.63 0.00 o
24 9 9 0.09 0.09 0.00 o
19 19 4 3.69 3.68 0.00 o
25 8 7 0.66 0.66 0.00 o
0 27 3 3.15 3.15 0.00 o
20 14 12 7.89 7.86 0.00 o
24 10 8 0.31 0.31 0.00 o
20 18 4 0.08 0.08 0.00 o
0 22 16 0.41 0.41 0.00 o
0 26 8 0.58 0.57 0.00 o
25 9 6 0.15 0.15 0.00 o
27 3 2 0.04 0.04 0.00 o
22 14 8 10.57 10.44 0.00 o
22 16 2 0.14 0.14 0.00 o
26 8 2 0.84 0.83 0.00 o
20 15 11 1.30 1.28 0.00 o
21 16 7 13.71 13.50 0.00 o
21 17 4 2.05 2.02 0.00 o
24 11 7 0.05 0.05 0.00 o
24 13 1 49.87 49.11 0.00 o
0 25 11 0.13 0.13 0.00 o
27 4 1 0.16 0.15 0.00 o
18 18 10 163.59 161.01 0.00 o
26 6 6 2.15 2.12 0.00 o
19 17 10 0.75 0.74 0.00 o
23 11 10 4.12 4.06 0.00 o
23 14 5 1.38 1.37 0.00 o
25 10 5 2.61 2.58 0.00 o
26 7 5 0.14 0.14 0.00 o
25 11 2 2.39 2.36 0.00 o
21 13 12 0.06 0.06 0.00 o
23 12 9 4.94 4.94 0.00 o
24 13 3 1.66 1.66 0.00 o
0 23 15 45.08 45.04 0.00 o
27 4 3 0.64 0.64 0.00 o
0 27 5 0.81 0.80 0.00 o
20 16 10 0.42 0.42 0.00 o
22 16 4 0.40 0.40 0.00 o
24 12 6 8.36 8.41 0.00 o
26 8 4 0.25 0.25 0.00 o
21 14 11 0.60 0.60 0.00 o
19 19 6 0.38 0.39 0.00 o
22 15 7 0.00 0.00 0.00 o
23 15 2 0.46 0.46 0.00 o
26 9 1 0.95 0.96 0.00 o
27 5 2 0.48 0.49 0.00 o
20 18 6 0.01 0.01 0.00 o
23 13 8 18.73 19.17 0.00 o
20 19 1 1.81 1.85 0.00 o
25 11 4 0.44 0.45 0.00 o
19 18 9 22.09 22.64 0.00 o
21 15 10 2.08 2.13 0.00 o
21 17 6 0.65 0.66 0.00 o
21 18 1 0.06 0.06 0.00 o
26 9 3 0.19 0.19 0.00 o
27 6 1 2.23 2.29 0.00 o
16 16 16 0.17 0.18 0.00 o
17 16 15 0.07 0.07 0.00 o
20 17 9 0.17 0.18 0.00 o
23 15 4 13.59 13.88 0.00 o
24 13 5 4.34 4.43 0.00 o
25 9 8 0.91 0.93 0.00 o
20 19 3 1.66 1.70 0.00 o
25 12 1 12.62 12.89 0.00 o
27 5 4 152.87 156.20 0.00 o
22 12 12 1.21 1.24 0.00 o
0 24 14 44.59 45.53 0.00 o
17 17 14 7.69 7.85 0.00 o
18 15 15 2.52 2.57 0.00 o
22 13 11 0.07 0.07 0.00 o
21 18 3 4.88 4.98 0.00 o
23 14 7 0.00 0.00 0.00 o
26 7 7 0.22 0.22 0.00 o
25 10 7 15.91 16.24 0.00 o
22 17 1 0.65 0.66 0.00 o
27 6 3 4.31 4.40 0.00 o
18 16 14 0.04 0.04 0.00 o
24 10 10 0.40 0.41 0.00 o
22 16 6 2.92 2.99 0.00 o
24 14 2 17.75 18.14 0.00 o
26 8 6 0.03 0.03 0.00 o
0 26 10 1.70 1.74 0.00 o
21 16 9 1.07 1.10 0.00 o
24 11 9 0.22 0.23 0.00 o
25 12 3 0.47 0.48 0.00 o
0 27 7 0.01 0.01 0.00 o
22 14 10 0.97 0.99 0.00 o
26 10 2 1.78 1.82 0.00 o
18 17 13 0.94 0.96 0.00 o
19 15 14 22.10 22.56 0.00 o
22 17 3 3.37 3.44 0.00 o
25 11 6 0.00 0.00 0.00 o
26 9 5 0.11 0.11 0.00 o
27 7 2 0.49 0.50 0.00 o
24 12 8 0.05 0.05 0.00 o
0 0 28 100.56 102.40 0.00 o
19 16 13 0.05 0.05 0.00 o
19 19 8 0.53 0.53 0.00 o
20 19 5 0.03 0.03 0.00 o
23 16 1 2.74 2.78 0.00 o
28 1 1 1.09 1.11 0.00 o
20 18 8 8.03 8.12 0.00 o
24 14 4 0.65 0.66 0.00 o
0 28 2 8.13 8.22 0.00 o
22 15 9 2.26 2.28 0.00 o
21 18 5 11.24 11.32 0.00 o
23 15 6 0.00 0.00 0.00 o
27 6 5 0.03 0.03 0.00 o
18 18 12 0.01 0.01 0.00 o
20 14 14 1.56 1.56 0.00 o
26 10 4 0.10 0.10 0.00 o
28 2 2 0.01 0.01 0.00 o
19 17 12 0.36 0.36 0.00 o
20 15 13 20.90 20.93 0.00 o
21 17 8 0.03 0.03 0.00 o
23 12 11 0.09 0.09 0.00 o
24 13 7 1.02 1.02 0.00 o
23 16 3 3.67 3.67 0.00 o
25 12 5 3.26 3.27 0.00 o
27 7 4 0.20 0.21 0.00 o
0 25 13 0.71 0.71 0.00 o
27 8 1 1.26 1.27 0.00 o
28 3 1 3.57 3.58 0.00 o
23 13 10 24.18 24.22 0.00 o
22 17 5 3.36 3.36 0.00 o
25 13 2 58.78 58.86 0.00 o
26 11 1 7.14 7.15 0.00 o
20 16 12 0.17 0.17 0.00 o
0 20 20 5.76 5.78 0.00 o
0 28 4 4.72 4.74 0.00 o
0 21 19 0.09 0.09 0.00 o
24 15 1 0.27 0.28 0.00 o
27 8 3 0.25 0.25 0.00 o
28 3 3 0.93 0.94 0.00 o
22 16 8 0.16 0.16 0.00 o
26 8 8 0.03 0.03 0.00 o
20 20 2 0.33 0.33 0.00 o
28 4 2 0.42 0.42 0.00 o
21 14 13 2.41 2.44 0.00 o
19 18 11 16.27 16.49 0.00 o
23 14 9 0.06 0.06 0.00 o
25 10 9 9.78 9.90 0.00 o
21 19 2 7.18 7.27 0.00 o
26 9 7 0.58 0.59 0.00 o
26 11 3 2.89 2.92 0.00 o
24 14 6 5.12 5.19 0.00 o
0 22 18 6.15 6.24 0.00 o
21 15 12 0.11 0.11 0.00 o
20 17 11 0.53 0.54 0.00 o
20 19 7 1.58 1.61 0.00 o
25 11 8 0.18 0.19 0.00 o
23 16 5 2.10 2.13 0.00 o
24 15 3 8.74 8.88 0.00 o
25 13 4 0.08 0.08 0.00 o
0 27 9 230.65 234.30 0.00 o
28 5 1 1.27 1.29 0.00 o
22 18 2 0.03 0.03 0.00 o
26 10 6 0.06 0.06 0.00 o
21 18 7 11.02 11.21 0.00 o
27 7 6 0.00 0.00 0.00 o
27 9 2 0.81 0.82 0.00 o
20 20 4 0.09 0.10 0.00 o
28 4 4 2.28 2.32 0.00 o
21 16 11 2.50 2.55 0.00 o
23 15 8 2.05 2.10 0.00 o
24 11 11 12.44 12.69 0.00 o
21 19 4 7.96 8.12 0.00 o
25 12 7 8.62 8.79 0.00 o
27 8 5 3.47 3.54 0.00 o
0 23 17 1.60 1.63 0.00 o
28 5 3 0.02 0.02 0.00 o
24 12 10 1.58 1.62 0.00 o
0 26 12 1.32 1.35 0.00 o
0 28 6 1.39 1.42 0.00 o
22 13 13 6.16 6.30 0.00 o
19 19 10 2.75 2.81 0.00 o
22 17 7 3.25 3.32 0.00 o
26 11 5 0.51 0.52 0.00 o
23 17 2 7.94 8.13 0.00 o
25 14 1 0.72 0.74 0.00 o
22 14 12 0.13 0.13 0.00 o
20 18 10 16.12 16.50 0.00 o
22 18 4 24.84 25.42 0.00 o
26 12 2 0.84 0.86 0.00 o
28 6 2 2.71 2.78 0.00 o
24 13 9 2.20 2.25 0.00 o
24 15 5 2.78 2.85 0.00 o
27 9 4 3.83 3.91 0.00 o
21 17 10 4.74 4.82 0.00 o
22 15 11 1.45 1.48 0.00 o
25 13 6 17.67 17.96 0.00 o
25 14 3 49.77 50.59 0.00 o
27 10 1 14.36 14.59 0.00 o
0 24 16 33.17 33.59 0.00 o
17 17 16 0.84 0.85 0.00 o
23 16 7 0.57 0.58 0.00 o
23 17 4 21.06 21.24 0.00 o
28 5 5 51.30 51.73 0.00 o
28 7 1 0.53 0.53 0.00 o
18 16 16 3.47 3.48 0.00 o
24 14 8 1.60 1.61 0.00 o
20 20 6 0.24 0.24 0.00 o
24 16 2 0.48 0.48 0.00 o
26 12 4 3.36 3.37 0.00 o
28 6 4 2.73 2.74 0.00 o
18 17 15 3.62 3.63 0.00 o
21 19 6 3.15 3.16 0.00 o
26 9 9 3.23 3.24 0.00 o
27 10 3 1.75 1.75 0.00 o
22 16 10 0.75 0.74 0.00 o
26 10 8 0.02 0.02 0.00 o
19 16 15 1.03 1.03 0.00 o
20 19 9 2.95 2.95 0.00 o
23 13 12 16.62 16.57 0.00 o
27 8 7 0.02 0.02 0.00 o
21 20 1 10.35 10.32 0.00 o
28 7 3 2.49 2.49 0.00 o
0 29 1 8.46 8.44 0.00 o
18 18 14 0.30 0.30 0.00 o
22 18 6 0.33 0.33 0.00 o
19 17 14 0.18 0.18 0.00 o
21 18 9 3.47 3.45 0.00 o
23 14 11 0.24 0.24 0.00 o
25 11 10 0.08 0.08 0.00 o
25 14 5 0.50 0.50 0.00 o
27 9 6 1.22 1.21 0.00 o
26 11 7 0.42 0.41 0.00 o
22 19 1 0.39 0.39 0.00 o
26 13 1 1.69 1.68 0.00 o
29 2 1 0.08 0.08 0.00 o
24 16 4 13.89 13.80 0.00 o
0 28 8 0.22 0.22 0.00 o
20 15 15 0.96 0.95 0.00 o
25 12 9 1.90 1.89 0.00 o
24 15 7 0.73 0.73 0.00 o
21 20 3 0.82 0.82 0.00 o
0 25 15 13.32 13.23 0.00 o
0 27 11 7.88 7.83 0.00 o
0 29 3 3.52 3.50 0.00 o
20 16 14 32.03 31.81 0.00 o
28 8 2 1.70 1.69 0.00 o
19 18 13 3.94 3.92 0.00 o
22 17 9 0.01 0.01 0.00 o
23 15 10 5.11 5.08 0.00 o
23 17 6 3.07 3.05 0.00 o
22 19 3 0.01 0.01 0.00 o
27 10 5 1.04 1.04 0.00 o
23 18 1 0.00 0.00 0.00 o
26 13 3 12.17 12.10 0.00 o
27 11 2 0.02 0.02 0.00 o
25 15 2 6.23 6.19 0.00 o
29 3 2 0.28 0.28 0.00 o
26 12 6 2.86 2.85 0.00 o
28 6 6 0.01 0.01 0.00 o
20 17 13 6.70 6.67 0.00 o
25 13 8 0.48 0.48 0.00 o
28 7 5 2.76 2.75 0.00 o
29 4 1 1.93 1.92 0.00 o
21 15 14 1.28 1.28 0.00 o
23 18 3 2.51 2.51 0.00 o
24 12 12 1.09 1.09 0.00 o
20 20 8 1.81 1.82 0.00 o
28 8 4 0.00 0.00 0.00 o
21 16 13 14.77 14.80 0.00 o
19 19 12 1.40 1.40 0.00 o
23 16 9 0.02 0.02 0.00 o
24 13 11 0.46 0.46 0.00 o
21 19 8 0.73 0.73 0.00 o
21 20 5 0.04 0.04 0.00 o
25 15 4 25.32 25.37 0.00 o
27 11 4 0.10 0.10 0.00 o
24 17 1 1.59 1.59 0.00 o
28 9 1 0.12 0.12 0.00 o
29 4 3 0.12 0.12 0.00 o
0 29 5 2.10 2.10 0.00 o
20 18 12 0.22 0.22 0.00 o
24 16 6 7.09 7.11 0.00 o
22 19 5 10.43 10.48 0.00 o
25 14 7 13.14 13.21 0.00 o
26 13 5 5.49 5.52 0.00 o
29 5 2 0.36 0.36 0.00 o
24 14 10 1.71 1.72 0.00 o
22 18 8 3.09 3.12 0.00 o
0 26 14 3.24 3.27 0.00 o
21 17 12 2.05 2.07 0.00 o
27 9 8 5.51 5.56 0.00 o
24 17 3 0.61 0.62 0.00 o
27 12 1 0.24 0.24 0.00 o
28 9 3 0.25 0.25 0.00 o
22 14 14 0.01 0.01 0.00 o
26 10 10 0.28 0.29 0.00 o
26 14 2 0.01 0.01 0.00 o
22 15 13 1.47 1.49 0.00 o
26 11 9 0.18 0.18 0.00 o
23 18 5 37.63 38.16 0.00 o
27 10 7 0.08 0.08 0.00 o
29 6 1 0.30 0.30 0.00 o
20 19 11 5.90 5.99 0.00 o
24 15 9 0.39 0.39 0.00 o
23 17 8 1.42 1.44 0.00 o
0 21 21 1.89 1.92 0.00 o
25 16 1 5.16 5.24 0.00 o
28 7 7 3.07 3.11 0.00 o
27 12 3 1.81 1.84 0.00 o
29 5 4 0.25 0.26 0.00 o
22 16 12 1.10 1.12 0.00 o
26 12 8 0.69 0.70 0.00 o
0 22 20 14.17 14.35 0.00 o
28 8 6 0.07 0.07 0.00 o
0 28 10 10.40 10.53 0.00 o
21 18 11 3.68 3.72 0.00 o
21 21 2 1.98 2.00 0.00 o
27 11 6 0.06 0.06 0.00 o
25 15 6 0.02 0.02 0.00 o
29 6 3 1.22 1.23 0.00 o
22 20 2 0.04 0.04 0.00 o
26 14 4 181.08 182.35 0.00 o
28 10 2 7.95 8.01 0.00 o
25 12 11 1.36 1.37 0.00 o
21 20 7 3.65 3.66 0.00 o
24 17 5 4.12 4.14 0.00 o
25 16 3 1.21 1.22 0.00 o
0 23 19 0.18 0.18 0.00 o
28 9 5 2.26 2.27 0.00 o
0 29 7 0.41 0.41 0.00 o
22 17 11 3.66 3.65 0.00 o
23 14 13 7.35 7.33 0.00 o
22 19 7 1.47 1.46 0.00 o
25 13 10 6.20 6.18 0.00 o
26 13 7 8.72 8.69 0.00 o
23 19 2 6.77 6.75 0.00 o
29 7 2 0.11 0.11 0.00 o
24 16 8 0.98 0.98 0.00 o
23 15 12 0.14 0.14 0.00 o
21 21 4 2.14 2.12 0.00 o
27 12 5 0.46 0.46 0.00 o
0 27 13 4.74 4.70 0.00 o
20 20 10 0.03 0.03 0.00 o
22 20 4 0.67 0.66 0.00 o
0 24 18 2.26 2.24 0.00 o
28 10 4 0.15 0.15 0.00 o
0 0 30 1.80 1.78 0.00 o
18 17 17 0.00 0.00 0.00 o
21 19 10 2.13 2.11 0.00 o
25 14 9 1.68 1.66 0.00 o
23 18 7 3.86 3.82 0.00 o
27 13 2 0.73 0.72 0.00 o
26 15 1 3.46 3.42 0.00 o
29 6 5 18.81 18.59 0.00 o
30 1 1 0.51 0.51 0.00 o
18 18 16 8.45 8.34 0.00 o
24 18 2 0.36 0.35 0.00 o
0 30 2 0.60 0.59 0.00 o
19 17 16 7.96 7.85 0.00 o
23 16 11 8.94 8.81 0.00 o
23 19 4 1.00 0.99 0.00 o
25 16 5 8.51 8.38 0.00 o
29 7 4 16.38 16.15 0.00 o
28 11 1 1.36 1.34 0.00 o
29 8 1 0.08 0.08 0.00 o
22 18 10 0.34 0.34 0.00 o
26 14 6 4.16 4.09 0.00 o
30 2 2 0.09 0.09 0.00 o
19 18 15 0.80 0.79 0.00 o
27 10 9 0.09 0.09 0.00 o
26 15 3 2.70 2.65 0.00 o
30 3 1 1.09 1.07 0.00 o
20 16 16 1.13 1.12 0.00 o
28 8 8 0.25 0.25 0.00 o
20 17 15 0.27 0.26 0.00 o
24 13 13 1.66 1.63 0.00 o
25 15 8 6.29 6.18 0.00 o
24 17 7 0.04 0.04 0.00 o
27 11 8 0.17 0.16 0.00 o
27 13 4 239.93 235.77 0.00 o
28 9 7 2.26 2.22 0.00 o
0 25 17 20.44 20.08 0.00 o
29 8 3 1.00 0.98 0.00 o
28 11 3 10.20 10.02 0.00 o
24 14 12 0.10 0.09 0.00 o
24 18 4 0.18 0.18 0.00 o
0 30 4 0.24 0.24 0.00 o
19 19 14 0.25 0.25 0.00 o
23 17 10 0.90 0.88 0.00 o
21 21 6 14.00 13.76 0.00 o
26 11 11 4.54 4.46 0.00 o
25 17 2 0.08 0.08 0.00 o
30 3 3 3.11 3.06 0.00 o
20 18 14 0.01 0.01 0.00 o
26 12 10 2.54 2.50 0.00 o
22 20 6 3.25 3.20 0.00 o
28 10 6 0.01 0.01 0.00 o
30 4 2 1.85 1.82 0.00 o
21 16 15 0.86 0.84 0.00 o
24 15 11 0.52 0.51 0.00 o
21 20 9 0.72 0.71 0.00 o
27 12 7 0.38 0.37 0.00 o
0 29 9 0.94 0.93 0.00 o
21 17 14 6.23 6.15 0.00 o
22 19 9 1.92 1.89 0.00 o
26 13 9 1.42 1.41 0.00 o
23 19 6 11.23 11.09 0.00 o
26 15 5 22.19 21.91 0.00 o
22 21 1 0.30 0.30 0.00 o
27 14 1 0.78 0.77 0.00 o
29 9 2 0.38 0.38 0.00 o
29 7 6 0.17 0.17 0.00 o
30 5 1 10.14 10.02 0.00 o
0 28 12 0.12 0.12 0.00 o
20 19 13 0.70 0.69 0.00 o
25 16 7 0.26 0.25 0.00 o
25 17 4 1.26 1.25 0.00 o
28 11 5 0.11 0.11 0.00 o
23 20 1 0.32 0.32 0.00 o
29 8 5 3.00 2.97 0.00 o
24 16 10 2.47 2.45 0.00 o
0 26 16 20.86 20.73 0.00 o
28 12 2 0.02 0.02 0.00 o
30 4 4 0.75 0.75 0.00 o
21 18 13 39.19 39.07 0.00 o
22 15 15 6.11 6.09 0.00 o
23 18 9 0.98 0.98 0.00 o
22 21 3 3.66 3.65 0.00 o
27 13 6 2.29 2.28 0.00 o
27 14 3 0.68 0.68 0.00 o
30 5 3 0.03 0.03 0.00 o
22 16 14 0.53 0.53 0.00 o
24 18 6 0.50 0.50 0.00 o
26 14 8 0.27 0.27 0.00 o
26 16 2 3.01 3.01 0.00 o
0 30 6 4.59 4.59 0.00 o
25 13 12 6.95 6.99 0.00 o
24 19 1 4.03 4.06 0.00 o
23 20 3 0.01 0.01 0.00 o
29 9 4 0.02 0.02 0.00 o
30 6 2 2.78 2.81 0.00 o
22 17 13 3.97 4.02 0.00 o
25 14 11 12.99 13.16 0.00 o
29 10 1 1.36 1.38 0.00 o
20 20 12 0.02 0.02 0.00 o
28 12 4 29.63 30.12 0.00 o
21 19 12 2.30 2.34 0.00 o
24 17 9 0.10 0.10 0.00 o
21 21 8 0.83 0.85 0.00 o
24 19 3 5.20 5.29 0.00 o
28 9 9 0.39 0.40 0.00 o
22 20 8 1.35 1.37 0.00 o
26 16 4 0.43 0.44 0.00 o
28 10 8 0.00 0.00 0.00 o
23 15 14 0.02 0.02 0.00 o
25 15 10 0.01 0.01 0.00 o
27 11 10 3.28 3.34 0.00 o
22 21 5 0.04 0.04 0.00 o
25 17 6 0.02 0.02 0.00 o
26 15 7 7.08 7.21 0.00 o
27 14 5 153.59 156.34 0.00 o
25 18 1 2.75 2.79 0.00 o
29 10 3 0.04 0.04 0.00 o
30 5 5 0.16 0.16 0.00 o
30 7 1 0.45 0.46 0.00 o
22 18 12 16.28 16.55 0.00 o
30 6 4 1.32 1.35 0.00 o
23 16 13 0.18 0.18 0.00 o
23 19 8 2.45 2.49 0.00 o
23 20 5 2.60 2.64 0.00 o
27 12 9 1.00 1.02 0.00 o
29 8 7 0.82 0.83 0.00 o
28 11 7 1.78 1.81 0.00 o
0 27 15 0.09 0.09 0.00 o
28 13 1 4.08 4.15 0.00 o
25 18 3 0.01 0.01 0.00 o
27 15 2 0.08 0.09 0.00 o
29 9 6 0.11 0.11 0.00 o
30 7 3 1.13 1.14 0.00 o
23 17 12 5.33 5.38 0.00 o
21 20 11 3.54 3.58 0.00 o
25 16 9 0.36 0.36 0.00 o
27 13 8 2.25 2.27 0.00 o
24 19 5 0.06 0.06 0.00 o
28 13 3 2.14 2.16 0.00 o
0 29 11 0.00 0.00 0.00 o
0 31 1 2.09 2.11 0.00 o
24 18 8 0.13 0.14 0.00 o
26 12 12 2.37 2.39 0.00 o
28 12 6 0.26 0.27 0.00 o
0 30 8 0.13 0.13 0.00 o
22 19 11 0.00 0.00 0.00 o
26 13 11 0.59 0.60 0.00 o
29 10 5 7.80 7.85 0.00 o
26 17 1 0.28 0.28 0.00 o
29 11 2 0.15 0.15 0.00 o
31 2 1 1.23 1.23 0.00 o
24 14 14 2.08 2.09 0.00 o
26 16 6 8.57 8.60 0.00 o
0 22 22 2.55 2.56 0.00 o
30 8 2 2.46 2.47 0.00 o
24 15 13 0.01 0.01 0.00 o
27 15 4 0.06 0.06 0.00 o
0 23 21 2.86 2.86 0.00 o
0 31 3 0.82 0.83 0.00 o
18 18 18 64.15 63.96 0.00 o
26 14 10 4.11 4.10 0.00 o
22 22 2 5.49 5.48 0.00 o
30 6 6 0.89 0.89 0.00 o
19 18 17 7.64 7.59 0.00 o
23 18 11 1.04 1.03 0.00 o
22 21 7 4.55 4.52 0.00 o
27 14 7 15.61 15.50 0.00 o
25 18 5 1.29 1.28 0.00 o
23 21 2 0.02 0.02 0.00 o
26 17 3 1.33 1.32 0.00 o
30 7 5 29.26 29.05 0.00 o
31 3 2 3.07 3.05 0.00 o
24 16 12 3.41 3.37 0.00 o
0 24 20 1.84 1.82 0.00 o
19 19 16 1.72 1.70 0.00 o
20 17 17 6.20 6.11 0.00 o
23 20 7 6.42 6.33 0.00 o
25 17 8 0.00 0.00 0.00 o
29 11 4 20.44 20.13 0.00 o
28 13 5 221.54 218.25 0.00 o
31 4 1 24.45 24.09 0.00 o
20 18 16 0.06 0.05 0.00 o
24 20 2 2.46 2.41 0.00 o
30 8 4 1.20 1.17 0.00 o
0 28 14 1.49 1.46 0.00 o
21 21 10 0.21 0.20 0.00 o
26 15 9 0.16 0.16 0.00 o
30 9 1 0.23 0.22 0.00 o
22 20 10 0.92 0.90 0.00 o
28 10 10 8.35 8.15 0.00 o
22 22 4 0.00 0.00 0.00 o
28 14 2 10.70 10.45 0.00 o
21 17 16 0.38 0.37 0.00 o
24 17 11 2.95 2.88 0.00 o
20 19 15 3.27 3.19 0.00 o
24 19 7 2.71 2.64 0.00 o
28 11 9 3.63 3.54 0.00 o
23 21 4 0.17 0.17 0.00 o
29 9 8 0.64 0.63 0.00 o
0 25 19 15.15 14.77 0.00 o
27 16 1 7.02 6.84 0.00 o
29 12 1 0.03 0.03 0.00 o
31 4 3 1.14 1.11 0.00 o
0 31 5 51.43 50.15 0.00 o
21 18 15 0.84 0.82 0.00 o
23 19 10 2.07 2.01 0.00 o
25 14 13 0.10 0.09 0.00 o
26 17 5 0.19 0.18 0.00 o
27 15 6 0.11 0.10 0.00 o
25 19 2 0.63 0.61 0.00 o
29 10 7 1.10 1.07 0.00 o
30 9 3 3.91 3.81 0.00 o
31 5 2 2.02 1.97 0.00 o
24 20 4 2.68 2.61 0.00 o
28 12 8 2.88 2.80 0.00 o
27 12 11 0.04 0.04 0.00 o
25 15 12 1.05 1.02 0.00 o
27 16 3 0.52 0.50 0.00 o
29 12 3 1.16 1.13 0.00 o
22 16 16 5.30 5.15 0.00 o
20 20 14 2.90 2.82 0.00 o
26 16 8 2.46 2.39 0.00 o
28 14 4 7.24 7.03 0.00 o
21 19 14 0.76 0.74 0.00 o
22 17 15 23.88 23.20 0.00 o
27 13 10 25.89 25.15 0.00 o
25 18 7 4.46 4.33 0.00 o
29 11 6 0.15 0.14 0.00 o
30 7 7 0.79 0.76 0.00 o
31 6 1 4.62 4.49 0.00 o
24 18 10 4.56 4.44 0.00 o
0 26 18 196.53 191.21 0.00 o
30 8 6 0.14 0.14 0.00 o
0 30 10 1.16 1.13 0.00 o
25 16 11 0.07 0.07 0.00 o
25 19 4 0.13 0.12 0.00 o
28 13 7 0.04 0.04 0.00 o
31 5 4 4.28 4.18 0.00 o
22 18 14 0.04 0.04 0.00 o
22 22 6 0.20 0.20 0.00 o
26 18 2 2.28 2.24 0.00 o
30 10 2 0.01 0.01 0.00 o
22 21 9 2.06 2.02 0.00 o
27 14 9 13.98 13.72 0.00 o
23 21 6 11.25 11.05 0.00 o
30 9 5 1.47 1.44 0.00 o
31 6 3 10.53 10.33 0.00 o
21 20 13 0.10 0.09 0.00 o
23 16 15 2.34 2.31 0.00 o
23 20 9 0.00 0.00 0.00 o
27 16 5 1.86 1.83 0.00 o
29 12 5 39.82 39.33 0.00 o
28 15 1 2.52 2.49 0.00 o
0 29 13 9.05 8.94 0.00 o
0 31 7 0.59 0.58 0.00 o
24 20 6 0.09 0.09 0.00 o
22 19 13 5.13 5.09 0.00 o
23 17 14 1.06 1.05 0.00 o
26 13 13 0.87 0.87 0.00 o
25 17 10 1.78 1.77 0.00 o
26 17 7 6.25 6.20 0.00 o
23 22 1 1.76 1.75 0.00 o
29 13 2 1.59 1.57 0.00 o
31 7 2 0.39 0.39 0.00 o
26 14 12 0.12 0.12 0.00 o
26 18 4 6.74 6.68 0.00 o
28 14 6 4.67 4.64 0.00 o
30 10 4 15.79 15.67 0.00 o
24 19 9 1.97 1.96 0.00 o
27 15 8 3.18 3.15 0.00 o
24 21 1 11.04 10.95 0.00 o
28 15 3 2.80 2.78 0.00 o
0 27 17 75.74 75.16 0.00 o
23 18 13 19.26 19.09 0.00 o
26 15 11 0.19 0.19 0.00 o
25 19 6 0.36 0.36 0.00 o
29 10 9 0.56 0.55 0.00 o
23 22 3 13.00 12.88 0.00 o
27 17 2 0.46 0.45 0.00 o
30 11 1 2.55 2.53 0.00 o
31 6 5 1.04 1.04 0.00 o
0 0 32 2.92 2.89 0.00 o
24 15 15 0.10 0.10 0.00 o
21 21 12 13.97 13.83 0.00 o
24 21 3 11.98 11.86 0.00 o
28 11 11 0.08 0.08 0.00 o
29 13 4 0.80 0.79 0.00 o
29 11 8 0.54 0.54 0.00 o
25 20 1 3.50 3.47 0.00 o
31 7 4 4.63 4.58 0.00 o
31 8 1 12.66 12.53 0.00 o
32 1 1 0.52 0.52 0.00 o
24 16 14 11.03 10.92 0.00 o
22 20 12 7.43 7.36 0.00 o
28 12 10 0.98 0.97 0.00 o
30 8 8 3.24 3.21 0.00 o
0 32 2 1.06 1.05 0.00 o
25 18 9 0.40 0.40 0.00 o
30 11 3 1.32 1.31 0.00 o
30 9 7 0.08 0.08 0.00 o
26 16 10 1.15 1.14 0.00 o
22 22 8 48.47 48.10 0.00 o
32 2 2 0.14 0.14 0.00 o
23 19 12 8.14 8.09 0.00 o
24 17 13 20.99 20.87 0.00 o
23 21 8 22.46 22.33 0.00 o
28 13 9 3.86 3.84 0.00 o
27 16 7 0.04 0.04 0.00 o
25 20 3 2.04 2.03 0.00 o
27 17 4 0.02 0.02 0.00 o
28 15 5 2.60 2.59 0.00 o
29 12 7 1.00 1.00 0.00 o
31 8 3 2.14 2.13 0.00 o
32 3 1 8.06 8.01 0.00 o
26 18 6 1.96 1.95 0.00 o
30 10 6 0.42 0.42 0.00 o
23 22 5 1.12 1.11 0.00 o
26 19 1 0.20 0.20 0.00 o
29 14 1 1.42 1.41 0.00 o
24 20 8 0.26 0.26 0.00 o
0 28 16 7.67 7.67 0.00 o
0 32 4 49.95 49.95 0.00 o
27 13 12 0.42 0.42 0.00 o
24 21 5 0.35 0.35 0.00 o
0 31 9 0.05 0.05 0.00 o
32 3 3 0.03 0.03 0.00 o
24 18 12 0.36 0.36 0.00 o
28 14 8 1.56 1.57 0.00 o
28 16 2 0.00 0.00 0.00 o
0 30 12 9.18 9.19 0.00 o
32 4 2 0.47 0.47 0.00 o
19 19 18 2.00 2.00 0.00 o
22 21 11 0.01 0.01 0.00 o
25 15 14 31.03 31.11 0.00 o
26 17 9 4.30 4.31 0.00 o
27 14 11 0.02 0.02 0.00 o
30 11 5 21.09 21.15 0.00 o
29 13 6 42.84 42.96 0.00 o
26 19 3 12.28 12.32 0.00 o
29 14 3 0.22 0.22 0.00 o
31 7 6 3.15 3.16 0.00 o
31 9 2 0.39 0.39 0.00 o
20 18 18 0.01 0.01 0.00 o
30 12 2 0.22 0.22 0.00 o
20 19 17 0.04 0.04 0.00 o
25 16 13 28.00 28.10 0.00 o
23 20 11 2.20 2.21 0.00 o
25 19 8 0.69 0.69 0.00 o
25 20 5 1.79 1.79 0.00 o
31 8 5 12.69 12.73 0.00 o
32 5 1 41.51 41.66 0.00 o
21 18 17 3.41 3.43 0.00 o
27 15 10 11.09 11.14 0.00 o
27 17 6 1.17 1.18 0.00 o
27 18 1 156.16 156.91 0.00 o
20 20 16 2.16 2.17 0.00 o
28 16 4 0.00 0.00 0.00 o
32 4 4 1.25 1.26 0.00 o
21 19 16 0.66 0.67 0.00 o
24 19 11 0.00 0.00 0.00 o
25 17 12 5.79 5.83 0.00 o
28 15 7 1.72 1.73 0.00 o
31 9 4 20.39 20.51 0.00 o
0 23 23 36.40 36.63 0.00 o
32 5 3 0.22 0.22 0.00 o
0 24 22 2.21 2.23 0.00 o
30 12 4 5.31 5.35 0.00 o
0 32 6 2.83 2.85 0.00 o
22 17 17 0.26 0.26 0.00 o
23 22 7 0.27 0.27 0.00 o
29 11 10 0.06 0.06 0.00 o
26 19 5 0.07 0.07 0.00 o
30 9 9 0.07 0.07 0.00 o
29 14 5 0.99 0.99 0.00 o
23 23 2 0.02 0.02 0.00 o
27 18 3 1.08 1.09 0.00 o
31 10 1 0.06 0.06 0.00 o
22 18 16 3.69 3.72 0.00 o
26 18 8 3.25 3.28 0.00 o
24 22 2 0.00 0.00 0.00 o
30 10 8 2.82 2.85 0.00 o
32 6 2 3.39 3.41 0.00 o
21 20 15 1.08 1.09 0.00 o
24 21 7 1.22 1.23 0.00 o
27 16 9 35.69 36.02 0.00 o
29 12 9 2.94 2.97 0.00 o
0 25 21 1.68 1.70 0.00 o
0 29 15 1.74 1.76 0.00 o
22 22 10 5.96 6.02 0.00 o
26 14 14 126.76 127.98 0.00 o
22 19 15 0.17 0.17 0.00 o
25 18 11 12.31 12.43 0.00 o
23 21 10 1.10 1.11 0.00 o
26 15 13 20.86 21.07 0.00 o
30 11 7 1.27 1.28 0.00 o
25 21 2 1.33 1.34 0.00 o
29 15 2 4.00 4.04 0.00 o
30 13 1 2.07 2.10 0.00 o
31 10 3 15.95 16.11 0.00 o
28 12 12 0.19 0.19 0.00 o
23 17 16 0.22 0.22 0.00 o
28 13 11 0.28 0.28 0.00 o
25 20 7 5.67 5.73 0.00 o
29 13 8 0.28 0.29 0.00 o
23 23 4 1.14 1.16 0.00 o
28 17 1 0.01 0.01 0.00 o
31 8 7 0.27 0.27 0.00 o
32 5 5 1.73 1.74 0.00 o
32 7 1 1.80 1.81 0.00 o
24 20 10 3.52 3.56 0.00 o
26 16 12 10.43 10.54 0.00 o
24 22 4 1.01 1.02 0.00 o
28 16 6 0.99 1.00 0.00 o
0 26 20 14.30 14.45 0.00 o
32 6 4 8.63 8.73 0.00 o
21 21 14 2.85 2.88 0.00 o
23 18 15 35.61 35.99 0.00 o
27 18 5 1.29 1.30 0.00 o
30 13 3 0.15 0.16 0.00 o
31 9 6 7.16 7.23 0.00 o
22 20 14 19.77 19.97 0.00 o
28 14 10 4.38 4.42 0.00 o
26 20 2 2.56 2.59 0.00 o
30 12 6 1.41 1.43 0.00 o
27 17 8 1.84 1.86 0.00 o
29 15 4 0.25 0.25 0.00 o
25 21 4 10.16 10.26 0.00 o
28 17 3 3.14 3.16 0.00 o
0 31 11 3.91 3.95 0.00 o
32 7 3 7.98 8.05 0.00 o
23 19 14 12.01 12.09 0.00 o
26 17 11 14.21 14.30 0.00 o
26 19 7 2.79 2.81 0.00 o
25 19 10 12.51 12.59 0.00 o
29 14 7 32.76 32.98 0.00 o
31 10 5 89.08 89.67 0.00 o
31 11 2 15.70 15.80 0.00 o
24 16 16 0.77 0.77 0.00 o
0 32 8 0.83 0.84 0.00 o
24 17 15 2.56 2.57 0.00 o
28 15 9 0.07 0.07 0.00 o
0 27 19 14.92 14.97 0.00 o
0 33 1 0.29 0.29 0.00 o
26 20 4 0.01 0.01 0.00 o
32 8 2 0.26 0.26 0.00 o
22 21 13 3.28 3.28 0.00 o
23 22 9 32.15 32.15 0.00 o
27 14 13 213.57 213.59 0.00 o
23 23 6 0.56 0.56 0.00 o
27 19 2 9.49 9.49 0.00 o
30 13 5 0.11 0.11 0.00 o
33 2 1 5.07 5.07 0.00 o
24 18 14 33.56 33.52 0.00 o
24 22 6 0.16 0.16 0.00 o
0 30 14 12.58 12.57 0.00 o
32 6 6 2.54 2.54 0.00 o
24 21 9 2.16 2.15 0.00 o
23 20 13 0.04 0.04 0.00 o
27 15 12 19.51 19.47 0.00 o
28 17 5 4.36 4.35 0.00 o
29 16 1 0.07 0.07 0.00 o
32 7 5 3.45 3.44 0.00 o
31 11 4 0.29 0.29 0.00 o
0 33 3 0.96 0.96 0.00 o
26 18 10 27.05 26.98 0.00 o
30 10 10 0.49 0.49 0.00 o
30 14 2 4.65 4.64 0.00 o
27 18 7 0.37 0.37 0.00 o
25 21 6 1.27 1.26 0.00 o
30 11 9 0.96 0.96 0.00 o
29 15 6 0.69 0.69 0.00 o
33 3 2 0.10 0.10 0.00 o
28 16 8 13.60 13.56 0.00 o
32 8 4 29.28 29.18 0.00 o
24 19 13 26.30 26.21 0.00 o
25 16 15 0.18 0.18 0.00 o
27 16 11 0.48 0.48 0.00 o
25 20 9 0.65 0.65 0.00 o
29 12 11 2.77 2.76 0.00 o
27 19 4 10.94 10.90 0.00 o
31 9 8 0.29 0.29 0.00 o
24 23 1 0.04 0.04 0.00 o
29 16 3 1.76 1.76 0.00 o
31 12 1 37.24 37.11 0.00 o
32 9 1 0.03 0.03 0.00 o
33 4 1 5.62 5.60 0.00 o
30 12 8 0.03 0.03 0.00 o
0 28 18 218.30 217.59 0.00 o
25 17 14 0.13 0.13 0.00 o
29 13 10 0.90 0.90 0.00 o
25 22 1 0.00 0.00 0.00 o
31 10 7 0.84 0.84 0.00 o
22 22 12 1.61 1.61 0.00 o
26 20 6 0.26 0.25 0.00 o
30 14 4 0.55 0.55 0.00 o
28 18 2 9.85 9.83 0.00 o
23 21 12 0.06 0.06 0.00 o
24 23 3 1.51 1.51 0.00 o
31 12 3 2.48 2.47 0.00 o
32 9 3 2.44 2.43 0.00 o
33 4 3 2.05 2.04 0.00 o
0 33 5 1.20 1.20 0.00 o
25 18 13 5.18 5.18 0.00 o
26 19 9 15.69 15.68 0.00 o
27 17 10 0.00 0.00 0.00 o
29 14 9 1.73 1.73 0.00 o
25 22 3 1.02 1.02 0.00 o
26 21 1 0.43 0.43 0.00 o
30 13 7 26.01 26.01 0.00 o
31 11 6 31.41 31.41 0.00 o
33 5 2 6.20 6.20 0.00 o
24 20 12 0.11 0.11 0.00 o
20 19 19 2.95 2.95 0.00 o
23 23 8 4.56 4.56 0.00 o
28 13 13 250.55 250.37 0.00 o
28 17 7 0.16 0.16 0.00 o
29 16 5 1.60 1.60 0.00 o
32 7 7 10.50 10.49 0.00 o
20 20 18 7.76 7.75 0.00 o
24 22 8 0.12 0.12 0.00 o
28 14 12 39.92 39.87 0.00 o
28 18 4 8.45 8.44 0.00 o
32 8 6 0.17 0.17 0.00 o
0 32 10 0.09 0.09 0.00 o
21 19 18 0.00 0.00 0.00 o
26 15 15 1.06 1.06 0.00 o
27 19 6 5.10 5.09 0.00 o
26 21 3 8.54 8.53 0.00 o
30 15 1 1.10 1.10 0.00 o
33 6 1 0.02 0.02 0.00 o
26 16 14 2.68 2.67 0.00 o
32 10 2 1.13 1.13 0.00 o
21 20 17 4.12 4.11 0.00 o
25 19 12 0.66 0.66 0.00 o
24 23 5 1.79 1.79 0.00 o
25 21 8 4.04 4.03 0.00 o
28 15 11 0.02 0.02 0.00 o
29 15 8 1.29 1.29 0.00 o
31 12 5 0.04 0.03 0.00 o
27 20 1 15.93 15.92 0.00 o
32 9 5 36.37 36.35 0.00 o
0 29 17 15.06 15.05 0.00 o
0 31 13 227.73 227.57 0.00 o
33 5 4 8.08 8.08 0.00 o
22 18 18 4.93 4.93 0.00 o
30 14 6 0.18 0.18 0.00 o
22 19 17 0.97 0.97 0.00 o
26 17 13 0.02 0.02 0.00 o
23 22 11 0.43 0.43 0.00 o
27 18 9 32.90 32.98 0.00 o
25 22 5 4.67 4.69 0.00 o
30 15 3 2.11 2.12 0.00 o
29 17 2 1.05 1.05 0.00 o
33 6 3 0.37 0.37 0.00 o
31 13 2 0.46 0.46 0.00 o
21 21 16 2.19 2.20 0.00 o
24 21 11 6.81 6.87 0.00 o
27 20 3 15.42 15.54 0.00 o
0 33 7 0.28 0.29 0.00 o
22 20 16 0.06 0.06 0.00 o
26 20 8 0.04 0.04 0.00 o
28 16 10 0.59 0.59 0.00 o
32 10 4 13.33 13.47 0.00 o
23 18 17 0.27 0.27 0.00 o
26 21 5 0.74 0.75 0.00 o
30 11 11 7.94 8.05 0.00 o
31 10 9 0.97 0.99 0.00 o
33 7 2 1.29 1.31 0.00 o
26 18 12 1.37 1.39 0.00 o
30 12 10 4.71 4.78 0.00 o
28 18 6 1.31 1.33 0.00 o
23 19 16 1.56 1.59 0.00 o
25 20 11 3.50 3.56 0.00 o
29 16 7 1.55 1.57 0.00 o
29 17 4 2.23 2.27 0.00 o
31 11 8 0.32 0.33 0.00 o
31 13 4 0.59 0.60 0.00 o
28 19 1 0.05 0.05 0.00 o
32 11 1 4.00 4.07 0.00 o
22 21 15 7.02 7.14 0.00 o
27 15 14 4.65 4.74 0.00 o
30 13 9 3.22 3.28 0.00 o
30 15 5 3.51 3.58 0.00 o
33 6 5 0.16 0.16 0.00 o
0 24 24 0.27 0.27 0.00 o
32 8 8 5.15 5.24 0.00 o
24 17 17 1.64 1.67 0.00 o
23 20 15 0.15 0.15 0.00 o
27 16 13 1.99 2.03 0.00 o
24 23 7 12.64 12.85 0.00 o
27 19 8 2.37 2.41 0.00 o
28 17 9 2.47 2.51 0.00 o
29 13 12 79.90 81.21 0.00 o
27 20 5 2.85 2.89 0.00 o
32 9 7 4.05 4.12 0.00 o
31 12 7 25.05 25.46 0.00 o
28 19 3 1.01 1.02 0.00 o
32 11 3 5.55 5.64 0.00 o
33 7 4 3.37 3.42 0.00 o
0 25 23 0.02 0.02 0.00 o
33 8 1 0.03 0.03 0.00 o
24 18 16 9.63 9.77 0.00 o
24 24 2 3.29 3.34 0.00 o
0 30 16 0.00 0.00 0.00 o
0 0 34 0.17 0.17 0.00 o
23 23 10 15.47 15.70 0.00 o
26 19 11 13.87 14.07 0.00 o
29 14 11 45.04 45.70 0.00 o
25 22 7 0.28 0.28 0.00 o
25 23 2 0.38 0.39 0.00 o
31 14 1 123.58 125.39 0.00 o
34 1 1 1.61 1.63 0.00 o
24 22 10 8.13 8.24 0.00 o
30 14 8 10.72 10.88 0.00 o
0 26 22 2.24 2.27 0.00 o
30 16 2 4.99 5.06 0.00 o
32 10 6 14.63 14.84 0.00 o
0 34 2 2.25 2.28 0.00 o
24 19 15 3.13 3.18 0.00 o
27 17 12 7.34 7.45 0.00 o
33 8 3 1.82 1.85 0.00 o
22 22 14 0.01 0.01 0.00 o
26 22 2 0.01 0.01 0.00 o
34 2 2 0.01 0.01 0.00 o
23 21 14 5.24 5.32 0.00 o
25 21 10 8.66 8.80 0.00 o
29 15 10 0.04 0.04 0.00 o
26 21 7 0.86 0.87 0.00 o
29 17 6 0.18 0.19 0.00 o
31 13 6 4.95 5.04 0.00 o
29 18 1 1.51 1.53 0.00 o
31 14 3 1.45 1.47 0.00 o
34 3 1 2.02 2.05 0.00 o
24 24 4 0.16 0.16 0.00 o
0 32 12 0.65 0.66 0.00 o
25 17 16 0.18 0.18 0.00 o
25 23 4 2.05 2.09 0.00 o
28 19 5 0.01 0.01 0.00 o
32 11 5 0.33 0.33 0.00 o
0 27 21 0.00 0.00 0.00 o
0 33 9 0.00 0.00 0.00 o
24 20 14 5.49 5.60 0.00 o
28 18 8 14.39 14.67 0.00 o
30 16 4 4.66 4.75 0.00 o
32 12 2 19.87 20.27 0.00 o
0 34 4 0.77 0.79 0.00 o
25 18 15 6.68 6.82 0.00 o
27 18 11 6.87 7.01 0.00 o
30 15 7 0.11 0.11 0.00 o
27 21 2 29.12 29.71 0.00 o
29 18 3 0.78 0.79 0.00 o
33 7 6 0.37 0.37 0.00 o
33 9 2 0.99 1.01 0.00 o
34 3 3 0.88 0.90 0.00 o
26 20 10 16.18 16.52 0.00 o
28 14 14 38.27 39.05 0.00 o
26 22 4 5.64 5.76 0.00 o
34 4 2 16.10 16.43 0.00 o
28 15 13 0.65 0.67 0.00 o
29 16 9 0.00 0.00 0.00 o
27 20 7 0.00 0.00 0.00 o
33 8 5 3.30 3.36 0.00 o
23 22 13 0.60 0.61 0.00 o
25 19 14 4.34 4.42 0.00 o
31 11 10 2.13 2.16 0.00 o
31 14 5 0.42 0.42 0.00 o
34 5 1 0.05 0.06 0.00 o
28 16 12 0.11 0.11 0.00 o
32 12 4 0.15 0.15 0.00 o
0 28 20 32.64 33.12 0.00 o
24 21 13 0.07 0.07 0.00 o
24 23 9 0.46 0.46 0.00 o
27 21 4 2.05 2.07 0.00 o
32 9 9 0.73 0.73 0.00 o
31 12 9 0.29 0.29 0.00 o
0 31 15 7.61 7.70 0.00 o
33 9 4 0.05 0.05 0.00 o
26 16 16 0.03 0.03 0.00 o
24 24 6 0.78 0.79 0.00 o
30 12 12 6.29 6.35 0.00 o
28 20 2 0.72 0.73 0.00 o
32 10 8 0.31 0.31 0.00 o
34 4 4 0.27 0.28 0.00 o
26 17 15 1.36 1.37 0.00 o
25 22 9 1.63 1.64 0.00 o
27 19 10 0.97 0.98 0.00 o
30 13 11 133.11 133.86 0.00 o
29 18 5 5.31 5.34 0.00 o
25 23 6 2.76 2.78 0.00 o
31 15 2 7.86 7.91 0.00 o
30 17 1 0.12 0.12 0.00 o
33 10 1 0.18 0.18 0.00 o
34 5 3 18.23 18.34 0.00 o
30 16 6 0.96 0.96 0.00 o
0 34 6 0.19 0.19 0.00 o
25 20 13 41.15 41.15 0.00 o
28 17 11 6.37 6.36 0.00 o
29 17 8 0.14 0.14 0.00 o
28 19 7 0.89 0.89 0.00 o
31 13 8 48.67 48.66 0.00 o
32 11 7 13.19 13.18 0.00 o
32 13 1 72.45 72.44 0.00 o
26 18 14 0.92 0.92 0.00 o
30 14 10 27.88 27.82 0.00 o
26 22 6 0.39 0.39 0.00 o
34 6 2 1.55 1.55 0.00 o
26 21 9 0.32 0.31 0.00 o
30 17 3 6.07 6.05 0.00 o
33 10 3 1.21 1.21 0.00 o
20 20 20 0.48 0.48 0.00 o
28 20 4 1.48 1.47 0.00 o
21 20 19 1.33 1.33 0.00 o
23 23 12 0.00 0.00 0.00 o
31 15 4 0.66 0.66 0.00 o
25 24 1 0.05 0.05 0.00 o
32 13 3 1.83 1.82 0.00 o
0 29 19 11.48 11.40 0.00 o
33 8 7 0.02 0.02 0.00 o
24 22 12 5.18 5.14 0.00 o
32 12 6 0.02 0.02 0.00 o
21 21 18 3.60 3.57 0.00 o
22 19 19 0.55 0.54 0.00 o
26 19 13 1.05 1.04 0.00 o
29 14 13 0.64 0.64 0.00 o
30 15 9 0.19 0.19 0.00 o
27 21 6 8.29 8.22 0.00 o
29 19 2 0.30 0.30 0.00 o
31 14 7 2.32 2.30 0.00 o
26 23 1 0.33 0.32 0.00 o
33 9 6 0.03 0.03 0.00 o
34 7 1 1.95 1.93 0.00 o
34 5 5 3.34 3.31 0.00 o
22 20 18 1.15 1.14 0.00 o
28 18 10 8.81 8.73 0.00 o
34 6 4 7.01 6.95 0.00 o
27 16 15 1.46 1.44 0.00 o
29 15 12 0.00 0.00 0.00 o
27 20 9 31.96 31.66 0.00 o
25 21 12 0.05 0.05 0.00 o
25 24 3 0.31 0.31 0.00 o
0 33 11 1.14 1.13 0.00 o
22 21 17 0.44 0.43 0.00 o
23 19 18 1.18 1.17 0.00 o
27 17 14 2.75 2.72 0.00 o
29 18 7 1.86 1.84 0.00 o
30 17 5 1.31 1.29 0.00 o
27 22 1 0.30 0.30 0.00 o
26 23 3 15.73 15.56 0.00 o
33 10 5 1.02 1.01 0.00 o
33 11 2 0.14 0.14 0.00 o
34 7 3 0.20 0.20 0.00 o
24 24 8 0.16 0.16 0.00 o
23 20 17 1.32 1.30 0.00 o
29 16 11 7.44 7.36 0.00 o
25 23 8 2.34 2.31 0.00 o
29 19 4 0.17 0.17 0.00 o
32 13 5 7.95 7.86 0.00 o
31 16 1 5.36 5.30 0.00 o
26 20 12 24.31 24.03 0.00 o
30 16 8 8.89 8.79 0.00 o
28 20 6 9.98 9.86 0.00 o
0 32 14 171.84 169.85 0.00 o
0 34 8 0.25 0.25 0.00 o
27 18 13 0.07 0.07 0.00 o
31 15 6 0.03 0.03 0.00 o
27 22 3 30.81 30.46 0.00 o
24 18 18 10.95 10.84 0.00 o
22 22 16 0.09 0.09 0.00 o
26 22 8 6.10 6.03 0.00 o
32 10 10 0.46 0.46 0.00 o
0 30 18 0.00 0.00 0.00 o
32 14 2 0.08 0.08 0.00 o
34 8 2 0.22 0.22 0.00 o
24 19 17 8.08 8.00 0.00 o
23 21 16 1.79 1.78 0.00 o
24 23 11 3.84 3.80 0.00 o
28 19 9 1.90 1.88 0.00 o
31 12 11 79.57 78.80 0.00 o
32 11 9 7.45 7.38 0.00 o
25 24 5 7.86 7.78 0.00 o
31 16 3 31.75 31.44 0.00 o
28 21 1 7.71 7.63 0.00 o
33 11 4 0.68 0.68 0.00 o
0 35 1 1.00 0.99 0.00 o
30 18 2 4.02 3.98 0.00 o
34 6 6 0.63 0.62 0.00 o
25 22 11 7.73 7.67 0.00 o
29 17 10 0.38 0.38 0.00 o
26 23 5 1.07 1.06 0.00 o
31 13 10 376.28 373.42 0.00 o
34 7 5 7.95 7.89 0.00 o
35 2 1 1.90 1.88 0.00 o
24 20 16 3.97 3.94 0.00 o
32 12 8 4.15 4.13 0.00 o
27 19 12 1.93 1.92 0.00 o
28 15 15 2.12 2.11 0.00 o
27 21 8 0.96 0.95 0.00 o
28 21 3 3.52 3.50 0.00 o
33 9 8 10.87 10.81 0.00 o
33 12 1 0.07 0.07 0.00 o
0 35 3 1.95 1.94 0.00 o
28 16 14 1.56 1.56 0.00 o
32 14 4 0.05 0.05 0.00 o
34 8 4 0.20 0.20 0.00 o
25 18 17 6.22 6.19 0.00 o
23 22 15 6.84 6.80 0.00 o
26 21 11 0.16 0.16 0.00 o
30 13 13 3.38 3.36 0.00 o
31 14 9 135.43 134.74 0.00 o
29 19 6 3.73 3.71 0.00 o
27 22 5 2.52 2.51 0.00 o
30 17 7 3.86 3.84 0.00 o
33 10 7 0.41 0.41 0.00 o
34 9 1 4.70 4.68 0.00 o
35 3 2 4.37 4.35 0.00 o
30 14 12 0.00 0.00 0.00 o
30 18 4 14.71 14.63 0.00 o
24 21 15 2.91 2.89 0.00 o
25 19 16 5.07 5.04 0.00 o
28 17 13 0.48 0.47 0.00 o
32 13 7 0.19 0.19 0.00 o
31 16 5 0.88 0.87 0.00 o
33 12 3 1.74 1.74 0.00 o
29 20 1 0.31 0.31 0.00 o
35 4 1 4.41 4.39 0.00 o
29 18 9 3.51 3.48 0.00 o
30 15 11 0.12 0.12 0.00 o
33 11 6 0.41 0.41 0.00 o
34 9 3 0.08 0.08 0.00 o
28 20 8 0.32 0.32 0.00 o
25 20 15 0.27 0.27 0.00 o
27 20 11 0.05 0.05 0.00 o
28 21 5 4.46 4.43 0.00 o
31 15 8 40.59 40.29 0.00 o
25 24 7 1.78 1.76 0.00 o
29 20 3 10.74 10.66 0.00 o
32 15 1 17.33 17.19 0.00 o
0 25 25 21.06 20.90 0.00 o
0 31 17 0.01 0.01 0.00 o
35 4 3 0.00 0.00 0.00 o
0 35 5 3.83 3.80 0.00 o
28 18 12 0.01 0.01 0.00 o
24 24 10 3.25 3.22 0.00 o
0 26 24 0.94 0.93 0.00 o
26 17 17 2.87 2.84 0.00 o
23 23 14 6.81 6.75 0.00 o
25 23 10 0.01 0.01 0.00 o
26 23 7 0.10 0.10 0.00 o
25 25 2 2.59 2.57 0.00 o
31 17 2 0.24 0.24 0.00 o
34 7 7 0.91 0.90 0.00 o
35 5 2 0.00 0.00 0.00 o
26 18 16 3.48 3.45 0.00 o
24 22 14 13.54 13.43 0.00 o
30 16 10 1.37 1.36 0.00 o
32 14 6 0.16 0.16 0.00 o
26 24 2 7.19 7.12 0.00 o
34 8 6 6.92 6.87 0.00 o
0 34 10 0.83 0.82 0.00 o
33 12 5 0.14 0.14 0.00 o
0 27 23 1.75 1.74 0.00 o
32 15 3 0.31 0.30 0.00 o
0 33 13 0.04 0.04 0.00 o
26 22 10 1.13 1.12 0.00 o
30 18 6 0.34 0.34 0.00 o
34 10 2 0.23 0.23 0.00 o
26 19 15 0.01 0.01 0.00 o
29 15 14 23.06 22.88 0.00 o
25 21 14 8.51 8.44 0.00 o
27 22 7 0.06 0.06 0.00 o
27 23 2 3.30 3.27 0.00 o
30 19 1 0.03 0.03 0.00 o
34 9 5 0.15 0.15 0.00 o
33 13 2 2.04 2.02 0.00 o
35 6 1 2.56 2.54 0.00 o
29 16 13 16.64 16.53 0.00 o
29 19 8 3.70 3.67 0.00 o
28 19 11 2.52 2.50 0.00 o
32 11 11 14.80 14.69 0.00 o
29 20 5 3.48 3.45 0.00 o
31 16 7 45.50 45.19 0.00 o
25 25 4 5.65 5.61 0.00 o
31 17 4 18.50 18.37 0.00 o
35 5 4 0.21 0.21 0.00 o
32 12 10 31.96 31.75 0.00 o
26 24 4 24.75 24.59 0.00 o
0 28 22 3.98 3.96 0.00 o
27 21 10 0.24 0.24 0.00 o
30 17 9 0.10 0.10 0.00 o
33 10 9 1.77 1.76 0.00 o
30 19 3 0.70 0.69 0.00 o
35 6 3 0.06 0.06 0.00 o
26 20 14 0.00 0.00 0.00 o
28 22 2 0.04 0.04 0.00 o
34 10 4 3.37 3.35 0.00 o
27 17 16 29.30 29.13 0.00 o
24 23 13 0.10 0.10 0.00 o
29 17 12 0.45 0.44 0.00 o
31 13 12 0.03 0.03 0.00 o
27 23 4 31.80 31.61 0.00 o
28 21 7 2.99 2.97 0.00 o
32 13 9 95.31 94.73 0.00 o
32 15 5 0.25 0.25 0.00 o
33 11 8 0.21 0.21 0.00 o
33 13 4 0.11 0.11 0.00 o
0 35 7 0.22 0.22 0.00 o
25 22 13 1.34 1.33 0.00 o
27 18 15 1.85 1.83 0.00 o
31 14 11 0.11 0.11 0.00 o
34 11 1 7.30 7.25 0.00 o
35 7 2 0.52 0.52 0.00 o
0 32 16 0.01 0.01 0.00 o
21 21 20 0.26 0.26 0.00 o
25 24 9 4.58 4.53 0.00 o
33 12 7 1.57 1.55 0.00 o
0 29 21 5.96 5.90 0.00 o
22 20 20 0.01 0.01 0.00 o
28 20 10 1.93 1.91 0.00 o
32 14 8 160.01 158.02 0.00 o
28 22 4 7.31 7.22 0.00 o
32 16 2 22.95 22.67 0.00 o
34 8 8 3.30 3.26 0.00 o
22 21 19 0.00 0.00 0.00 o
27 19 14 1.00 0.99 0.00 o
26 21 13 24.32 23.96 0.00 o
29 18 11 0.68 0.67 0.00 o
26 23 9 10.10 9.95 0.00 o
30 19 5 0.05 0.05 0.00 o
31 15 10 0.00 0.00 0.00 o
25 25 6 5.48 5.40 0.00 o
29 21 2 0.09 0.09 0.00 o
31 17 6 15.86 15.62 0.00 o
31 18 1 1.91 1.88 0.00 o
33 14 1 12.71 12.52 0.00 o
34 9 7 4.77 4.70 0.00 o
35 6 5 0.62 0.61 0.00 o
34 11 3 2.57 2.53 0.00 o
30 18 8 0.69 0.67 0.00 o
26 24 6 2.29 2.25 0.00 o
23 20 19 0.87 0.86 0.00 o
29 20 7 0.14 0.13 0.00 o
35 7 4 1.47 1.44 0.00 o
35 8 1 0.83 0.82 0.00 o
22 22 18 2.56 2.51 0.00 o
30 14 14 3.49 3.41 0.00 o
34 10 6 0.20 0.19 0.00 o
23 21 18 0.82 0.80 0.00 o
27 22 9 0.32 0.32 0.00 o
27 23 6 6.49 6.33 0.00 o
30 15 13 2.06 2.02 0.00 o
33 13 6 1.35 1.32 0.00 o
31 18 3 4.23 4.13 0.00 o
33 14 3 0.12 0.12 0.00 o
24 24 12 7.68 7.49 0.00 o
28 16 16 4.13 4.03 0.00 o
32 16 4 0.98 0.96 0.00 o
0 0 36 82.30 80.23 0.00 o
24 19 19 0.14 0.14 0.00 o
27 20 13 5.69 5.54 0.00 o
28 17 15 1.61 1.56 0.00 o
25 23 12 0.21 0.21 0.00 o
32 15 7 28.12 27.39 0.00 o
31 16 9 0.36 0.35 0.00 o
29 21 4 2.86 2.79 0.00 o
35 8 3 10.77 10.49 0.00 o
36 1 1 27.48 26.77 0.00 o
24 20 18 22.75 22.17 0.00 o
30 16 12 0.13 0.13 0.00 o
0 30 20 13.31 12.97 0.00 o
0 34 12 3.72 3.63 0.00 o
0 36 2 8.37 8.15 0.00 o
23 22 17 6.10 5.95 0.00 o
29 19 10 0.12 0.11 0.00 o
34 11 5 2.09 2.04 0.00 o
26 25 1 5.85 5.70 0.00 o
26 22 12 17.99 17.57 0.00 o
28 18 14 10.17 9.93 0.00 o
28 22 6 2.14 2.09 0.00 o
30 20 2 1.20 1.18 0.00 o
34 12 2 1.97 1.92 0.00 o
36 2 2 0.05 0.04 0.00 o
24 21 17 0.57 0.56 0.00 o
28 21 9 1.90 1.86 0.00 o
27 24 1 6.36 6.22 0.00 o
36 3 1 1.11 1.08 0.00 o
0 35 9 3.97 3.89 0.00 o
25 19 18 4.56 4.49 0.00 o
30 17 11 0.05 0.05 0.00 o
30 19 7 15.68 15.45 0.00 o
33 11 10 0.60 0.59 0.00 o
31 18 5 41.51 40.92 0.00 o
26 25 3 19.83 19.55 0.00 o
33 14 5 1.74 1.71 0.00 o
35 7 6 2.35 2.31 0.00 o
35 9 2 0.00 0.00 0.00 o
32 12 12 0.58 0.58 0.00 o
0 36 4 0.31 0.30 0.00 o
25 20 17 0.39 0.38 0.00 o
27 21 12 7.46 7.42 0.00 o
23 23 16 0.04 0.04 0.00 o
28 19 13 0.90 0.89 0.00 o
31 17 8 0.86 0.85 0.00 o
32 13 11 0.51 0.51 0.00 o
33 12 9 5.34 5.31 0.00 o
25 25 8 0.69 0.69 0.00 o
27 24 3 0.02 0.02 0.00 o
32 17 1 1.02 1.02 0.00 o
28 23 1 1.58 1.57 0.00 o
0 33 15 5.71 5.68 0.00 o
35 8 5 4.16 4.13 0.00 o
36 3 3 1.66 1.65 0.00 o
24 22 16 0.41 0.41 0.00 o
26 24 8 4.05 4.05 0.00 o
32 16 6 30.10 30.09 0.00 o
30 20 4 0.00 0.00 0.00 o
34 12 4 4.02 4.02 0.00 o
36 4 2 0.08 0.08 0.00 o
29 21 6 4.58 4.60 0.00 o
34 9 9 0.23 0.23 0.00 o
33 15 2 1.44 1.45 0.00 o
32 14 10 30.43 30.72 0.00 o
34 10 8 6.87 6.94 0.00 o
25 21 16 0.93 0.95 0.00 o
29 20 9 0.17 0.17 0.00 o
29 16 15 2.87 2.91 0.00 o
25 24 11 4.42 4.48 0.00 o
27 23 8 2.88 2.93 0.00 o
33 13 8 31.53 31.99 0.00 o
28 23 3 11.57 11.74 0.00 o
32 17 3 10.19 10.34 0.00 o
35 9 4 0.84 0.85 0.00 o
0 31 19 0.65 0.66 0.00 o
36 5 1 3.74 3.79 0.00 o
26 18 18 47.12 48.01 0.00 o
30 18 10 1.24 1.26 0.00 o
26 19 17 1.53 1.57 0.00 o
26 23 11 0.15 0.15 0.00 o
29 17 14 1.36 1.39 0.00 o
31 14 13 11.82 12.09 0.00 o
26 25 5 0.32 0.32 0.00 o
29 22 1 0.41 0.42 0.00 o
34 11 7 4.62 4.72 0.00 o
31 19 2 1.52 1.56 0.00 o
34 13 1 0.04 0.05 0.00 o
35 10 1 0.01 0.01 0.00 o
28 20 12 9.02 9.26 0.00 o
36 4 4 7.12 7.31 0.00 o
24 23 15 2.03 2.09 0.00 o
27 24 5 7.52 7.73 0.00 o
32 15 9 0.00 0.00 0.00 o
31 15 12 0.15 0.15 0.00 o
33 15 4 0.20 0.21 0.00 o
36 5 3 0.01 0.01 0.00 o
26 20 16 1.78 1.84 0.00 o
28 22 8 0.10 0.10 0.00 o
0 36 6 0.13 0.13 0.00 o
25 22 15 1.09 1.13 0.00 o
27 22 11 1.87 1.93 0.00 o
29 18 13 0.33 0.34 0.00 o
31 18 7 0.00 0.00 0.00 o
29 22 3 0.09 0.10 0.00 o
33 14 7 13.85 14.28 0.00 o
35 10 3 7.57 7.81 0.00 o
34 13 3 8.15 8.40 0.00 o
30 20 6 0.18 0.18 0.00 o
34 12 6 0.27 0.28 0.00 o
36 6 2 4.18 4.31 0.00 o
31 16 11 2.54 2.62 0.00 o
31 19 4 12.97 13.37 0.00 o
28 23 5 3.80 3.92 0.00 o
32 17 5 19.48 20.08 0.00 o
35 8 7 6.79 7.00 0.00 o
27 18 17 86.52 89.03 0.00 o
26 21 15 4.66 4.80 0.00 o
30 19 9 0.15 0.15 0.00 o
30 21 1 4.35 4.47 0.00 o
35 9 6 7.13 7.34 0.00 o
32 16 8 0.13 0.14 0.00 o
27 19 16 9.31 9.55 0.00 o
29 19 12 6.54 6.71 0.00 o
28 21 11 5.07 5.20 0.00 o
29 21 8 1.86 1.91 0.00 o
33 16 1 0.01 0.01 0.00 o
36 5 5 8.93 9.16 0.00 o
0 35 11 7.96 8.17 0.00 o
36 7 1 5.57 5.72 0.00 o
24 24 14 0.05 0.05 0.00 o
0 32 18 7.03 7.19 0.00 o
36 6 4 0.43 0.44 0.00 o
25 23 14 0.07 0.07 0.00 o
30 15 15 3.26 3.33 0.00 o
25 25 10 4.32 4.42 0.00 o
31 17 10 0.86 0.88 0.00 o
29 22 5 2.39 2.44 0.00 o
26 25 7 1.86 1.90 0.00 o
30 21 3 2.73 2.79 0.00 o
33 15 6 1.21 1.24 0.00 o
35 10 5 0.15 0.15 0.00 o
34 13 5 4.81 4.91 0.00 o
35 11 2 0.18 0.18 0.00 o
30 16 14 9.77 9.96 0.00 o
26 24 10 2.20 2.24 0.00 o
32 18 2 1.17 1.19 0.00 o
0 26 26 22.89 23.32 0.00 o
0 34 14 0.71 0.72 0.00 o
27 20 15 22.76 23.13 0.00 o
27 24 7 3.73 3.79 0.00 o
33 12 11 0.00 0.00 0.00 o
33 16 3 0.08 0.08 0.00 o
0 27 25 6.04 6.14 0.00 o
36 7 3 3.19 3.24 0.00 o
26 22 14 0.01 0.01 0.00 o
34 10 10 0.23 0.23 0.00 o
26 26 2 6.30 6.38 0.00 o
34 14 2 9.76 9.90 0.00 o
27 23 10 29.15 29.49 0.00 o
30 17 13 1.42 1.43 0.00 o
33 13 10 2.49 2.52 0.00 o
31 19 6 4.06 4.11 0.00 o
34 11 9 0.15 0.15 0.00 o
27 25 2 4.26 4.30 0.00 o
0 28 24 1.05 1.06 0.00 o
0 36 8 18.10 18.27 0.00 o
28 17 17 0.01 0.01 0.00 o
32 13 13 0.93 0.94 0.00 o
29 20 11 0.59 0.60 0.00 o
32 17 7 7.48 7.53 0.00 o
28 23 7 2.70 2.72 0.00 o
31 20 1 0.09 0.09 0.00 o
35 11 4 5.69 5.73 0.00 o
28 18 16 6.36 6.39 0.00 o
30 20 8 0.46 0.46 0.00 o
32 14 12 0.05 0.05 0.00 o
34 12 8 1.64 1.65 0.00 o
32 18 4 52.54 52.76 0.00 o
28 24 2 0.08 0.08 0.00 o
36 8 2 6.24 6.27 0.00 o
22 21 21 0.45 0.45 0.00 o
27 21 14 58.42 58.55 0.00 o
31 18 9 5.05 5.06 0.00 o
30 21 5 0.07 0.07 0.00 o
33 14 9 1.68 1.68 0.00 o
22 22 20 0.07 0.07 0.00 o
28 22 10 6.36 6.36 0.00 o
30 18 12 5.84 5.85 0.00 o
26 26 4 4.98 4.98 0.00 o
34 14 4 0.23 0.23 0.00 o
36 6 6 0.07 0.07 0.00 o
23 21 20 5.96 5.95 0.00 o
28 19 15 0.71 0.71 0.00 o
25 24 13 13.21 13.20 0.00 o
32 15 11 0.24 0.24 0.00 o
27 25 4 8.79 8.77 0.00 o
33 16 5 2.26 2.26 0.00 o
0 29 23 5.59 5.58 0.00 o
31 20 3 13.50 13.49 0.00 o
35 9 8 0.53 0.53 0.00 o
36 7 5 0.01 0.01 0.00 o
35 12 1 2.03 2.03 0.00 o
0 37 1 18.36 18.33 0.00 o
23 22 19 0.39 0.39 0.00 o
26 23 13 22.65 22.56 0.00 o
29 22 7 0.57 0.57 0.00 o
34 13 7 18.06 17.98 0.00 o
29 23 2 0.17 0.17 0.00 o
35 10 7 2.73 2.72 0.00 o
37 2 1 7.96 7.92 0.00 o
24 20 20 0.59 0.59 0.00 o
28 24 4 4.36 4.33 0.00 o
36 8 4 0.05 0.05 0.00 o
24 21 19 0.03 0.03 0.00 o
33 15 8 2.72 2.70 0.00 o
35 12 3 1.53 1.52 0.00 o
0 33 17 0.00 0.00 0.00 o
36 9 1 172.23 171.16 0.00 o
0 37 3 2.12 2.11 0.00 o
28 20 14 0.13 0.12 0.00 o
32 16 10 1.27 1.27 0.00 o
23 23 18 10.03 9.95 0.00 o
30 19 11 0.99 0.98 0.00 o
29 21 10 5.03 4.99 0.00 o
27 22 13 23.13 22.95 0.00 o
31 15 14 2.72 2.70 0.00 o
26 25 9 6.32 6.27 0.00 o
35 11 6 4.11 4.07 0.00 o
33 17 2 0.84 0.83 0.00 o
34 15 1 0.87 0.87 0.00 o
37 3 2 0.04 0.04 0.00 o
24 22 18 3.64 3.61 0.00 o
32 18 6 4.44 4.40 0.00 o
0 30 22 21.83 21.65 0.00 o
29 17 16 2.09 2.07 0.00 o
25 20 19 0.35 0.35 0.00 o
27 24 9 8.04 7.96 0.00 o
31 16 13 4.29 4.25 0.00 o
31 19 8 0.05 0.05 0.00 o
31 20 5 0.83 0.82 0.00 o
29 23 4 0.68 0.68 0.00 o
32 19 1 0.30 0.30 0.00 o
36 9 3 8.74 8.66 0.00 o
37 4 1 2.24 2.22 0.00 o
26 26 6 2.98 2.95 0.00 o
34 14 6 11.20 11.09 0.00 o
30 22 2 0.73 0.72 0.00 o
25 21 18 1.10 1.09 0.00 o
29 18 15 0.09 0.09 0.00 o
30 21 7 0.69 0.68 0.00 o
27 25 6 6.46 6.39 0.00 o
34 15 3 1.92 1.90 0.00 o
24 23 17 0.67 0.66 0.00 o
25 25 12 0.30 0.30 0.00 o
28 21 13 8.32 8.22 0.00 o
32 17 9 2.51 2.48 0.00 o
31 17 12 1.78 1.76 0.00 o
28 23 9 0.00 0.00 0.00 o
33 16 7 0.15 0.15 0.00 o
33 17 4 0.44 0.43 0.00 o
32 19 3 1.61 1.60 0.00 o
35 12 5 18.58 18.36 0.00 o
36 7 7 0.48 0.47 0.00 o
0 35 13 1.99 1.96 0.00 o
37 4 3 1.43 1.42 0.00 o
0 37 5 1.49 1.47 0.00 o
26 24 12 0.75 0.74 0.00 o
28 24 6 0.33 0.33 0.00 o
36 8 6 1.30 1.28 0.00 o
0 36 10 80.74 79.76 0.00 o
25 22 17 0.57 0.56 0.00 o
26 19 19 0.01 0.01 0.00 o
29 19 14 1.75 1.73 0.00 o
34 11 11 0.97 0.95 0.00 o
35 13 2 4.91 4.85 0.00 o
37 5 2 0.55 0.54 0.00 o
26 20 18 7.21 7.13 0.00 o
30 20 10 9.08 8.97 0.00 o
30 22 4 0.84 0.83 0.00 o
34 12 10 0.27 0.26 0.00 o
36 10 2 4.23 4.18 0.00 o
27 23 12 73.85 73.01 0.00 o
33 13 12 4.28 4.23 0.00 o
36 9 5 2.14 2.11 0.00 o
0 31 21 14.42 14.25 0.00 o
26 21 17 0.12 0.12 0.00 o
29 22 9 0.00 0.00 0.00 o
31 18 11 5.06 5.01 0.00 o
33 14 11 5.06 5.01 0.00 o
29 23 6 0.59 0.59 0.00 o
34 13 9 0.52 0.52 0.00 o
27 26 1 20.85 20.66 0.00 o
31 21 2 0.80 0.79 0.00 o
35 10 9 4.37 4.33 0.00 o
34 15 5 7.72 7.66 0.00 o
37 6 1 6.78 6.72 0.00 o
24 24 16 1.48 1.47 0.00 o
29 20 13 3.31 3.29 0.00 o
25 23 16 14.82 14.75 0.00 o
32 19 5 6.04 6.01 0.00 o
31 20 7 22.25 22.14 0.00 o
35 11 8 1.19 1.18 0.00 o
28 25 1 1.14 1.14 0.00 o
35 13 4 0.13 0.13 0.00 o
37 5 4 2.46 2.44 0.00 o
30 16 16 5.92 5.91 0.00 o
28 22 12 20.07 20.02 0.00 o
32 18 8 2.46 2.46 0.00 o
0 34 16 0.00 0.00 0.00 o
36 10 4 2.64 2.63 0.00 o
27 19 18 23.76 23.74 0.00 o
30 17 15 1.05 1.05 0.00 o
33 15 10 0.30 0.30 0.00 o
33 17 6 0.05 0.05 0.00 o
27 26 3 0.00 0.00 0.00 o
33 18 1 0.35 0.35 0.00 o
37 6 3 0.03 0.03 0.00 o
26 22 16 0.06 0.06 0.00 o
32 14 14 3.55 3.55 0.00 o
26 26 8 0.10 0.10 0.00 o
34 14 8 0.14 0.14 0.00 o
34 16 2 0.01 0.01 0.00 o
27 20 17 10.05 10.09 0.00 o
27 25 8 3.13 3.14 0.00 o
32 15 13 1.73 1.74 0.00 o
35 12 7 6.01 6.03 0.00 o
31 21 4 3.14 3.15 0.00 o
29 24 1 3.66 3.67 0.00 o
28 25 3 16.90 16.96 0.00 o
36 11 1 12.30 12.34 0.00 o
0 37 7 0.02 0.02 0.00 o
30 18 14 0.85 0.85 0.00 o
30 22 6 3.71 3.73 0.00 o
26 25 11 0.60 0.60 0.00 o
30 21 9 0.08 0.08 0.00 o
31 19 10 9.99 10.06 0.00 o
33 18 3 0.03 0.03 0.00 o
35 14 1 0.18 0.18 0.00 o
37 7 2 0.56 0.56 0.00 o
32 16 12 0.03 0.03 0.00 o
28 24 8 6.57 6.63 0.00 o
36 8 8 0.09 0.09 0.00 o
0 32 20 0.02 0.02 0.00 o
27 21 16 20.43 20.63 0.00 o
25 24 15 0.01 0.01 0.00 o
27 24 11 28.64 28.92 0.00 o
29 21 12 0.02 0.02 0.00 o
33 16 9 2.37 2.39 0.00 o
29 24 3 1.08 1.09 0.00 o
36 9 7 0.42 0.43 0.00 o
36 11 3 3.21 3.24 0.00 o
32 20 2 0.49 0.50 0.00 o
34 16 4 1.97 1.99 0.00 o
30 19 13 0.99 1.00 0.00 o
26 23 15 32.98 33.39 0.00 o
27 26 5 0.20 0.20 0.00 o
34 15 7 3.81 3.85 0.00 o
35 13 6 15.50 15.69 0.00 o
30 23 1 10.25 10.38 0.00 o
35 14 3 4.49 4.55 0.00 o
37 6 5 0.56 0.57 0.00 o
28 18 18 48.85 49.50 0.00 o
36 10 6 1.30 1.32 0.00 o
28 19 17 0.42 0.43 0.00 o
29 23 8 4.86 4.93 0.00 o
28 23 11 2.33 2.36 0.00 o
32 17 11 1.06 1.08 0.00 o
28 25 5 0.20 0.20 0.00 o
32 19 7 12.92 13.11 0.00 o
37 7 4 4.17 4.23 0.00 o
37 8 1 2.13 2.16 0.00 o
27 22 15 64.86 65.85 0.00 o
31 21 6 0.36 0.37 0.00 o
30 23 3 0.33 0.33 0.00 o
33 18 5 0.81 0.83 0.00 o
28 20 16 5.19 5.27 0.00 o
32 20 4 2.82 2.87 0.00 o
0 36 12 0.32 0.32 0.00 o
31 16 15 12.11 12.29 0.00 o
33 17 8 0.01 0.01 0.00 o
31 20 9 7.21 7.32 0.00 o
29 24 5 0.20 0.21 0.00 o
36 11 5 0.15 0.15 0.00 o
37 8 3 1.49 1.52 0.00 o
30 20 12 6.82 6.92 0.00 o
34 12 12 0.10 0.10 0.00 o
36 12 2 8.83 8.96 0.00 o
0 0 38 3.79 3.84 0.00 o
29 22 11 26.86 27.22 0.00 o
25 25 14 20.79 21.07 0.00 o
31 17 14 34.74 35.22 0.00 o
34 13 11 22.35 22.66 0.00 o
35 14 5 23.07 23.38 0.00 o
35 11 10 0.77 0.78 0.00 o
31 22 1 0.11 0.11 0.00 o
34 17 1 8.04 8.15 0.00 o
38 1 1 8.19 8.30 0.00 o
26 24 14 64.77 65.58 0.00 o
32 18 10 0.76 0.77 0.00 o
30 22 8 4.81 4.87 0.00 o
34 16 6 0.15 0.15 0.00 o
0 38 2 1.66 1.68 0.00 o
28 21 15 1.99 2.01 0.00 o
35 12 9 1.53 1.55 0.00 o
0 33 19 0.38 0.38 0.00 o
0 35 15 2.15 2.17 0.00 o
0 37 9 3.73 3.77 0.00 o
22 22 22 0.07 0.07 0.00 o
26 26 10 0.01 0.01 0.00 o
34 14 10 0.51 0.51 0.00 o
38 2 2 0.00 0.00 0.00 o
23 22 21 0.72 0.72 0.00 o
27 23 14 91.60 92.22 0.00 o
29 18 17 0.06 0.06 0.00 o
27 25 10 3.80 3.83 0.00 o
27 26 7 3.16 3.19 0.00 o
31 18 13 49.04 49.37 0.00 o
33 14 13 0.00 0.00 0.00 o
30 23 5 0.25 0.25 0.00 o
33 19 2 3.55 3.58 0.00 o
34 17 3 0.80 0.81 0.00 o
31 22 3 0.02 0.02 0.00 o
35 15 2 0.52 0.53 0.00 o
37 9 2 3.54 3.57 0.00 o
37 7 6 1.81 1.82 0.00 o
38 3 1 0.97 0.97 0.00 o
36 12 4 10.35 10.39 0.00 o
24 21 21 0.03 0.03 0.00 o
23 23 20 0.87 0.88 0.00 o
29 19 16 0.24 0.24 0.00 o
33 15 12 2.36 2.37 0.00 o
28 25 7 6.66 6.67 0.00 o
35 13 8 1.57 1.57 0.00 o
36 9 9 91.54 91.78 0.00 o
0 27 27 24.14 24.20 0.00 o
37 8 5 0.45 0.45 0.00 o
24 22 20 1.13 1.13 0.00 o
28 24 10 0.10 0.10 0.00 o
32 20 6 8.69 8.69 0.00 o
36 10 8 1.19 1.19 0.00 o
0 28 26 36.74 36.76 0.00 o
0 38 4 8.00 8.01 0.00 o
30 21 11 0.59 0.59 0.00 o
34 15 9 0.49 0.49 0.00 o
33 18 7 4.23 4.22 0.00 o
27 27 2 60.60 60.55 0.00 o
38 3 3 0.57 0.57 0.00 o
28 22 14 21.14 21.09 0.00 o
28 26 2 15.78 15.75 0.00 o
38 4 2 3.25 3.24 0.00 o
25 21 20 0.05 0.05 0.00 o
29 20 15 2.70 2.70 0.00 o
24 23 19 1.54 1.54 0.00 o
31 19 12 0.04 0.04 0.00 o
33 16 11 0.99 0.99 0.00 o
32 19 9 0.77 0.77 0.00 o
29 24 7 0.63 0.63 0.00 o
31 21 8 5.46 5.44 0.00 o
33 19 4 1.49 1.48 0.00 o
35 15 4 4.44 4.43 0.00 o
36 11 7 18.77 18.71 0.00 o
32 21 1 3.41 3.40 0.00 o
0 29 25 2.06 2.05 0.00 o
36 13 1 3.88 3.87 0.00 o
37 9 4 0.00 0.00 0.00 o
25 22 19 0.11 0.11 0.00 o
29 23 10 1.59 1.59 0.00 o
26 25 13 0.16 0.16 0.00 o
31 22 5 2.45 2.44 0.00 o
35 14 7 0.02 0.02 0.00 o
34 17 5 0.02 0.02 0.00 o
29 25 2 0.26 0.26 0.00 o
37 10 1 0.95 0.94 0.00 o
38 5 1 0.17 0.17 0.00 o
27 24 13 69.62 69.27 0.00 o
32 15 15 2.29 2.28 0.00 o
27 27 4 0.85 0.85 0.00 o
32 21 3 0.85 0.84 0.00 o
36 13 3 10.46 10.41 0.00 o
26 20 20 2.90 2.88 0.00 o
24 24 18 0.06 0.06 0.00 o
32 16 14 0.17 0.17 0.00 o
34 16 8 0.51 0.51 0.00 o
36 12 6 0.01 0.01 0.00 o
0 30 24 0.07 0.07 0.00 o
28 26 4 1.93 1.92 0.00 o
38 4 4 4.85 4.83 0.00 o
30 17 17 0.45 0.44 0.00 o
25 23 18 0.31 0.31 0.00 o
29 21 14 5.35 5.32 0.00 o
26 21 19 0.74 0.74 0.00 o
30 23 7 1.49 1.48 0.00 o
33 17 10 0.34 0.34 0.00 o
37 10 3 0.19 0.19 0.00 o
38 5 3 0.39 0.38 0.00 o
30 18 16 16.39 16.30 0.00 o
30 24 2 1.23 1.22 0.00 o
0 34 18 4.01 3.99 0.00 o
0 38 6 1.00 1.00 0.00 o
31 20 11 5.27 5.24 0.00 o
28 23 13 2.46 2.44 0.00 o
32 17 13 8.49 8.45 0.00 o
29 25 4 10.91 10.85 0.00 o
35 16 1 17.37 17.27 0.00 o
37 8 7 0.14 0.14 0.00 o
26 22 18 1.09 1.08 0.00 o
30 22 10 24.29 24.15 0.00 o
34 18 2 1.48 1.47 0.00 o
38 6 2 1.19 1.18 0.00 o
27 26 9 35.16 34.96 0.00 o
30 19 15 0.02 0.02 0.00 o
33 19 6 2.04 2.03 0.00 o
35 15 6 0.07 0.07 0.00 o
37 9 6 1.88 1.87 0.00 o
32 20 8 8.45 8.40 0.00 o
27 20 19 0.78 0.77 0.00 o
25 24 17 1.99 1.98 0.00 o
28 25 9 5.72 5.69 0.00 o
35 12 11 0.72 0.72 0.00 o
32 21 5 1.38 1.37 0.00 o
33 20 1 1.68 1.67 0.00 o
36 13 5 1.84 1.83 0.00 o
35 16 3 0.01 0.01 0.00 o
0 31 23 22.53 22.41 0.00 o
0 37 11 1.91 1.90 0.00 o
32 18 12 0.73 0.72 0.00 o
30 24 4 0.96 0.95 0.00 o
0 36 14 10.33 10.28 0.00 o
27 21 18 0.37 0.37 0.00 o
26 23 17 0.07 0.07 0.00 o
29 22 13 0.63 0.63 0.00 o
33 18 9 0.00 0.00 0.00 o
27 27 6 1.58 1.58 0.00 o
31 22 7 0.20 0.20 0.00 o
35 13 10 0.90 0.90 0.00 o
34 13 13 0.00 0.00 0.00 o
34 17 7 0.12 0.12 0.00 o
31 23 2 3.12 3.11 0.00 o
37 10 5 0.86 0.86 0.00 o
37 11 2 0.63 0.63 0.00 o
38 5 5 0.00 0.00 0.00 o
38 7 1 0.05 0.05 0.00 o
26 26 12 3.15 3.14 0.00 o
30 20 14 1.00 1.00 0.00 o
34 14 12 3.58 3.57 0.00 o
28 26 6 7.39 7.37 0.00 o
34 18 4 0.00 0.00 0.00 o
36 10 10 0.51 0.51 0.00 o
36 14 2 0.82 0.82 0.00 o
38 6 4 1.65 1.64 0.00 o
27 25 12 43.43 43.33 0.00 o
29 24 9 0.81 0.81 0.00 o
36 11 9 3.01 3.01 0.00 o
33 20 3 0.23 0.23 0.00 o
27 22 17 0.01 0.01 0.00 o
29 25 6 1.22 1.22 0.00 o
31 21 10 5.60 5.60 0.00 o
34 15 11 0.40 0.40 0.00 o
35 14 9 0.22 0.22 0.00 o
38 7 3 0.37 0.37 0.00 o
28 24 12 0.39 0.39 0.00 o
36 12 8 0.29 0.29 0.00 o
28 19 19 0.00 0.00 0.00 o
31 17 16 0.32 0.32 0.00 o
25 25 16 1.67 1.67 0.00 o
32 19 11 1.78 1.79 0.00 o
31 23 4 0.01 0.01 0.00 o
35 16 5 1.42 1.42 0.00 o
37 11 4 0.21 0.22 0.00 o
28 20 18 0.03 0.03 0.00 o
26 24 16 22.72 22.79 0.00 o
36 14 4 3.15 3.16 0.00 o
0 32 22 2.70 2.71 0.00 o
0 38 8 0.01 0.01 0.00 o
30 23 9 25.41 25.53 0.00 o
30 21 13 0.06 0.06 0.00 o
31 18 15 1.22 1.23 0.00 o
33 15 14 0.31 0.31 0.00 o
30 24 6 0.13 0.13 0.00 o
34 16 10 1.83 1.84 0.00 o
32 22 2 1.02 1.02 0.00 o
38 8 2 0.01 0.01 0.00 o
28 21 17 3.96 3.99 0.00 o
27 23 16 11.11 11.18 0.00 o
29 23 12 0.59 0.59 0.00 o
33 16 13 0.10 0.11 0.00 o
33 19 8 0.53 0.53 0.00 o
32 21 7 0.36 0.36 0.00 o
33 20 5 0.47 0.48 0.00 o
35 15 8 2.06 2.07 0.00 o
37 9 8 1.94 1.95 0.00 o
36 13 7 0.54 0.54 0.00 o
28 27 1 0.42 0.43 0.00 o
0 35 17 0.52 0.52 0.00 o
37 12 1 0.05 0.05 0.00 o
34 18 6 1.23 1.23 0.00 o
38 6 6 1.54 1.55 0.00 o
31 19 14 0.21 0.21 0.00 o
29 26 1 5.68 5.72 0.00 o
34 19 1 4.97 5.01 0.00 o
35 17 2 5.66 5.70 0.00 o
37 10 7 2.15 2.16 0.00 o
38 7 5 0.93 0.94 0.00 o
33 17 12 2.27 2.29 0.00 o
27 27 8 2.92 2.95 0.00 o
28 27 3 1.12 1.13 0.00 o
36 15 1 0.84 0.85 0.00 o
37 12 3 3.15 3.18 0.00 o
0 39 1 4.82 4.86 0.00 o
28 22 16 0.31 0.31 0.00 o
32 20 10 1.43 1.44 0.00 o
28 26 8 1.17 1.18 0.00 o
32 22 4 4.64 4.68 0.00 o
38 8 4 0.03 0.03 0.00 o
29 19 18 2.04 2.06 0.00 o
27 26 11 12.99 13.11 0.00 o
26 25 15 11.27 11.38 0.00 o
31 22 9 1.32 1.34 0.00 o
34 17 9 8.19 8.27 0.00 o
31 23 6 7.79 7.86 0.00 o
29 26 3 5.23 5.28 0.00 o
34 19 3 0.48 0.48 0.00 o
30 25 1 3.80 3.84 0.00 o
37 11 6 0.10 0.10 0.00 o
38 9 1 1.65 1.67 0.00 o
39 2 1 19.87 20.06 0.00 o
30 22 12 0.00 0.00 0.00 o
36 14 6 7.53 7.60 0.00 o
27 24 15 21.67 21.86 0.00 o
29 20 17 0.48 0.49 0.00 o
28 25 11 2.02 2.04 0.00 o
31 20 13 0.16 0.16 0.00 o
29 25 8 0.45 0.45 0.00 o
35 16 7 0.07 0.07 0.00 o
36 15 3 0.02 0.02 0.00 o
35 17 4 0.25 0.25 0.00 o
0 33 21 0.54 0.55 0.00 o
0 39 3 0.07 0.07 0.00 o
33 18 11 2.08 2.10 0.00 o
30 25 3 0.06 0.06 0.00 o
33 21 2 1.65 1.66 0.00 o
38 9 3 2.10 2.12 0.00 o
39 3 2 3.80 3.84 0.00 o
32 16 16 0.02 0.02 0.00 o
