#------------------------------------------------------------------------------
#$Date: 2017-11-07 11:35:18 +0200 (Tue, 07 Nov 2017) $
#$Revision: 202895 $
#$URL: file:///home/coder/svn-repositories/cod/cif/1/54/78/1547891.cif $
#------------------------------------------------------------------------------
#
# This file is available in the Crystallography Open Database (COD),
# http://www.crystallography.net/
#
# All data on this site have been placed in the public domain by the
# contributors.
#
data_1547891
loop_
_publ_author_name
'Xuemiao Yin'
'Yaxing Wang'
'Xiaojing Bai'
'Yumin Wang'
'Lanhua Chen'
'Chengliang Xiao'
'Juan Diwu'
'Shiyu Du'
'Zhifang Chai'
'Thomas E. Albrecht-Schmitt'
'Shuao Wang'
_publ_section_title
;
 Rare earth separations by selective borate crystallization
;
_journal_name_full               'Nature Communications'
_journal_page_first              14438
_journal_paper_doi               10.1038/ncomms14438
_journal_volume                  8
_journal_year                    2017
_chemical_formula_moiety         'B7 O16 Eu'
_chemical_formula_sum            'B7 Eu O16'
_chemical_formula_weight         483.63
_chemical_name_common            'Europium borate'
_space_group_crystal_system      triclinic
_space_group_IT_number           2
_space_group_name_Hall           '-P 1'
_space_group_name_H-M_alt        'P -1'
_symmetry_space_group_name_Hall  '-P 1'
_symmetry_space_group_name_H-M   'P -1'
_atom_sites_solution_hydrogens   .
_cell_angle_alpha                96.093(3)
_cell_angle_beta                 98.513(3)
_cell_angle_gamma                101.750(3)
_cell_formula_units_Z            2
_cell_length_a                   6.8148(8)
_cell_length_b                   7.1444(9)
_cell_length_c                   12.7191(15)
_cell_measurement_reflns_used    2987
_cell_measurement_temperature    298(2)
_cell_measurement_theta_max      30.26
_cell_measurement_theta_min      2.94
_cell_volume                     593.64(12)
_computing_cell_refinement       'Bruker SMART'
_computing_data_collection       'Bruker SMART'
_computing_data_reduction        'Bruker SAINT'
_computing_molecular_graphics    'SHELXL-2014/7 (Sheldrick, 2014)'
_computing_publication_material  'SHELXL-2014/7 (Sheldrick, 2014)'
_computing_structure_refinement  'SHELXL-2014/7 (Sheldrick, 2014)'
_computing_structure_solution    'SHELXL-2014/7 (Sheldrick, 2014)'
_diffrn_ambient_temperature      298(2)
_diffrn_measured_fraction_theta_full 0.992
_diffrn_measured_fraction_theta_max 0.988
_diffrn_measurement_device_type  'BRUKER aperx II'
_diffrn_radiation_type           MoK\a
_diffrn_radiation_wavelength     0.71073
_diffrn_reflns_av_R_equivalents  0.0180
_diffrn_reflns_av_unetI/netI     0.0220
_diffrn_reflns_Laue_measured_fraction_full 0.992
_diffrn_reflns_Laue_measured_fraction_max 0.988
_diffrn_reflns_limit_h_max       7
_diffrn_reflns_limit_h_min       -8
_diffrn_reflns_limit_k_max       8
_diffrn_reflns_limit_k_min       -8
_diffrn_reflns_limit_l_max       15
_diffrn_reflns_limit_l_min       -15
_diffrn_reflns_number            5711
_diffrn_reflns_point_group_measured_fraction_full 0.992
_diffrn_reflns_point_group_measured_fraction_max 0.988
_diffrn_reflns_theta_full        25.242
_diffrn_reflns_theta_max         26.000
_diffrn_reflns_theta_min         2.941
_diffrn_source                   'fine-focus sealed tube'
_exptl_absorpt_coefficient_mu    5.379
_exptl_absorpt_correction_T_max  0.927
_exptl_absorpt_correction_T_min  0.824
_exptl_absorpt_correction_type   multi-scan
_exptl_absorpt_process_details   'SADABS, Bruker'
_exptl_crystal_colour            colorless
_exptl_crystal_density_diffrn    2.706
_exptl_crystal_description       plate
_exptl_crystal_F_000             452
_exptl_crystal_size_max          0.079
_exptl_crystal_size_mid          0.030
_exptl_crystal_size_min          0.014
_refine_diff_density_max         2.232
_refine_diff_density_min         -0.811
_refine_diff_density_rms         0.144
_refine_ls_extinction_coef       .
_refine_ls_extinction_method     none
_refine_ls_goodness_of_fit_ref   1.174
_refine_ls_hydrogen_treatment    undef
_refine_ls_matrix_type           full
_refine_ls_number_parameters     217
_refine_ls_number_reflns         2305
_refine_ls_number_restraints     0
_refine_ls_restrained_S_all      1.174
_refine_ls_R_factor_all          0.0241
_refine_ls_R_factor_gt           0.0227
_refine_ls_shift/su_max          0.001
_refine_ls_shift/su_mean         0.000
_refine_ls_structure_factor_coef Fsqd
_refine_ls_weighting_details
'w=1/[\s^2^(Fo^2^)+(0.0253P)^2^+2.7356P] where P=(Fo^2^+2Fc^2^)/3'
_refine_ls_weighting_scheme      calc
_refine_ls_wR_factor_gt          0.0595
_refine_ls_wR_factor_ref         0.0598
_reflns_Friedel_coverage         0.000
_reflns_Friedel_fraction_full    .
_reflns_Friedel_fraction_max     .
_reflns_number_gt                2226
_reflns_number_total             2305
_reflns_threshold_expression     'I > 2\s(I)'
_cod_data_source_file            ncomms14438-4.cif
_cod_data_source_block           EuBOCl-4
_cod_depositor_comments
;
The following automatic conversions were performed:

'_exptl_absorpt_correction_type' value 'Multi-scan' changed to
'multi-scan' according to the built-in table from CIF Core dictionary
named 'cif_core.dic' version 2.4.1 from 2010-06-29.

Automatic conversion script
Id: cif_fix_values 5376 2017-05-30 11:51:03Z andrius 
;
_cod_database_code               1547891
_shelx_space_group_comment
;
The symmetry employed for this shelxl refinement is uniquely defined
by the following loop, which should always be used as a source of
symmetry information in preference to the above space-group names.
They are only intended as comments.
;
_shelxl_version_number           2014-3
_shelx_res_file
;
TITL 1 in P-1
CELL 0.71073   6.8148   7.1444  12.7191  96.093  98.513 101.750
ZERR    2.00   0.0008   0.0009   0.0015   0.003   0.003   0.003
LATT  1
SFAC Eu B O
UNIT 2 14 32
TEMP 25

L.S. 100
BOND
acta
omit -0 52
FMAP 2
PLAN 20
WGHT    0.025300    2.735600
FVAR       0.21775
EU1   1    0.225854    0.737025    0.954899    11.00000    0.00819    0.00560 =
         0.00818    0.00055    0.00110    0.00076
B1    2    0.737027    0.739648    0.958457    11.00000    0.00665    0.00433 =
         0.00778    0.00058    0.00006    0.00063
B2    2    0.655433    0.888836    1.130538    11.00000    0.00491    0.00474 =
         0.00951    0.00028    0.00092    0.00049
B3    2    0.284598    1.161002    0.519979    11.00000    0.02046    0.02676 =
         0.01379    0.00180    0.00324    0.00487
B4    2    0.422869    0.881244    0.731182    11.00000    0.01178    0.01078 =
         0.01043    0.00066    0.00341    0.00183
B5    2   -0.115302    0.473373    0.730742    11.00000    0.01084    0.01100 =
         0.01051    0.00095   -0.00046    0.00104
B6    2   -0.068431    0.680897    1.133210    11.00000    0.00357    0.00515 =
         0.01033   -0.00017    0.00171    0.00038
B7    2    0.317471    0.805737    1.200051    11.00000    0.00830    0.01047 =
         0.00939    0.00079    0.00303    0.00165
O1    3   -0.109434    0.798005    0.891869    11.00000    0.00917    0.01223 =
         0.01189    0.00234    0.00447    0.00225
O2    3    0.532554    0.646248    0.898832    11.00000    0.00597    0.01136 =
         0.01239   -0.00135   -0.00046    0.00091
O3    3    0.314642    0.915580    0.812127    11.00000    0.00958    0.00677 =
         0.00976    0.00010    0.00279    0.00049
O4    3    0.452240    0.774746    1.123266    11.00000    0.00616    0.00891 =
         0.01170   -0.00248    0.00235   -0.00078
O5    3    0.126165    0.804376    1.129635    11.00000    0.00575    0.00922 =
         0.01278    0.00370    0.00064    0.00031
O6    3    0.290910    1.089153    0.973528    11.00000    0.01044    0.00550 =
         0.00918    0.00096    0.00371    0.00241
O7    3    0.177572    0.395052    0.974955    11.00000    0.00809    0.00648 =
         0.00897    0.00128    0.00007    0.00124
O8    3    0.051613    0.483698    0.809920    11.00000    0.00676    0.00665 =
         0.00945    0.00281    0.00049   -0.00038
O9    3    0.195014    1.207621    0.809168    11.00000    0.00830    0.01532 =
         0.00856    0.00180    0.00339    0.00834
O10   3    0.187284    1.173817    0.605754    11.00000    0.02312    0.05415 =
         0.01328   -0.00644    0.00740   -0.00360
O11   3    0.480080    1.258467    0.524246    11.00000    0.01697    0.04648 =
         0.01638   -0.00205    0.00298   -0.00532
O12   3   -0.100206    0.582426    0.650350    11.00000    0.01876    0.03078 =
         0.02324    0.01815   -0.00315   -0.00516
O13   3    0.338904    0.726803    0.656112    11.00000    0.01965    0.01802 =
         0.02184   -0.00959    0.00933   -0.00794
O14   3    0.603094    1.007393    0.729127    11.00000    0.00997    0.01334 =
         0.01266   -0.00371    0.00677   -0.00269
O15   3   -0.293764    0.346846    0.730897    11.00000    0.00892    0.01563 =
         0.01416    0.00625   -0.00205   -0.00163
O16   3    0.183013    1.041912    0.428508    11.00000    0.01743    0.03223 =
         0.01899   -0.00499    0.00621   -0.00266

HKLF 4

REM  1 in P-1
REM R1 =  0.0227 for    2226 Fo > 4sig(Fo)  and  0.0241 for all    2305 data
REM    217 parameters refined using      0 restraints

END

WGHT      0.0242      3.0279

REM Highest difference peak  2.232,  deepest hole -0.811,  1-sigma level  0.144
Q1    1   0.0912  0.7468  1.0461  11.00000  0.05    2.23
Q2    1   0.4221  0.7741  1.0481  11.00000  0.05    1.93
Q3    1   0.0597  1.1032  0.5993  11.00000  0.05    0.99
Q4    1  -0.1031  0.9132  0.8615  11.00000  0.05    0.91
Q5    1   0.5339  0.5354  0.8672  11.00000  0.05    0.87
Q6    1   0.2026  1.2202  0.7375  11.00000  0.05    0.80
Q7    1   0.3897  0.7140  0.6016  11.00000  0.05    0.73
Q8    1   0.5468  1.3041  0.5887  11.00000  0.05    0.65
Q9    1   0.0186  0.6482  0.6588  11.00000  0.05    0.63
Q10   1  -0.0549  0.7162  0.9554  11.00000  0.05    0.53
Q11   1   0.2317  1.0227  0.3696  11.00000  0.05    0.53
Q12   1   0.5526  0.7721  0.9575  11.00000  0.05    0.48
Q13   1   0.1950  0.7208  0.8707  11.00000  0.05    0.43
Q14   1  -0.1024  0.7327  0.8678  11.00000  0.05    0.43
Q15   1   0.2963  0.6175  1.0321  11.00000  0.05    0.40
Q16   1   0.5442  0.8263  1.1249  11.00000  0.05    0.40
Q17   1   0.0905  0.3573  0.9671  11.00000  0.05    0.38
Q18   1  -0.1616  0.7547  0.8839  11.00000  0.05    0.38
Q19   1   0.3597  1.0016  0.8382  11.00000  0.05    0.38
Q20   1   0.2307  0.8794  0.8845  11.00000  0.05    0.37
;
_shelx_res_checksum              5956
_shelx_hkl_file
;
  -2   0   0  741.30   17.03
  -2   0   0  756.21   17.31
  -2   0   0  756.27   17.24
  -2   0   0  752.99   17.30
   2   0   0  750.14   17.21
   2   0   0  757.09   17.07
   2   0   0  751.66   17.28
  -3   0   0  201.78    5.29
  -3   0   0  206.55    5.29
  -3   0   0  211.06    4.90
  -3   0   0  210.16    5.22
   3   0   0  216.98    4.99
   3   0   0  211.29    5.28
   3   0   0  215.58    5.19
  -4   0   0  159.68    3.81
  -4   0   0  161.06    4.28
   4   0   0  160.60    3.96
  -5   0   0   31.99    1.50
  -5   0   0   33.42    1.00
   5   0   0   33.14    1.22
  -6   0   0   56.63    2.30
   6   0   0   57.26    1.81
  -7   0   0   99.12    3.51
  -8   0   0   -0.06    1.08
  -8   1   0   67.88    3.04
  -7   1   0   77.43    3.00
   6  -1   0   51.99    1.81
  -6   1   0   56.70    2.24
  -6   1   0   53.25    1.60
   5  -1   0   66.68    2.16
  -5   1   0   74.43    2.43
  -5   1   0   73.40    1.94
   4  -1   0   13.52    0.66
  -4   1   0   15.61    0.89
  -4   1   0   13.74    0.60
   3  -1   0  437.22   10.11
   3  -1   0  427.23   10.01
   3  -1   0  415.90    9.82
  -3   1   0  418.72   10.04
  -3   1   0  425.09    9.78
   2  -1   0    4.20    0.27
   2  -1   0    3.89    0.36
  -2   1   0    4.33    0.37
  -2   1   0    4.48    0.27
   1  -1   0  709.65   15.66
   1  -1   0  684.13   15.61
  -1   1   0  669.79   15.65
   0  -1   0   13.14    0.40
   0  -1   0   12.13    0.38
   0   1   0   12.75    0.39
  -1  -1   0  106.31    2.51
  -1  -1   0  105.53    2.55
  -1  -1   0  108.55    2.64
   1   1   0  108.11    2.69
  -2  -1   0  126.07    3.31
  -2  -1   0  137.24    3.42
  -2  -1   0  137.69    3.19
  -2  -1   0  137.50    3.46
   2   1   0  138.63    3.22
   2   1   0  138.18    3.52
   2   1   0  139.15    3.51
  -3  -1   0  187.61    4.71
  -3  -1   0  186.05    4.24
  -3  -1   0  175.10    4.54
  -3  -1   0  171.28    4.58
   3   1   0  183.65    4.25
   3   1   0  176.79    4.63
   3   1   0  175.82    4.70
  -4  -1   0   81.55    2.52
  -4  -1   0   81.49    2.65
  -4  -1   0   81.90    2.04
   4   1   0   83.91    2.10
  -5  -1   0  112.91    3.40
  -5  -1   0  112.66    3.60
  -6  -1   0  105.41    3.49
  -7  -1   0   17.65    1.68
  -8   2   0   16.33    1.85
   7  -2   0   77.84    2.60
  -7   2   0   83.09    3.07
   6  -2   0  107.10    3.09
  -6   2   0  113.05    3.52
   5  -2   0   61.56    1.88
  -5   2   0   62.67    2.19
  -5   2   0   59.16    1.79
   4  -2   0  263.89    6.36
  -4   2   0  264.40    6.30
  -4   2   0  262.79    6.62
   3  -2   0    8.45    0.51
   3  -2   0    7.92    0.63
  -3   2   0    8.64    0.62
  -3   2   0    8.31    0.48
   2  -2   0  439.07   10.27
   2  -2   0  450.34   10.33
  -2   2   0  436.48   10.32
  -2   2   0  444.43   10.23
   1  -2   0   92.01    2.26
   1  -2   0   86.21    2.23
  -1   2   0   88.09    2.23
  -1   2   0   88.78    2.23
   0  -2   0  974.95   22.42
   0   2   0 1000.00   22.42
  -1  -2   0   27.01    0.85
  -1  -2   0   26.13    0.79
  -1  -2   0   26.89    0.88
  -1  -2   0   27.52    1.08
   1   2   0   24.47    1.01
   1   2   0   27.40    0.81
  -2  -2   0  400.47    9.57
  -2  -2   0  403.58    9.41
  -2  -2   0  402.02    9.16
  -2  -2   0  394.75    9.24
   2   2   0  390.12    9.47
  -3  -2   0  499.72   11.64
  -3  -2   0  510.35   12.09
  -3  -2   0  484.94   11.85
  -3  -2   0  515.41   11.48
   3   2   0  497.34   12.03
  -4  -2   0  258.54    5.99
  -4  -2   0  255.92    5.89
  -4  -2   0  252.59    6.67
  -4  -2   0  247.76    6.44
   4   2   0  249.69    6.69
  -5  -2   0   55.22    2.43
  -5  -2   0   56.54    2.17
   5   2   0   54.81    2.50
  -6  -2   0   22.81    1.87
  -6  -2   0   21.13    1.57
  -7  -2   0  121.73    4.19
  -8   3   0   90.63    3.59
   7  -3   0   46.04    1.92
  -7   3   0   49.91    2.37
   6  -3   0   67.19    2.19
  -6   3   0   65.50    2.53
   5  -3   0  182.43    4.74
  -5   3   0  185.63    5.05
   4  -3   0   14.62    0.79
  -4   3   0   14.64    0.94
   3  -3   0  201.10    4.92
   3  -3   0  197.97    5.02
  -3   3   0  199.67    5.02
  -3   3   0  196.42    4.88
   2  -3   0    6.72    0.60
   2  -3   0    7.14    0.49
  -2   3   0    7.08    0.50
  -2   3   0    7.86    0.52
   1  -3   0  331.05    7.51
   1  -3   0  302.38    7.47
  -1   3   0  315.53    7.45
  -1   3   0  319.20    7.48
   0  -3   0    3.71    0.39
   0   3   0    3.41    0.36
  -1  -3   0  887.75   20.21
  -1  -3   0  869.66   20.31
   1   3   0  869.72   20.36
   1   3   0  912.96   20.24
  -2  -3   0  108.54    2.72
  -2  -3   0  106.19    2.82
  -2  -3   0  106.10    3.15
   2   3   0  110.73    2.75
   2   3   0  104.63    3.02
  -3  -3   0  167.26    4.70
  -3  -3   0  170.68    4.26
   3   3   0  167.01    4.61
  -4  -3   0  169.54    5.01
  -4  -3   0  168.15    4.41
  -4  -3   0  175.72    4.17
  -4  -3   0  177.98    4.76
   4   3   0  174.51    4.98
  -5  -3   0   25.84    1.53
  -5  -3   0   23.30    2.33
   5   3   0   23.84    1.85
  -6  -3   0  106.94    3.68
  -6  -3   0  106.47    4.05
  -7  -3   0   -0.77    1.44
  -7  -3   0    2.49    1.18
   7  -4   0   86.44    2.87
  -7   4   0   85.46    3.22
   6  -4   0  217.96    5.67
  -6   4   0  212.99    5.95
   5  -4   0   79.33    2.50
  -5   4   0   82.33    2.69
   4  -4   0  201.79    5.12
  -4   4   0  196.45    5.19
   3  -4   0    6.52    0.60
  -3   4   0    5.74    0.60
   2  -4   0  252.57    6.06
   2  -4   0  231.33    6.08
  -2   4   0  254.48    6.02
   1  -4   0   34.85    1.23
   1  -4   0   36.23    1.28
  -1   4   0   35.25    1.20
   0  -4   0  406.73    9.50
   0  -4   0  403.26    9.57
   0   4   0  396.38    9.52
   0   4   0  403.50    9.53
  -1  -4   0  134.66    3.46
   1   4   0  137.36    3.50
   1   4   0  134.88    3.62
  -2  -4   0   84.19    2.51
  -2  -4   0   88.17    2.38
  -2  -4   0   87.96    2.88
   2   4   0   90.88    2.74
   2   4   0   88.65    2.43
  -3  -4   0  171.52    4.53
  -3  -4   0  173.19    4.31
  -3  -4   0  175.94    5.06
   3   4   0  176.74    4.89
  -4  -4   0   69.71    1.96
  -4  -4   0   73.26    2.89
  -4  -4   0   70.27    2.52
   4   4   0   69.86    2.81
  -5  -4   0  119.74    3.85
  -5  -4   0  124.65    4.33
   5   4   0  123.62    4.29
  -6  -4   0   18.38    2.04
  -6  -4   0   16.79    1.73
   6   4   0   11.66    1.82
  -7  -4   0  108.77    4.74
   8  -5   0   90.12    3.41
  -8   5   0   99.07    3.71
   7  -5   0   71.69    2.66
  -7   5   0   70.66    2.88
   6  -5   0   25.39    1.52
  -6   5   0   25.17    1.60
   5  -5   0   95.89    2.98
  -5   5   0   95.87    3.05
   4  -5   0    1.52    0.49
  -4   5   0    1.12    0.50
   3  -5   0   38.28    1.50
  -3   5   0   39.57    1.47
   2  -5   0   10.36    0.75
  -2   5   0   10.81    0.74
   1  -5   0  201.61    5.17
  -1   5   0  204.51    5.13
   0  -5   0   16.48    0.87
   0   5   0   16.74    0.91
  -1  -5   0  231.39    5.75
   1   5   0  231.12    5.93
  -2  -5   0   61.41    2.51
  -2  -5   0   63.29    1.93
   2   5   0   62.21    2.27
  -3  -5   0  175.96    4.47
   3   5   0  175.57    5.07
  -4  -5   0  178.82    5.13
  -4  -5   0  182.24    4.53
  -4  -5   0  181.95    5.65
   4   5   0  175.06    5.41
  -5  -5   0   33.77    2.05
  -5  -5   0   38.66    2.75
   5   5   0   34.50    2.52
  -6  -5   0   93.89    3.75
  -6  -5   0   95.40    4.33
   6   5   0   97.24    4.28
   8  -6   0   57.24    2.76
  -8   6   0   49.88    2.84
   7  -6   0   27.49    1.81
  -7   6   0   25.11    1.88
   6  -6   0  108.12    3.53
  -6   6   0  110.49    3.60
   5  -6   0   16.48    1.28
  -5   6   0   18.18    2.13
  -4   6   0  340.70    8.49
   3  -6   0    2.14    0.57
  -3   6   0    1.37    0.52
   2  -6   0  398.27    9.71
  -2   6   0  393.16    9.59
   1  -6   0   66.56    2.21
  -1   6   0   64.99    2.15
   0  -6   0  197.22    5.12
   0   6   0  194.18    5.17
  -1  -6   0   62.93    2.10
   1   6   0   63.26    2.31
  -2  -6   0   89.93    3.41
  -2  -6   0   89.75    2.66
   2   6   0   84.35    3.59
  -3  -6   0  108.41    3.07
  -3  -6   0  107.72    4.05
   3   6   0  104.24    3.68
  -4  -6   0   10.20    1.71
   4   6   0    9.34    1.50
  -5  -6   0   70.15    3.76
  -5  -6   0   60.62    2.90
   5   6   0   64.93    3.48
   8  -7   0   16.60    2.87
   7  -7   0   74.99    3.12
  -7   7   0   75.71    3.05
   6  -7   0   17.29    1.61
  -6   7   0   18.09    1.63
   5  -7   0  267.99    7.12
  -5   7   0  259.03    6.94
   4  -7   0    4.16    0.83
  -4   7   0    4.99    0.83
   3  -7   0  106.34    3.42
  -3   7   0  110.46    3.30
   2  -7   0    9.10    1.07
  -2   7   0    8.77    0.94
   1  -7   0  117.25    3.50
  -1   7   0  113.89    3.45
   0  -7   0   17.32    1.91
   0   7   0   11.27    1.65
  -1  -7   0   80.93    2.96
  -1  -7   0   80.45    3.34
   1   7   0   88.05    3.03
  -2  -7   0   89.27    3.69
  -2  -7   0   89.19    2.86
   2   7   0   89.38    3.36
  -3  -7   0   30.55    2.09
  -3  -7   0   28.68    2.56
   3   7   0   33.92    2.36
  -4  -7   0   76.84    4.04
   4   7   0   79.12    3.70
  -7   8   0   13.00    1.91
   6  -8   0  142.65    4.77
  -6   8   0  149.12    4.55
   5  -8   0    4.97    1.16
  -5   8   0    6.72    1.13
   4  -8   0  136.67    4.42
  -4   8   0  145.20    4.27
   3  -8   0    3.63    0.94
  -3   8   0    4.59    0.87
   2  -8   0   93.55    3.24
  -2   8   0   96.55    3.14
   1  -8   0   47.13    2.16
  -1   8   0   50.62    2.18
   0  -8   0  102.92    3.39
   0   8   0  105.45    3.51
  -1  -8   0   28.34    2.49
  -1  -8   0   24.26    1.67
   1   8   0   26.15    2.02
  -2  -8   0   31.50    1.85
  -2  -8   0   29.04    2.86
   2   8   0   34.34    2.45
   3   8   0   53.40    3.79
  -5   9   0   89.45    3.42
  -4   9   0    2.75    1.10
   3  -9   0   98.27    3.68
  -3   9   0  102.52    3.51
   2  -9   0   17.85    1.81
  -2   9   0   16.45    1.66
   1  -9   0  127.19    4.20
  -1   9   0  130.25    4.22
   0  -9   0   35.72    2.22
   0   9   0   33.39    2.42
  -1  -9   0   24.56    2.08
   1   9   0   27.68    2.54
   1   9  -1   57.97    3.00
  -1  -9   1   53.63    2.59
   0   9  -1   13.15    1.59
   0  -9   1    9.42    1.33
   0  -9   1   10.09    1.95
  -1   9  -1  155.38    4.82
   1  -9   1  152.66    4.78
  -2   9  -1    5.03    1.16
   2  -9   1    3.85    1.11
  -3   9  -1   92.56    3.37
   3  -9   1   93.69    3.56
  -4   9  -1    5.48    1.21
  -5   9  -1   88.27    3.44
   3   8  -1   62.01    3.91
   2   8  -1   92.77    3.72
  -2  -8   1   97.39    3.21
  -2  -8   1   92.44    4.06
   1   8  -1   44.06    2.38
  -1  -8   1   45.54    2.12
  -1  -8   1   46.77    2.87
   0   8  -1  188.69    5.44
   0  -8   1  191.18    5.35
  -1   8  -1    4.57    0.90
   1  -8   1    6.98    1.03
  -2   8  -1  166.42    4.80
   2  -8   1  169.16    4.91
  -3   8  -1   -2.15    0.70
   3  -8   1    0.23    0.79
  -4   8  -1  131.78    4.14
   4  -8   1  139.39    4.35
  -5   8  -1   16.57    1.51
   5  -8   1   12.60    1.45
  -6   8  -1   70.37    2.94
   6  -8   1   65.71    3.08
   4   7  -1   74.29    3.58
  -4  -7   1   77.44    3.87
   3   7  -1   32.98    2.30
  -3  -7   1   32.03    2.72
   2   7  -1   46.49    2.36
  -2  -7   1   45.68    2.69
  -2  -7   1   49.70    1.95
   1   7  -1   95.67    3.29
  -1  -7   1   97.67    3.05
  -1  -7   1   99.34    3.69
   0   7  -1   13.62    1.25
   0  -7   1   13.47    1.26
  -1   7  -1  117.52    3.88
   1  -7   1  124.37    3.67
  -2   7  -1    0.62    0.59
   2  -7   1    0.74    0.62
  -3   7  -1   97.55    3.47
   3  -7   1  108.12    3.35
  -4   7  -1    7.89    0.97
   4  -7   1    6.45    0.98
  -5   7  -1  221.74    6.08
   5  -7   1  222.49    6.18
  -6   7  -1   19.78    1.70
   6  -7   1   20.08    1.73
  -7   7  -1   77.66    3.21
   7  -7   1   74.24    3.16
   5   6  -1  138.10    5.07
  -5  -6   1  135.89    4.60
  -5  -6   1  144.14    5.33
   4   6  -1   58.15    2.88
  -4  -6   1   60.85    3.13
   3   6  -1   40.95    2.21
  -3  -6   1   41.47    2.51
  -3  -6   1   43.32    1.62
   2   6  -1  168.13    4.95
  -2  -6   1  169.08    4.47
  -2  -6   1  171.23    5.19
   1   6  -1    1.95    0.63
  -1  -6   1    1.29    0.84
  -1  -6   1    1.78    0.50
   0   6  -1  336.36    8.38
   0  -6   1  338.61    8.31
  -1   6  -1   -0.40    0.41
   1  -6   1    0.00    0.43
  -2   6  -1  702.17   16.46
   2  -6   1  694.34   16.52
  -3   6  -1   10.34    0.91
   3  -6   1   10.10    0.95
  -4   6  -1  240.93    6.30
  -5   6  -1   38.27    1.83
   5  -6   1   38.56    1.82
  -6   6  -1  102.37    3.49
   6  -6   1  103.06    3.44
  -7   6  -1   22.08    1.88
   7  -6   1   23.31    1.78
  -8   6  -1    7.05    1.56
   8  -6   1    9.41    1.51
   6   5  -1   84.94    4.15
  -6  -5   1   84.17    3.47
  -6  -5   1   86.52    4.07
   5   5  -1   60.66    2.97
  -5  -5   1   63.37    3.12
  -5  -5   1   53.70    2.53
   4   5  -1   92.56    3.38
  -4  -5   1   90.84    3.57
  -4  -5   1   88.49    2.58
   3   5  -1   44.36    2.08
  -3  -5   1   45.63    1.53
  -3  -5   1   47.54    2.48
   2   5  -1    4.76    0.75
  -2  -5   1    4.03    0.52
  -2  -5   1    5.05    0.95
   1   5  -1  417.29   10.24
  -1  -5   1  421.25   10.52
  -1  -5   1  429.67   10.06
   0   5  -1    0.36    0.34
   0  -5   1    0.48    0.33
  -1   5  -1  404.55    9.79
   1  -5   1  414.29    9.84
  -2   5  -1   13.49    0.82
   2  -5   1   12.35    0.83
  -3   5  -1   33.29    1.38
   3  -5   1   34.22    1.41
  -4   5  -1   13.16    0.98
   4  -5   1   13.08    0.97
  -5   5  -1  147.87    4.37
   5  -5   1  156.96    4.33
  -6   5  -1   28.10    1.71
  -7   5  -1   29.91    1.95
   7  -5   1   29.60    1.81
  -8   5  -1  111.90    4.11
   8  -5   1  112.21    3.87
  -7  -4   1   72.72    4.01
   6   4  -1   41.30    2.66
  -6  -4   1   33.97    2.62
  -6  -4   1   37.38    2.21
   5   4  -1   69.95    3.04
  -5  -4   1   71.31    3.18
  -5  -4   1   72.41    2.72
   4   4  -1   63.09    2.54
  -4  -4   1   59.81    2.68
  -4  -4   1   63.63    1.75
   3   4  -1   49.18    2.00
  -3  -4   1   48.92    1.66
  -3  -4   1   50.55    2.18
  -3  -4   1   49.79    1.48
   2   4  -1  298.72    7.21
   2   4  -1  303.99    7.56
  -2  -4   1  307.80    7.77
  -2  -4   1  299.68    7.28
  -2  -4   1  303.41    7.19
   1   4  -1   21.87    0.89
   1   4  -1   21.05    1.00
  -1  -4   1   21.76    0.86
   0   4  -1  475.35   11.20
   0   4  -1  477.38   11.27
   0  -4   1  484.29   11.22
  -1   4  -1   25.29    1.00
   1  -4   1   25.99    1.01
   1  -4   1   24.92    1.09
  -2   4  -1  395.50    9.38
   2  -4   1  392.40    9.39
  -3   4  -1   88.36    2.61
   3  -4   1   91.12    2.60
  -4   4  -1  320.05    8.03
   4  -4   1  324.41    7.92
  -5   4  -1  168.18    4.82
   5  -4   1  177.49    4.66
  -6   4  -1   97.51    3.78
   6  -4   1  103.60    3.13
  -7   4  -1   53.37    2.50
   7  -4   1   54.77    2.25
  -8   4  -1    9.54    1.41
  -7  -3   1   36.96    2.81
  -7  -3   1   28.85    2.18
   6   3  -1   40.74    2.63
  -6  -3   1   38.00    2.47
  -6  -3   1   42.36    2.15
   5   3  -1   80.40    3.17
  -5  -3   1   84.96    2.90
   4   3  -1  115.92    3.73
  -4  -3   1  122.80    3.83
  -4  -3   1  122.09    3.54
   3   3  -1   99.37    3.07
  -3  -3   1  103.27    2.54
  -3  -3   1  104.19    2.69
   2   3  -1   31.47    0.98
   2   3  -1   32.38    1.26
  -2  -3   1   29.83    1.34
  -2  -3   1   31.16    0.96
  -2  -3   1   31.40    1.04
   1   3  -1  378.30    9.11
   1   3  -1  391.00    8.96
  -1  -3   1  397.32    9.11
  -1  -3   1  376.39    9.27
  -1  -3   1  383.69    9.08
   0   3  -1    2.93    0.32
   0   3  -1    2.13    0.30
   0  -3   1    2.84    0.36
   0  -3   1    2.38    0.30
  -1   3  -1  219.46    5.43
  -1   3  -1  226.28    5.39
   1  -3   1  217.94    5.40
   1  -3   1  234.16    5.46
  -2   3  -1   71.02    2.01
  -2   3  -1   70.78    1.95
   2  -3   1   70.62    1.98
   2  -3   1   66.93    2.06
  -3   3  -1  324.73    7.86
  -3   3  -1  326.17    8.02
   3  -3   1  340.05    7.93
  -4   3  -1   53.92    1.93
   4  -3   1   55.44    1.78
  -5   3  -1  101.34    3.17
   5  -3   1   99.40    2.90
  -6   3  -1   47.89    2.14
   6  -3   1   49.10    1.85
  -7   3  -1   24.27    1.77
   7  -3   1   23.67    1.50
  -8   3  -1  190.57    5.90
  -8  -2   1   32.53    3.22
  -7  -2   1  111.98    3.94
  -6  -2   1  174.24    5.11
  -6  -2   1  176.17    5.43
   5   2  -1  136.35    4.33
  -5  -2   1  139.97    4.05
  -5  -2   1  138.48    4.33
   4   2  -1  354.73    8.92
  -4  -2   1  351.64    8.68
  -4  -2   1  352.90    8.93
   3   2  -1  158.38    4.23
  -3  -2   1  156.67    4.30
  -3  -2   1  156.38    3.77
   2   2  -1  441.88    9.97
   2   2  -1  432.63   10.31
   2   2  -1  440.99   10.38
  -2  -2   1  431.99    9.95
  -2  -2   1  427.40   10.00
  -2  -2   1  440.60   10.41
   1   2  -1    2.54    0.22
  -1  -2   1    2.43    0.21
  -1  -2   1    2.79    0.31
   0   2  -1  760.37   17.76
   0   2  -1  791.00   17.72
   0  -2   1  798.80   17.77
   0  -2   1  766.01   17.73
  -1   2  -1  324.94    7.45
   1  -2   1  327.86    7.50
   1  -2   1  306.79    7.44
  -2   2  -1  272.67    6.33
   2  -2   1  260.72    6.43
   2  -2   1  270.30    6.38
  -3   2  -1  407.50    9.71
  -3   2  -1  419.88    9.50
   3  -2   1  396.62    9.53
   3  -2   1  401.09    9.68
  -4   2  -1    7.02    0.56
  -4   2  -1    7.77    0.73
   4  -2   1    6.23    0.57
  -5   2  -1  132.37    3.82
   5  -2   1  128.15    3.51
  -6   2  -1   25.90    1.55
   6  -2   1   25.60    1.31
  -7   2  -1  119.10    3.89
   7  -2   1  109.31    3.46
  -8   2  -1   13.74    1.63
  -8  -1   1   25.54    2.19
  -7  -1   1   45.61    2.28
  -6  -1   1   80.19    3.47
  -5  -1   1  103.10    3.37
  -5  -1   1  101.55    3.14
   4   1  -1  191.67    5.24
  -4  -1   1  195.36    5.23
  -4  -1   1  194.68    5.04
   3   1  -1   53.39    1.80
   3   1  -1   52.09    1.78
  -3  -1   1   53.94    1.65
  -3  -1   1   52.11    1.80
  -3  -1   1   51.15    1.69
   2   1  -1   52.88    1.64
   2   1  -1   54.13    1.64
  -2  -1   1   54.25    1.68
  -2  -1   1   54.14    1.57
   1   1  -1  229.84    5.32
   1   1  -1  220.25    5.25
  -1  -1   1  225.70    5.24
  -1  -1   1  224.51    5.32
  -1  -1   1  217.35    5.10
  -1   1  -1  430.77    9.63
  -1   1  -1  409.54    9.56
   1  -1   1  413.33    9.57
   1  -1   1  416.73    9.62
  -2   1  -1  110.69    2.82
  -2   1  -1  109.43    2.69
   2  -1   1  110.97    2.82
   2  -1   1  106.89    2.71
  -3   1  -1  409.71    9.84
  -3   1  -1  425.80    9.61
   3  -1   1  403.17    9.81
   3  -1   1  408.25    9.66
   3  -1   1  423.66    9.83
  -4   1  -1  196.69    4.69
  -4   1  -1  191.49    5.04
   4  -1   1  194.96    4.80
   4  -1   1  191.12    5.05
  -5   1  -1  229.12    5.53
  -5   1  -1  228.96    6.04
   5  -1   1  228.40    5.71
  -6   1  -1  275.81    7.17
  -6   1  -1  256.79    6.58
   6  -1   1  271.54    6.73
  -7   1  -1   20.52    1.66
  -8   0   1   28.19    2.16
  -7   0   1  120.49    3.99
  -6   0   1  351.91    9.01
  -5   0   1   23.54    1.25
  -4   0   1  235.59    5.98
  -4   0   1  238.96    5.48
   3   0  -1    5.96    0.31
   3   0  -1    6.47    0.50
   3   0  -1    6.90    0.64
  -3   0   1    6.17    0.26
  -3   0   1    6.13    0.61
  -3   0   1    6.95    0.52
   2   0  -1  441.24   10.43
   2   0  -1  472.77   10.76
   2   0  -1  478.08   10.77
   2   0  -1  458.90   10.62
  -2   0   1  457.35   10.64
  -2   0   1  435.52   10.42
  -2   0   1  475.04   10.70
  -2   0   1  467.22   10.77
   1   0  -1    1.60    0.20
   1   0  -1    0.85    0.14
  -1   0   1    0.75    0.08
  -1   0   1    0.96    0.12
  -1   0  -1  139.10    3.31
  -1   0  -1  137.82    3.31
  -1   0  -1  137.47    3.29
   1   0   1  141.01    3.31
  -2   0  -1  448.55   10.48
  -2   0  -1  457.46   10.62
  -2   0  -1  450.68   10.62
   2   0   1  463.71   10.61
   2   0   1  452.72   10.53
   2   0   1  466.52   10.61
  -3   0  -1  367.39    8.98
  -3   0  -1  377.56    8.88
  -3   0  -1  373.27    8.60
  -3   0  -1  337.16    9.10
   3   0   1  374.99    8.83
   3   0   1  383.60    8.88
   3   0   1  384.02    8.73
  -4   0  -1  165.83    3.96
  -4   0  -1  158.01    4.34
   4   0   1  163.11    4.13
  -5   0  -1  123.83    3.67
  -5   0  -1  125.08    3.14
   5   0   1  124.97    3.39
   6   0   1    2.23    0.79
  -7   0  -1   50.18    2.43
  -8   0  -1   -0.09    1.08
  -8   1   1   79.82    3.29
  -7   1   1   95.83    3.38
   6  -1  -1   10.47    0.85
  -6   1   1    9.56    1.10
  -6   1   1    9.26    0.64
  -5   1   1  332.46    7.75
  -5   1   1  332.31    8.31
   4  -1  -1   37.29    1.13
  -4   1   1   36.16    1.41
  -4   1   1   37.99    1.08
   3  -1  -1  647.47   14.85
   3  -1  -1  660.29   15.05
  -3   1   1  644.23   14.83
   2  -1  -1    6.49    0.38
   2  -1  -1    5.71    0.29
  -2   1   1    6.68    0.40
  -2   1   1    6.06    0.29
   1  -1  -1  578.14   13.19
   1  -1  -1  593.26   13.19
  -1   1   1  587.84   13.19
  -1   1   1  560.97   13.18
   0  -1  -1   21.33    0.66
   0  -1  -1   22.37    0.59
   0  -1  -1   21.74    0.63
   0   1   1   21.54    0.59
  -1  -1  -1  484.63   11.01
  -1  -1  -1  459.42   10.87
  -1  -1  -1  490.68   10.97
  -1  -1  -1  485.21   10.94
   1   1   1  462.17   10.97
   1   1   1  473.53   10.92
  -2  -1  -1   89.04    2.38
  -2  -1  -1   84.19    2.31
  -2  -1  -1   87.22    2.29
   2   1   1   88.56    2.24
   2   1   1   88.50    2.37
   2   1   1   85.85    2.43
  -3  -1  -1  177.09    4.12
  -3  -1  -1  168.87    4.41
  -3  -1  -1  160.14    4.41
  -3  -1  -1  165.08    4.30
   3   1   1  172.75    4.12
   3   1   1  162.34    4.48
   3   1   1  167.41    4.36
  -4  -1  -1  240.85    6.31
  -4  -1  -1  250.46    5.92
  -4  -1  -1  246.66    6.45
   4   1   1  256.67    6.00
  -5  -1  -1   11.24    1.21
  -5  -1  -1   10.98    0.65
  -5  -1  -1    9.76    1.02
   5   1   1    9.64    0.72
  -6  -1  -1   73.17    2.72
  -7  -1  -1    1.19    0.98
  -8  -1  -1  127.20    4.57
  -9   2   1   71.50    4.00
  -8   2   1   59.12    2.79
   7  -2  -1    2.20    0.66
  -7   2   1    2.34    0.90
   6  -2  -1  385.48    9.11
  -6   2   1  391.36    9.61
  -6   2   1  364.64    8.98
   5  -2  -1   45.00    1.50
  -5   2   1   48.59    1.46
  -5   2   1   46.88    1.80
   4  -2  -1  262.82    6.36
  -4   2   1  264.08    6.62
  -4   2   1  270.92    6.34
   3  -2  -1    1.14    0.32
  -3   2   1    1.46    0.33
   2  -2  -1  430.47   10.18
   2  -2  -1  447.90   10.18
  -2   2   1  436.40   10.17
  -2   2   1  437.41   10.12
   1  -2  -1    1.56    0.21
   1  -2  -1    0.75    0.18
  -1   2   1    0.82    0.18
   0  -2  -1  512.82   11.70
   0  -2  -1  515.58   11.75
   0   2   1  527.74   11.76
   0   2   1  488.55   11.70
  -1  -2  -1  217.60    5.22
  -1  -2  -1  224.23    5.21
  -1  -2  -1  215.54    5.13
   1   2   1  218.40    5.15
   1   2   1  210.21    5.27
  -2  -2  -1  334.54    7.87
  -2  -2  -1  340.56    8.23
  -2  -2  -1  344.35    8.00
  -2  -2  -1  343.50    8.09
   2   2   1  328.23    8.15
  -3  -2  -1  235.10    5.47
  -3  -2  -1  234.54    5.69
  -3  -2  -1  230.22    5.79
  -3  -2  -1  231.49    5.97
   3   2   1  221.36    5.95
   3   2   1  232.02    5.53
  -4  -2  -1   48.50    1.81
  -4  -2  -1   48.48    1.57
  -4  -2  -1   46.56    1.40
  -4  -2  -1   47.60    1.97
   4   2   1   46.51    1.43
   4   2   1   45.49    1.98
  -5  -2  -1  117.96    3.83
  -5  -2  -1  115.33    3.59
  -6  -2  -1   17.46    1.50
  -6  -2  -1   15.59    1.77
  -7  -2  -1  150.58    4.89
  -9   3   1   14.21    1.91
  -8   3   1   14.82    1.72
   7  -3  -1   57.14    2.07
  -7   3   1   56.06    2.48
   6  -3  -1   36.47    1.44
  -6   3   1   33.42    1.73
   5  -3  -1  355.43    8.45
  -5   3   1  345.17    8.75
   4  -3  -1   19.91    0.89
  -4   3   1   19.41    1.03
   3  -3  -1  265.94    6.42
   3  -3  -1  271.18    6.50
  -3   3   1  258.77    6.39
  -3   3   1  267.73    6.48
   2  -3  -1  127.44    3.27
   2  -3  -1  122.65    3.22
  -2   3   1  124.84    3.22
  -2   3   1  129.60    3.20
   1  -3  -1  578.60   12.96
   1  -3  -1  546.33   12.99
  -1   3   1  558.55   12.99
   0  -3  -1   11.30    0.57
   0  -3  -1   12.45    0.58
   0   3   1   11.77    0.59
   0   3   1   10.74    0.55
  -1  -3  -1  399.96    9.49
  -1  -3  -1  398.79    9.41
  -1  -3  -1  410.26    9.47
   1   3   1  391.61    9.51
   1   3   1  412.01    9.43
  -2  -3  -1   99.30    2.64
  -2  -3  -1   98.99    2.77
  -2  -3  -1  106.98    3.06
   2   3   1  101.55    2.91
  -3  -3  -1  153.32    4.35
  -3  -3  -1  153.84    4.08
  -3  -3  -1  151.23    3.96
  -3  -3  -1  146.99    3.73
   3   3   1  147.97    4.24
  -4  -3  -1  361.70    8.36
  -4  -3  -1  354.46    8.87
  -4  -3  -1  354.34    9.16
  -4  -3  -1  345.76    8.62
   4   3   1  362.63    9.19
  -5  -3  -1   33.42    2.71
  -5  -3  -1   35.99    1.79
   5   3   1   33.41    2.13
  -6  -3  -1  158.47    4.87
  -6  -3  -1  155.53    5.21
  -7  -3  -1   18.71    1.91
  -7  -3  -1   13.59    2.05
  -8   4   1  114.47    4.08
   7  -4  -1   37.50    1.73
  -7   4   1   35.49    2.00
   6  -4  -1  488.48   11.52
  -6   4   1  464.71   11.78
   5  -4  -1    3.26    0.56
  -5   4   1    3.43    0.66
   4  -4  -1  260.52    6.42
  -4   4   1  254.89    6.47
   3  -4  -1   66.53    2.04
  -3   4   1   68.41    2.03
   2  -4  -1  382.35    8.90
   2  -4  -1  357.61    8.89
  -2   4   1  377.23    8.81
   1  -4  -1    1.08    0.31
   1  -4  -1    1.36    0.35
  -1   4   1    1.42    0.31
   0  -4  -1   61.36    1.80
   0  -4  -1   59.65    1.80
   0   4   1   57.77    1.77
  -1  -4  -1  172.50    4.40
   1   4   1  179.54    4.57
  -2  -4  -1   22.43    0.95
  -2  -4  -1   25.25    1.42
   2   4   1   22.83    1.19
  -3  -4  -1  199.83    5.57
  -3  -4  -1  198.48    4.86
  -3  -4  -1  187.49    5.48
   3   4   1  197.46    5.41
  -4  -4  -1   24.75    1.73
  -4  -4  -1   27.75    1.92
  -4  -4  -1   26.43    1.04
   4   4   1   20.54    2.25
  -5  -4  -1  114.76    4.30
  -5  -4  -1  128.56    3.95
   5   4   1  121.30    4.35
  -6  -4  -1   12.28    1.51
  -6  -4  -1   12.67    1.80
  -7  -4  -1   41.78    3.63
   8  -5  -1   48.62    2.42
  -8   5   1   50.55    2.57
   7  -5  -1   84.44    2.91
  -7   5   1   86.19    3.18
   6  -5  -1   18.66    1.28
  -6   5   1   15.42    1.75
   5  -5  -1  140.81    3.97
  -5   5   1  138.03    3.97
   4  -5  -1   13.42    0.94
  -4   5   1   14.37    0.93
   3  -5  -1  125.52    3.53
  -3   5   1  128.73    3.45
   2  -5  -1   80.31    2.41
  -2   5   1   77.92    2.29
   1  -5  -1  109.14    3.04
  -1   5   1  108.60    2.97
   0  -5  -1  120.13    3.31
   0   5   1  123.97    3.35
  -1  -5  -1   32.73    1.27
   1   5   1   33.60    1.45
  -2  -5  -1  411.39   10.50
  -2  -5  -1  412.33    9.81
   2   5   1  407.79   10.17
  -3  -5  -1  159.60    4.16
  -3  -5  -1  155.51    6.36
   3   5   1  164.60    4.79
  -4  -5  -1  299.81    8.47
  -4  -5  -1  313.87    8.02
  -4  -5  -1  304.10    7.39
   4   5   1  303.40    8.31
  -5  -5  -1   12.62    1.85
  -5  -5  -1   15.76    1.62
   5   5   1   17.79    1.89
  -6  -5  -1   94.74    3.90
  -6  -5  -1  100.77    4.48
   6   5   1   89.60    4.58
   8  -6  -1   80.16    3.18
  -8   6   1   78.85    3.34
   7  -6  -1    5.60    1.04
  -7   6   1    6.15    1.11
   6  -6  -1  105.39    3.46
  -6   6   1  109.06    3.48
   5  -6  -1    1.73    0.65
  -5   6   1    3.20    0.73
  -4   6   1  228.88    5.91
   3  -6  -1   50.83    1.94
  -3   6   1   52.46    1.82
   2  -6  -1  181.51    4.82
  -2   6   1  175.41    4.65
   1  -6  -1   78.60    2.47
  -1   6   1   76.36    2.39
   0  -6  -1  109.23    3.19
   0   6   1  111.29    3.24
  -1  -6  -1  206.95    5.33
   1   6   1  203.41    5.52
  -2  -6  -1  112.05    4.04
  -2  -6  -1  112.43    3.21
  -3  -6  -1  138.74    4.77
  -3  -6  -1  140.40    3.80
   3   6   1  136.21    4.47
  -4  -6  -1    3.86    1.10
  -4  -6  -1   10.39    1.69
   4   6   1    5.50    1.46
  -5  -6  -1   73.71    3.11
  -5  -6  -1   69.62    3.83
   5   6   1   64.69    3.71
   8  -7  -1   11.65    1.83
  -8   7   1   12.04    2.17
   7  -7  -1  104.04    3.71
  -7   7   1  104.98    3.65
   6  -7  -1    7.23    1.15
  -6   7   1    5.87    1.05
   5  -7  -1  205.79    5.81
  -5   7   1  209.25    5.65
   4  -7  -1   11.17    1.18
  -4   7   1    9.93    1.24
   3  -7  -1   78.32    2.75
  -3   7   1   79.35    2.58
   2  -7  -1   52.61    2.10
  -2   7   1   52.10    1.97
   1  -7  -1   80.44    2.73
  -1   7   1   84.06    2.69
   0  -7  -1   81.40    2.70
   0   7   1   80.75    3.08
  -1  -7  -1    5.16    0.84
  -1  -7  -1    3.46    1.22
   1   7   1    5.74    1.02
  -2  -7  -1  152.11    4.43
  -2  -7  -1  166.59    5.37
   2   7   1  155.22    4.84
  -3  -7  -1    6.39    1.03
  -3  -7  -1    5.89    1.71
   3   7   1    3.64    1.34
  -4  -7  -1   78.80    3.29
   4   7   1   77.58    3.83
  -7   8   1    3.45    1.29
   6  -8  -1   73.00    3.16
  -6   8   1   78.96    2.98
   5  -8  -1    0.86    0.92
  -5   8   1    0.90    0.85
   4  -8  -1   94.47    3.38
  -4   8   1   97.38    3.17
   3  -8  -1   15.58    1.46
  -3   8   1   17.34    1.42
   2  -8  -1  113.31    3.65
  -2   8   1  111.06    3.51
   1  -8  -1  123.37    3.88
  -1   8   1  124.34    3.84
   0  -8  -1   29.85    1.69
   0   8   1   26.84    1.86
  -1  -8  -1   91.64    4.15
  -1  -8  -1   96.22    3.26
   1   8   1  101.66    3.62
  -2  -8  -1    7.63    1.82
  -2  -8  -1    8.71    1.14
   2   8   1    7.94    1.53
   3   8   1   92.59    5.53
  -6   9   1   -1.77    1.45
  -5   9   1  108.30    3.76
  -4   9   1   18.91    1.81
   3  -9  -1  124.18    4.22
  -3   9   1  124.63    4.00
   2  -9  -1   46.18    2.38
  -2   9   1   46.10    2.31
   1  -9  -1   48.45    2.41
  -1   9   1   46.03    2.44
   0  -9  -1   52.77    2.58
   0   9   1   57.86    2.91
  -1  -9  -1   11.70    1.50
   1   9   1   12.77    1.93
   1   9  -2   81.52    4.10
  -1  -9   2   98.66    3.49
   0   9  -2    5.50    1.31
   0  -9   2   10.33    1.82
   0  -9   2    3.80    1.19
  -1   9  -2   93.46    3.49
   1  -9   2   95.27    3.48
  -2   9  -2    0.30    1.04
   2  -9   2    2.03    1.04
  -3   9  -2   86.41    3.30
   3  -9   2   85.01    3.41
  -4   9  -2   17.70    1.69
  -5   9  -2   93.92    4.58
   3   8  -2   35.52    3.78
   2   8  -2  152.97    5.07
  -2  -8   2  163.56    4.61
  -2  -8   2  153.37    5.51
   1   8  -2    7.13    1.28
  -1  -8   2    7.04    1.52
  -1  -8   2    8.48    1.11
   0   8  -2  146.72    4.48
   0  -8   2  145.53    4.38
  -1   8  -2   -1.49    0.76
   1  -8   2    1.54    0.79
  -2   8  -2  122.80    3.83
   2  -8   2  120.77    3.89
  -3   8  -2   13.57    1.41
   3  -8   2   16.70    1.51
  -4   8  -2  102.19    3.40
   4  -8   2   94.91    3.47
  -5   8  -2   31.20    1.96
   5  -8   2   28.46    2.14
  -6   8  -2   14.62    1.62
   6  -8   2    9.42    1.78
   4   7  -2   54.35    3.22
  -4  -7   2   56.59    3.37
   3   7  -2   65.06    2.96
  -3  -7   2   65.99    3.23
   2   7  -2   43.43    2.22
  -2  -7   2   45.13    1.85
  -2  -7   2   42.50    2.49
   1   7  -2  155.91    4.54
  -1  -7   2  150.82    4.28
  -1  -7   2  153.40    4.92
   0   7  -2    1.23    0.63
   0  -7   2    2.01    0.69
  -1   7  -2  148.34    4.16
   1  -7   2  132.25    4.18
  -2   7  -2   13.10    1.14
   2  -7   2   11.38    1.16
  -3   7  -2   69.08    2.44
   3  -7   2   65.62    2.50
  -4   7  -2   56.74    2.24
   4  -7   2   53.33    2.29
  -5   7  -2   52.06    2.26
   5  -7   2   51.41    2.36
  -6   7  -2   47.72    2.39
   6  -7   2   48.54    2.45
  -7   7  -2   47.19    2.63
   7  -7   2   42.63    2.59
   5   6  -2   75.72    3.65
  -5  -6   2   73.94    3.12
  -5  -6   2   75.60    3.83
   4   6  -2  143.99    4.81
  -4  -6   2  145.19    5.01
   3   6  -2   36.93    2.10
  -3  -6   2   40.45    1.55
  -3  -6   2   41.70    2.35
   2   6  -2  234.38    6.35
  -2  -6   2  231.69    6.63
  -2  -6   2  237.38    5.94
   1   6  -2   -0.14    0.56
  -1  -6   2   -0.09    0.46
  -1  -6   2    0.82    0.78
   0   6  -2  359.49    8.97
   0  -6   2  365.71    8.89
  -1   6  -2   24.28    1.24
   1  -6   2   24.77    1.24
  -2   6  -2  266.47    6.70
   2  -6   2  259.31    6.74
  -3   6  -2  111.22    3.29
   3  -6   2  110.51    3.35
  -4   6  -2  113.12    3.49
   4  -6   2  115.07    3.57
  -5   6  -2   77.91    2.84
   5  -6   2   82.95    2.87
  -6   6  -2   63.58    2.70
   6  -6   2   69.38    2.70
  -7   6  -2   65.90    2.96
   7  -6   2   74.05    2.96
   8  -6   2    0.69    1.31
   6   5  -2   24.77    2.71
  -6  -5   2   29.83    2.14
  -6  -5   2   23.36    2.72
   5   5  -2  108.43    4.09
  -5  -5   2  104.03    3.67
  -5  -5   2  113.28    4.25
   4   5  -2   17.55    1.75
  -4  -5   2   18.68    1.82
   3   5  -2  128.99    3.94
  -3  -5   2  123.12    4.13
  -3  -5   2  123.04    3.28
   2   5  -2    9.81    1.03
  -2  -5   2   10.75    1.23
  -2  -5   2   10.01    0.75
   1   5  -2  484.58   11.67
  -1  -5   2  492.83   11.93
  -1  -5   2  478.75   11.46
   0   5  -2    0.66    0.39
   0  -5   2    0.75    0.35
  -1   5  -2  248.22    6.20
   1  -5   2  247.41    6.19
  -2   5  -2   57.22    1.90
   2  -5   2   58.03    1.94
  -3   5  -2  134.51    3.73
   3  -5   2  133.04    3.74
  -4   5  -2   27.56    1.42
   4  -5   2   29.68    1.41
  -5   5  -2   93.42    3.11
   5  -5   2   96.12    3.05
  -6   5  -2   76.29    2.87
   6  -5   2   75.62    2.72
  -7   5  -2    7.88    1.31
   7  -5   2    9.01    1.18
  -8   5  -2   96.13    3.84
   8  -5   2  101.04    3.73
  -7  -4   2   37.20    3.67
  -7  -4   2   42.42    3.21
   6   4  -2  118.52    4.53
  -6  -4   2  119.37    4.59
  -6  -4   2  119.39    4.03
   5   4  -2    3.51    1.11
  -5  -4   2    2.57    1.12
  -5  -4   2    2.52    0.82
   4   4  -2  285.92    7.71
  -4  -4   2  287.28    7.84
  -4  -4   2  295.09    6.79
   3   4  -2   11.32    1.04
   3   4  -2   11.30    0.69
  -3  -4   2   11.20    1.16
  -3  -4   2   11.59    0.69
  -3  -4   2   12.24    0.80
   2   4  -2  255.31    6.07
   2   4  -2  251.45    6.44
  -2  -4   2  254.04    6.62
  -2  -4   2  250.79    6.07
   1   4  -2   34.23    1.32
   1   4  -2   35.24    1.17
  -1  -4   2   33.50    1.46
  -1  -4   2   34.28    1.16
   0   4  -2  351.53    8.35
   0   4  -2  339.22    8.24
   0  -4   2  352.70    8.28
  -1   4  -2   16.59    0.80
   1  -4   2   16.39    0.79
  -2   4  -2  179.35    4.55
   2  -4   2  175.61    4.54
  -3   4  -2  174.96    4.64
   3  -4   2  179.83    4.62
  -4   4  -2  121.34    3.58
   4  -4   2  126.89    3.51
  -5   4  -2  147.25    4.28
   5  -4   2  146.31    4.10
  -6   4  -2   13.95    1.33
   6  -4   2   11.50    1.18
  -7   4  -2   65.34    2.78
   7  -4   2   60.39    2.94
  -8   4  -2    5.46    1.31
  -7  -3   2   58.25    3.23
  -7  -3   2   54.29    2.73
   6   3  -2   15.71    1.71
  -6  -3   2   13.57    1.65
  -6  -3   2   16.83    1.53
  -5  -3   2   99.79    4.26
   4   3  -2   56.83    2.26
  -4  -3   2   57.93    2.35
   3   3  -2  260.06    6.69
  -3  -3   2  261.61    6.18
  -3  -3   2  263.43    6.83
  -3  -3   2  262.81    6.10
   2   3  -2    2.33    0.29
   2   3  -2    1.33    0.37
  -2  -3   2    1.87    0.50
  -2  -3   2    2.02    0.28
   1   3  -2  947.77   21.80
   1   3  -2  978.58   21.61
  -1  -3   2  986.06   21.97
  -1  -3   2  896.22   22.03
  -1  -3   2  933.56   21.74
   0   3  -2   20.24    0.75
   0  -3   2   19.53    0.77
   0  -3   2   20.35    0.82
  -1   3  -2  756.88   17.46
  -1   3  -2  778.62   17.43
   1  -3   2  740.12   17.45
  -2   3  -2  347.60    8.48
  -2   3  -2  374.30    8.43
   2  -3   2  343.54    8.54
   2  -3   2  356.11    8.45
   3  -3   2  297.52    7.23
  -4   3  -2  229.30    5.93
   4  -3   2  226.44    5.74
  -5   3  -2   30.82    1.53
   5  -3   2   29.34    1.36
  -6   3  -2  153.79    5.19
   6  -3   2  171.08    4.57
  -7   3  -2    7.51    1.17
   7  -3   2    7.69    1.09
  -8   3  -2  111.84    4.19
  -8  -2   2   76.93    3.48
  -7  -2   2   31.91    2.02
  -6  -2   2  258.41    7.35
  -6  -2   2  260.79    7.02
   5   2  -2   20.56    1.61
  -5  -2   2   20.32    1.48
  -5  -2   2   17.86    1.22
   4   2  -2  459.95   11.18
  -4  -2   2  450.60   11.21
  -4  -2   2  453.05   10.96
   3   2  -2   17.94    1.00
  -3  -2   2   18.97    1.10
   2   2  -2  202.29    4.69
  -2  -2   2  201.50    5.15
  -2  -2   2  203.43    4.71
   1   2  -2    3.76    0.25
   1   2  -2    3.53    0.36
  -1  -2   2    4.50    0.36
  -1  -2   2    3.10    0.26
   0   2  -2  704.29   15.62
   0   2  -2  678.95   15.66
   0  -2   2  671.47   15.63
   0  -2   2  681.93   15.65
  -1   2  -2  125.05    3.20
  -1   2  -2  130.94    3.17
   1  -2   2  130.51    3.23
   1  -2   2  127.34    3.20
  -2   2  -2   40.81    1.22
   2  -2   2   37.82    1.25
   2  -2   2   38.52    1.30
  -3   2  -2  537.98   12.53
  -3   2  -2  542.90   12.31
   3  -2   2  511.30   12.48
   3  -2   2  525.60   12.37
  -4   2  -2   54.36    1.90
  -4   2  -2   50.93    1.62
   4  -2   2   51.81    1.70
  -5   2  -2  168.44    4.68
   5  -2   2  164.11    4.41
  -6   2  -2    3.13    0.95
   6  -2   2    4.47    0.77
  -7   2  -2  116.79    4.00
   7  -2   2  121.72    3.69
  -8   2  -2    5.19    1.31
  -8  -1   2   39.51    2.46
  -7  -1   2  148.34    4.66
  -6  -1   2   55.70    2.40
  -5  -1   2  139.43    3.94
  -5  -1   2  135.21    4.17
  -4  -1   2   10.14    0.92
   3   1  -2  206.57    5.42
   3   1  -2  216.40    5.40
  -3  -1   2  209.92    5.28
  -3  -1   2  222.27    5.50
  -3  -1   2  208.56    5.26
   2   1  -2   71.32    2.08
  -2  -1   2   71.41    1.97
  -2  -1   2   76.79    2.12
   1   1  -2  346.74    7.73
   1   1  -2  321.44    7.63
  -1  -1   2  326.49    7.71
  -1  -1   2  326.53    7.61
  -1  -1   2  325.99    7.53
  -1   1  -2    4.20    0.30
   1  -1   2    3.90    0.31
  -2   1  -2  940.77   21.52
  -2   1  -2  930.17   21.40
   2  -1   2  926.08   21.45
   2  -1   2  956.74   21.52
  -3   1  -2   31.86    1.08
  -3   1  -2   31.62    1.23
   3  -1   2   32.74    1.14
   3  -1   2   34.08    1.18
   3  -1   2   31.91    1.23
  -4   1  -2  463.33   11.00
  -4   1  -2  459.45   10.64
   4  -1   2  456.82   10.80
   4  -1   2  441.25   10.86
  -5   1  -2   95.59    3.01
  -5   1  -2   93.35    2.59
   5  -1   2   93.99    2.78
   6  -1   2  312.27    7.85
  -7   1  -2   16.08    1.59
  -8   1  -2  146.55    4.90
  -8   0   2   68.91    3.09
  -7   0   2   39.25    2.04
  -6   0   2  285.96    7.48
  -5   0   2   12.17    0.94
  -4   0   2  357.05    8.65
   3   0  -2   13.05    0.81
  -3   0   2   13.22    0.73
  -3   0   2   14.39    0.70
   2   0  -2  679.21   15.40
   2   0  -2  698.20   15.65
   2   0  -2  688.95   15.72
   2   0  -2  648.20   15.36
  -2   0   2  671.22   15.55
  -2   0   2  694.88   15.59
   0   0  -2  313.24    7.16
   0   0   2  316.73    7.44
  -1   0  -2  253.48    5.79
  -1   0  -2  250.43    5.71
  -1   0  -2  260.56    5.85
   1   0   2  213.11    5.75
   1   0   2  257.35    5.88
  -2   0  -2  173.49    4.29
  -2   0  -2  173.14    4.19
  -2   0  -2  168.54    4.19
   2   0   2  171.51    4.18
   2   0   2  171.47    4.26
   2   0   2  172.49    4.24
  -3   0  -2  739.39   18.67
  -3   0  -2  754.15   18.58
  -3   0  -2  823.93   18.51
  -3   0  -2  808.02   18.29
   3   0   2  807.55   18.46
   3   0   2  820.36   18.45
   3   0   2  825.04   18.43
  -4   0  -2  243.57    5.83
  -4   0  -2  239.71    6.17
  -5   0  -2  196.37    5.37
  -5   0  -2  196.03    4.86
   5   0   2  199.37    5.15
  -6   0  -2   20.48    1.50
   6   0   2   20.43    1.34
  -7   0  -2  119.87    4.04
  -8   0  -2    0.60    1.19
  -9   1   2   41.49    3.51
  -8   1   2   37.51    2.28
  -7   1   2  118.72    3.89
   6  -1  -2   58.87    1.80
  -6   1   2   62.37    1.68
  -6   1   2   60.11    2.31
   5  -1  -2  318.60    7.58
  -5   1   2  321.93    8.06
  -5   1   2  328.87    7.53
   4  -1  -2    7.82    0.64
   4  -1  -2    7.41    0.42
  -4   1   2    7.07    0.41
  -4   1   2    8.10    0.84
  -4   1   2    7.72    0.67
   3  -1  -2  701.43   16.27
   3  -1  -2  712.41   16.44
  -3   1   2  714.68   16.28
  -3   1   2  717.46   16.56
  -3   1   2  727.20   16.51
   2  -1  -2   88.21    2.20
   2  -1  -2   85.60    2.15
  -2   1   2   89.36    2.23
  -2   1   2   87.66    2.17
   1  -1  -2    7.88    0.39
   1  -1  -2    8.36    0.29
   1  -1  -2    8.24    0.36
  -1   1   2    8.20    0.36
  -1   1   2    8.15    0.28
   0  -1  -2   48.31    1.18
   0  -1  -2   47.97    1.29
   0  -1  -2   48.60    1.35
   0   1   2   46.35    1.20
  -1  -1  -2  218.53    5.20
  -1  -1  -2  208.52    5.08
  -1  -1  -2  223.41    5.16
  -1  -1  -2  221.64    5.13
   1   1   2  217.10    5.17
   1   1   2  203.51    5.14
  -2  -1  -2  169.74    4.27
  -2  -1  -2  169.25    4.30
  -2  -1  -2  167.24    4.48
   2   1   2  177.34    4.25
   2   1   2  169.34    4.24
  -3  -1  -2   60.26    1.94
  -3  -1  -2   65.99    2.04
  -3  -1  -2   63.23    1.88
   3   1   2   61.50    2.02
   3   1   2   63.39    1.96
  -4  -1  -2  446.02   10.69
  -4  -1  -2  433.37   10.77
  -4  -1  -2  445.18   10.36
   4   1   2  437.26   10.49
  -5  -1  -2    4.82    0.58
  -5  -1  -2    5.45    0.91
  -5  -1  -2    5.75    0.84
   5   1   2    5.73    0.67
  -6  -1  -2  262.76    7.08
   6   1   2  256.02    6.41
  -7  -1  -2    2.62    1.03
  -8  -1  -2  133.30    5.78
  -9   2   2   37.20    2.70
  -8   2   2   88.11    3.44
   7  -2  -2   11.95    1.03
  -7   2   2   14.85    1.38
   6  -2  -2  381.45    9.13
  -6   2   2  395.61    9.67
  -6   2   2  376.15    9.06
   5  -2  -2    6.09    0.57
  -5   2   2    6.78    0.58
  -5   2   2    6.97    0.82
   4  -2  -2  166.65    4.35
   4  -2  -2  170.26    4.20
  -4   2   2  169.87    4.43
  -4   2   2  174.39    4.19
   3  -2  -2  178.71    4.39
   3  -2  -2  175.81    4.30
  -3   2   2  176.17    4.41
  -3   2   2  176.96    4.30
   2  -2  -2   89.32    2.34
   2  -2  -2   91.76    2.32
  -2   2   2   92.84    2.32
  -2   2   2   90.37    2.34
   1  -2  -2    9.13    0.39
   1  -2  -2    8.24    0.51
  -1   2   2    9.07    0.47
  -1   2   2    8.74    0.35
   0  -2  -2  468.52   11.24
   0  -2  -2  500.95   11.32
   0  -2  -2  499.37   11.14
   0   2   2  499.06   11.25
   0   2   2  462.26   11.13
  -1  -2  -2  148.10    3.76
  -1  -2  -2  154.67    3.68
  -1  -2  -2  162.84    4.13
   1   2   2  129.82    3.83
  -2  -2  -2   69.86    1.89
  -2  -2  -2   70.22    2.05
  -2  -2  -2   67.55    2.00
  -2  -2  -2   71.57    2.17
  -2  -2  -2   69.73    2.06
   2   2   2   69.32    2.12
   2   2   2   68.94    1.96
  -3  -2  -2  375.48    9.07
  -3  -2  -2  374.91    9.25
  -3  -2  -2  378.17    9.10
   3   2   2  376.62    9.31
  -4  -2  -2   13.79    1.03
  -4  -2  -2   14.49    1.20
  -4  -2  -2   12.52    0.97
  -4  -2  -2   15.12    0.75
   4   2   2   14.10    0.84
  -5  -2  -2  186.95    5.21
  -5  -2  -2  181.13    5.38
  -5  -2  -2  191.82    4.58
   5   2   2  180.60    4.66
  -6  -2  -2    6.28    1.24
  -6  -2  -2    6.89    1.13
  -7  -2  -2  156.69    5.09
  -9   3   2   51.08    2.97
  -8   3   2   11.49    1.48
   7  -3  -2  115.16    3.27
  -7   3   2  112.33    3.77
   6  -3  -2    7.71    0.78
  -6   3   2    9.08    1.01
   5  -3  -2  292.20    7.03
  -5   3   2  283.81    7.29
   4  -3  -2    6.48    0.56
  -4   3   2    8.77    0.70
   3  -3  -2  726.26   16.30
   3  -3  -2  691.78   16.26
  -3   3   2  709.65   16.28
  -3   3   2  687.51   16.25
   2  -3  -2  175.80    4.19
   2  -3  -2  165.63    4.20
  -2   3   2  164.66    4.20
   1  -3  -2  708.09   16.34
   1  -3  -2  713.64   16.24
  -1   3   2  701.04   16.20
  -1   3   2  713.42   16.36
   0  -3  -2  232.64    5.74
   0  -3  -2  239.75    5.57
   0  -3  -2  233.02    5.65
   0   3   2  231.69    5.66
   0   3   2  230.01    5.58
  -1  -3  -2   20.79    0.84
  -1  -3  -2   24.09    0.91
  -1  -3  -2   21.88    1.01
   1   3   2   22.32    0.96
  -2  -3  -2  142.09    3.81
  -2  -3  -2  144.77    3.61
  -2  -3  -2  143.53    3.98
   2   3   2  138.16    3.85
  -3  -3  -2    8.85    0.99
  -3  -3  -2    8.56    0.60
  -3  -3  -2    8.62    0.79
  -3  -3  -2    8.85    0.97
   3   3   2   10.06    0.99
  -4  -3  -2  219.15    5.75
  -4  -3  -2  198.40    5.57
  -4  -3  -2  215.54    5.99
  -4  -3  -2  219.01    5.27
   4   3   2  222.26    6.06
  -5  -3  -2    1.11    0.44
  -5  -3  -2   -0.19    1.21
  -5  -3  -2    0.75    0.73
  -6  -3  -2  148.11    4.56
  -6  -3  -2  134.95    4.85
  -7  -3  -2   36.85    2.54
  -7  -3  -2   41.91    3.01
  -9   4   2    8.75    1.58
  -8   4   2   99.16    3.69
   7  -4  -2    4.55    0.79
  -7   4   2    4.05    0.93
   6  -4  -2  266.25    6.69
  -6   4   2  262.75    6.96
   5  -4  -2   10.27    0.85
  -5   4   2   12.31    0.99
   4  -4  -2  396.45    9.47
  -4   4   2  390.53    9.46
   3  -4  -2   56.58    1.77
   3  -4  -2   54.30    1.82
  -3   4   2   54.25    1.68
   2  -4  -2  415.66    9.91
   2  -4  -2  416.56    9.87
  -2   4   2  418.95    9.77
   1  -4  -2   46.93    1.50
   1  -4  -2   49.63    1.58
  -1   4   2   47.69    1.45
   0  -4  -2   48.93    1.55
   0  -4  -2   51.78    1.60
   0   4   2   47.70    1.54
  -1  -4  -2   89.65    2.51
   1   4   2   89.77    2.61
  -2  -4  -2   12.47    0.74
  -2  -4  -2   11.22    1.13
   2   4   2   12.47    1.00
  -3  -4  -2  182.94    4.65
  -3  -4  -2  186.20    5.34
  -3  -4  -2  183.12    4.95
   3   4   2  186.42    5.20
  -4  -4  -2    1.80    1.02
  -4  -4  -2   -0.04    0.42
   4   4   2    0.07    1.60
  -5  -4  -2  144.79    4.99
  -5  -4  -2  152.82    4.67
   5   4   2  161.45    5.11
  -6  -4  -2   13.48    1.91
  -6  -4  -2   17.10    1.73
  -8   5   2    1.18    1.12
   7  -5  -2  120.95    3.71
  -7   5   2  122.52    3.96
   6  -5  -2    0.20    0.62
  -6   5   2    0.90    0.67
   5  -5  -2  186.72    5.02
  -5   5   2  188.47    5.02
   4  -5  -2    7.86    0.79
  -4   5   2    9.43    0.78
   3  -5  -2  186.04    4.77
  -3   5   2  175.32    4.58
   2  -5  -2  162.14    4.28
  -2   5   2  160.13    4.11
   1  -5  -2   66.47    2.08
  -1   5   2   65.01    1.97
   0  -5  -2   91.19    2.59
   0   5   2   84.53    2.54
  -1  -5  -2   26.22    1.15
   1   5   2   27.36    1.29
  -2  -5  -2  214.25    5.48
  -2  -5  -2  218.96    6.17
   2   5   2  218.12    5.84
  -3  -5  -2   32.94    1.36
  -3  -5  -2   33.29    2.17
   3   5   2   35.31    1.99
  -4  -5  -2  194.24    6.01
  -4  -5  -2  193.60    4.99
  -4  -5  -2  195.94    5.54
   4   5   2  198.58    5.89
  -5  -5  -2   -0.45    0.98
  -5  -5  -2    0.45    1.50
   5   5   2    4.87    1.53
  -6  -5  -2  136.89    5.26
   8  -6  -2   97.62    3.57
  -8   6   2  103.64    3.74
   7  -6  -2    3.84    1.01
  -7   6   2    6.53    1.12
   6  -6  -2  137.71    4.16
  -6   6   2  141.67    4.15
   5  -6  -2    9.36    1.07
  -5   6   2    9.04    1.04
   4  -6  -2  127.47    3.99
  -4   6   2  139.99    3.73
   3  -6  -2  143.03    4.04
  -3   6   2  141.25    3.83
   2  -6  -2  127.82    3.62
  -2   6   2  123.84    3.45
   1  -6  -2  182.28    4.91
  -1   6   2  185.70    4.80
   0  -6  -2  118.72    3.39
   0   6   2  117.13    3.39
  -1  -6  -2  205.09    5.42
   1   6   2  212.93    5.64
  -2  -6  -2    1.79    1.12
  -2  -6  -2   -0.92    0.49
  -3  -6  -2  122.76    3.51
  -3  -6  -2  125.09    4.53
   3   6   2  125.04    4.19
  -4  -6  -2    2.31    1.04
  -4  -6  -2    0.83    1.36
   4   6   2    4.56    1.40
  -5  -6  -2   44.50    3.58
  -5  -6  -2   45.85    2.71
   5   6   2   46.77    3.42
   8  -7  -2    3.24    1.44
  -8   7   2    1.68    1.36
   7  -7  -2  114.01    3.95
  -7   7   2  120.04    3.89
   6  -7  -2    1.06    0.92
  -6   7   2   -0.29    0.79
   5  -7  -2   66.69    2.58
  -5   7   2   67.67    2.43
   4  -7  -2  105.98    3.42
  -4   7   2  105.57    3.20
   3  -7  -2  140.61    4.17
  -3   7   2  142.71    3.96
   2  -7  -2  136.31    3.98
  -2   7   2  132.42    3.79
   1  -7  -2   95.88    3.07
  -1   7   2   96.94    3.02
   0  -7  -2  152.15    4.35
   0   7   2  154.46    4.43
  -1  -7  -2   -2.26    1.07
  -1  -7  -2    0.87    0.65
   1   7   2    1.59    0.93
  -2  -7  -2  154.44    5.33
  -2  -7  -2  152.74    4.39
   2   7   2  160.42    4.86
  -3  -7  -2    4.63    1.67
  -3  -7  -2    2.82    0.94
   3   7   2    5.54    1.43
  -4  -7  -2   92.52    3.68
   4   7   2   95.48    4.16
   6  -8  -2   24.62    2.10
  -6   8   2   26.21    1.87
   5  -8  -2   18.63    1.75
  -5   8   2   23.82    1.65
   4  -8  -2   48.61    2.27
  -4   8   2   48.02    2.08
   3  -8  -2   45.10    2.15
  -3   8   2   47.99    2.04
   2  -8  -2   62.11    2.51
  -2   8   2   63.37    2.40
   1  -8  -2  113.75    3.69
  -1   8   2  117.42    3.66
   0  -8  -2   16.67    1.54
   0   8   2   17.95    1.76
  -1  -8  -2  135.32    5.10
  -1  -8  -2  131.18    4.14
   1   8   2  142.37    4.56
  -2  -8  -2    6.29    1.93
  -2  -8  -2    5.08    1.08
   2   8   2    3.86    1.47
  -4   9   2   94.92    3.38
  -3   9   2   94.34    3.32
   2  -9  -2  114.01    3.99
  -2   9   2  122.39    3.92
   1  -9  -2   20.63    1.96
  -1   9   2   21.80    2.00
   0  -9  -2  154.74    4.90
   0   9   2  165.02    5.12
  -1  -9  -2    6.45    1.36
   1   9   2    8.23    1.71
  -1  -9   3  144.96    4.58
   0   9  -3    3.17    1.33
   0  -9   3    3.65    1.65
   0  -9   3    3.53    1.16
  -1   9  -3  142.83    4.62
   1  -9   3  145.62    4.61
  -2   9  -3   18.65    1.84
   2  -9   3   16.46    1.92
  -3   9  -3   74.91    3.11
   3  -9   3   76.33    3.23
  -4   9  -3   65.44    2.90
   2   8  -3  237.12    6.96
  -2  -8   3  248.51    6.50
  -2  -8   3  240.62    7.35
   1   8  -3    0.24    0.99
  -1  -8   3    1.22    1.29
  -1  -8   3    2.75    0.96
   0   8  -3  171.63    5.13
   0  -8   3  170.11    5.48
   0  -8   3  178.44    5.02
  -1   8  -3   17.90    1.55
   1  -8   3   15.83    1.53
  -2   8  -3   74.07    2.77
   2  -8   3   73.07    2.82
  -3   8  -3   26.37    1.69
   3  -8   3   24.80    1.77
  -4   8  -3   26.78    1.82
   4  -8   3   29.68    2.01
  -5   8  -3   53.85    2.55
   5  -8   3   51.91    2.64
  -6   8  -3    8.96    1.50
   4   7  -3   14.90    1.91
  -4  -7   3   11.36    1.94
   3   7  -3   74.28    3.23
  -3  -7   3   77.23    3.53
   2   7  -3    5.22    1.10
  -2  -7   3    2.66    0.75
  -2  -7   3    4.60    1.19
   1   7  -3  157.46    4.63
  -1  -7   3  156.12    4.37
  -1  -7   3  153.34    4.94
   0   7  -3   11.95    1.23
   0  -7   3   10.42    1.14
  -1   7  -3  117.55    3.58
   1  -7   3  116.45    3.57
  -2   7  -3   47.73    1.97
   2  -7   3   46.23    2.01
  -3   7  -3   61.41    2.35
   3  -7   3   61.26    2.42
  -4   7  -3  188.93    5.35
   4  -7   3  192.19    5.47
  -5   7  -3   18.33    1.55
   5  -7   3   18.10    1.71
  -6   7  -3  118.59    4.06
   6  -7   3  121.11    4.11
  -7   7  -3    5.68    1.77
   7  -7   3    4.57    1.49
   5   6  -3    9.92    1.72
  -5  -6   3    8.46    1.81
   4   6  -3  159.02    5.08
  -4  -6   3  152.69    5.24
   3   6  -3    1.04    0.96
  -3  -6   3    1.91    0.60
  -3  -6   3    1.76    1.01
   2   6  -3  235.81    6.46
  -2  -6   3  239.89    6.04
  -2  -6   3  240.36    6.74
   1   6  -3   18.90    1.25
  -1  -6   3   17.28    1.08
  -1  -6   3   18.35    1.46
   0   6  -3  225.70    5.92
   0  -6   3  225.57    5.83
  -1   6  -3   68.98    2.32
   1  -6   3   69.48    2.31
  -2   6  -3  114.23    3.32
   2  -6   3  109.21    3.33
  -3   6  -3  160.53    4.46
   3  -6   3  159.75    4.53
  -4   6  -3   35.31    1.73
   4  -6   3   35.77    1.75
  -5   6  -3  102.39    3.43
   5  -6   3  105.28    3.44
  -6   6  -3   19.40    1.66
   6  -6   3   18.23    1.58
  -7   6  -3   86.34    3.43
   7  -6   3   82.29    3.34
   8  -6   3   -0.14    1.45
   6   5  -3   16.10    2.14
  -6  -5   3   15.61    2.05
  -6  -5   3   15.22    1.72
   5   5  -3  146.59    5.01
  -5  -5   3  148.83    4.64
  -5  -5   3  153.28    5.18
   4   5  -3   19.50    1.72
  -4  -5   3   20.42    1.80
   3   5  -3  147.18    4.74
  -3  -5   3  161.36    3.97
  -3  -5   3  154.35    4.81
   2   5  -3    4.89    0.80
  -2  -5   3    5.28    0.63
  -2  -5   3    6.02    0.94
   1   5  -3  436.88   10.52
  -1  -5   3  426.35   10.71
  -1  -5   3  435.26   10.31
   0   5  -3   62.40    2.00
   0  -5   3   57.10    1.91
  -1   5  -3   80.06    2.41
   1  -5   3   76.57    2.38
  -2   5  -3  238.20    6.04
   2  -5   3  237.91    6.07
  -3   5  -3   65.63    2.20
   3  -5   3   63.90    2.21
  -4   5  -3  106.55    3.33
   4  -5   3  112.07    3.33
  -5   5  -3   -0.49    0.63
   5  -5   3    0.57    0.61
  -6   5  -3  152.06    4.67
   6  -5   3  152.10    4.55
  -7   5  -3    3.30    1.05
   7  -5   3    1.82    1.00
   8  -5   3  119.63    4.31
   7   4  -3   11.29    2.21
  -7  -4   3    7.45    1.93
  -7  -4   3    8.80    1.61
   6   4  -3   88.74    3.92
  -6  -4   3  103.27    4.09
  -6  -4   3   96.62    3.47
   5   4  -3   16.20    1.75
  -5  -4   3   15.91    1.84
  -5  -4   3   14.96    1.38
   4   4  -3  222.05    6.14
  -4  -4   3  217.37    6.24
   3   4  -3    8.60    1.03
   3   4  -3    8.40    0.60
  -3  -4   3    8.50    0.69
  -3  -4   3    8.72    0.59
  -3  -4   3    8.59    1.08
   2   4  -3  247.98    5.88
   2   4  -3  243.52    6.26
  -2  -4   3  242.95    5.90
  -2  -4   3  245.50    6.43
   1   4  -3   60.41    1.90
   1   4  -3   56.61    1.70
  -1  -4   3   57.52    1.73
  -1  -4   3   59.07    2.04
   0   4  -3  174.84    4.47
   0   4  -3  184.32    4.60
   0  -4   3  180.56    4.52
  -1   4  -3    9.77    0.66
   1  -4   3    9.32    0.65
  -2   4  -3  377.74    9.15
   2  -4   3  382.37    9.17
  -3   4  -3  161.51    4.43
   3  -4   3  170.75    4.43
  -4   4  -3   37.49    1.61
   4  -4   3   38.47    1.56
  -5   4  -3  252.23    6.66
   5  -4   3  245.59    6.48
  -6   4  -3    2.28    0.85
   6  -4   3    3.28    0.82
   7  -4   3  131.82    4.20
  -8   4  -3    1.46    1.24
  -7  -3   3  116.16    4.11
  -7  -3   3  113.91    4.59
   6   3  -3    9.55    1.48
  -6  -3   3    6.79    1.05
  -6  -3   3    9.26    1.45
  -5  -3   3  168.83    6.05
   4   3  -3   16.36    1.27
  -4  -3   3   18.49    1.38
   3   3  -3  174.32    4.62
   3   3  -3  168.62    4.01
  -3  -3   3  169.19    4.03
  -3  -3   3  168.54    4.71
  -3  -3   3  167.17    4.04
   2   3  -3   61.26    1.97
   2   3  -3   63.67    1.65
  -2  -3   3   62.33    2.10
  -2  -3   3   61.77    1.68
   1   3  -3  624.74   14.61
   1   3  -3  639.58   14.43
  -1  -3   3  612.89   14.57
  -1  -3   3  622.89   14.72
  -1  -3   3  643.45   14.51
   0   3  -3   11.57    0.59
   0  -3   3   11.32    0.62
   0  -3   3   10.64    0.59
  -1   3  -3  589.34   13.77
  -1   3  -3  593.11   13.82
   1  -3   3  609.38   13.86
   1  -3   3  587.44   13.83
  -2   3  -3  339.48    8.18
  -2   3  -3  336.93    8.25
   2  -3   3  347.96    8.33
   2  -3   3  348.50    8.25
  -3   3  -3   77.09    2.35
   3  -3   3   74.92    2.27
  -4   3  -3  169.67    4.66
   4  -3   3  171.60    4.54
  -5   3  -3    1.68    0.65
   5  -3   3    1.10    0.55
  -6   3  -3  181.45    5.28
   6  -3   3  179.35    5.01
  -7   3  -3    3.21    1.04
   7  -3   3    1.73    0.97
  -8   3  -3   69.12    3.24
  -8  -2   3   54.76    2.97
  -7  -2   3   24.71    1.87
   6   2  -3  253.84    7.38
  -6  -2   3  259.14    6.98
  -6  -2   3  265.20    7.38
   5   2  -3    1.54    0.82
  -5  -2   3    2.22    0.60
  -5  -2   3    1.73    0.80
   4   2  -3  413.43   10.34
  -4  -2   3  423.67   10.45
  -4  -2   3  419.00   10.14
   3   2  -3  264.94    6.63
  -3  -2   3  264.39    6.73
   2   2  -3  711.91   16.25
   2   2  -3  729.35   16.72
   2   2  -3  718.12   16.60
  -2  -2   3  708.53   16.51
  -2  -2   3  714.36   16.29
  -2  -2   3  716.47   16.72
   1   2  -3  157.21    3.89
   1   2  -3  160.41    3.76
  -1  -2   3  159.21    3.86
  -1  -2   3  154.14    3.79
   0   2  -3  422.85    9.50
   0   2  -3  393.63    9.54
   0  -2   3  415.42    9.52
   0  -2   3  406.52    9.52
  -1   2  -3   95.86    2.49
  -1   2  -3   94.36    2.51
   1  -2   3   94.91    2.53
   1  -2   3   99.05    2.55
  -2   2  -3   72.84    1.98
  -2   2  -3   72.16    2.07
   2  -2   3   66.66    2.04
   2  -2   3   69.80    2.02
  -3   2  -3  146.88    3.94
  -3   2  -3  143.01    3.74
   3  -2   3  150.16    3.85
  -4   2  -3   30.15    1.36
   4  -2   3   28.35    1.24
   4  -2   3   27.65    1.26
  -5   2  -3  152.93    4.40
   5  -2   3  151.54    4.21
  -6   2  -3   23.55    1.54
   6  -2   3   19.82    1.41
  -7   2  -3   79.24    3.15
   7  -2   3   80.59    2.96
  -8   2  -3   13.81    1.80
  -8  -1   3   27.50    2.29
  -7  -1   3  123.64    4.07
  -6  -1   3    1.21    0.70
   5   1  -3  205.81    5.82
  -5  -1   3  211.41    5.54
   4   1  -3   35.54    1.54
  -4  -1   3   33.78    1.32
  -4  -1   3   34.08    1.58
   3   1  -3  252.82    6.26
  -3  -1   3  251.85    6.14
  -3  -1   3  251.76    6.35
  -3  -1   3  250.63    6.13
   2   1  -3   22.84    0.96
   2   1  -3   23.22    0.62
  -2  -1   3   23.09    0.69
  -2  -1   3   22.56    0.81
  -2  -1   3   22.44    0.95
   1   1  -3  436.34   10.07
   1   1  -3  439.25   10.16
   1   1  -3  433.25   10.03
  -1  -1   3  445.12   10.08
  -1  -1   3  439.27   10.16
  -1  -1   3  432.92   10.05
   0   1  -3  137.14    3.27
   0   1  -3  134.43    3.32
   0  -1   3  135.62    3.36
   0  -1   3  140.01    3.27
   0  -1   3  133.41    3.21
  -1   1  -3  280.70    6.62
  -1   1  -3  273.93    6.60
   1  -1   3  284.05    6.62
   1  -1   3  281.86    6.66
  -2   1  -3  355.80    8.42
   2  -1   3  358.94    8.50
   2  -1   3  357.89    8.50
   2  -1   3  358.84    8.31
  -3   1  -3  132.14    3.37
  -3   1  -3  131.51    3.52
   3  -1   3  129.08    3.47
   3  -1   3  133.94    3.36
   3  -1   3  124.63    3.53
  -4   1  -3  429.38   10.50
  -4   1  -3  462.10   10.84
   4  -1   3  448.14   10.65
   4  -1   3  444.15   10.70
  -5   1  -3    0.01    0.53
   5  -1   3   -0.04    0.52
  -6   1  -3  252.36    6.89
   6  -1   3  256.61    6.71
  -7   1  -3   15.52    1.64
   7  -1   3   18.87    2.10
  -8   1  -3  109.29    4.15
  -8   0   3   94.30    3.63
  -7   0   3    1.87    0.85
  -6   0   3  318.82    8.18
  -5   0   3   12.46    0.95
  -4   0   3  136.40    3.65
   3   0  -3  264.97    6.08
   3   0  -3  264.34    6.73
   3   0  -3  264.23    6.17
   3   0  -3  265.46    6.63
  -3   0   3  270.29    6.41
   2   0  -3  407.09    9.44
   2   0  -3  396.33    9.57
   2   0  -3  393.17    9.31
   2   0  -3  407.20    9.34
  -2   0   3  398.32    9.37
  -2   0   3  427.27    9.39
  -2   0   3  411.66    9.39
   1   0  -3  248.47    5.86
   1   0  -3  243.75    5.69
  -1   0   3  251.35    5.84
   0   0  -3   99.06    2.35
   0   0  -3   99.70    2.58
   0   0   3   98.25    2.58
  -1   0  -3  481.00   11.06
  -1   0  -3  472.47   10.93
  -1   0  -3  471.98   11.19
   1   0   3  491.55   11.07
   1   0   3  483.41   11.25
  -2   0  -3  454.58   10.67
  -2   0  -3  443.82   10.54
  -2   0  -3  440.75   10.64
   2   0   3  452.02   10.51
   2   0   3  446.91   10.63
   2   0   3  490.88   11.58
  -3   0  -3  470.23   10.49
  -3   0  -3  438.08   10.50
  -3   0  -3  455.35   10.60
   3   0   3  453.86   10.46
   3   0   3  442.57   10.62
   3   0   3  402.81   10.74
  -4   0  -3   12.73    0.82
  -4   0  -3   13.19    0.93
   4   0   3   10.90    0.94
   4   0   3   12.82    0.95
  -5   0  -3  208.33    5.61
   5   0   3  203.32    5.43
  -6   0  -3   10.70    1.24
   6   0   3   13.82    1.32
  -7   0  -3   85.96    3.34
  -8   0  -3    5.94    1.43
  -9   1   3  106.75    4.25
  -8   1   3   17.15    1.81
  -7   1   3  145.07    4.45
   6  -1  -3   24.00    0.93
  -6   1   3   21.08    0.99
  -6   1   3   24.37    1.44
   5  -1  -3  223.87    5.33
   5  -1  -3  226.40    5.37
  -5   1   3  226.60    5.31
  -5   1   3  219.79    5.80
   4  -1  -3   22.62    0.77
   4  -1  -3   23.81    1.00
   4  -1  -3   22.64    0.84
  -4   1   3   22.99    1.11
  -4   1   3   25.11    1.06
  -4   1   3   22.63    0.78
   3  -1  -3  238.66    5.60
   3  -1  -3  237.15    5.63
   3  -1  -3  234.10    5.53
  -3   1   3  235.33    5.54
  -3   1   3  234.30    5.73
   2  -1  -3  816.93   18.69
   2  -1  -3  829.17   18.77
   2  -1  -3  805.24   18.64
  -2   1   3  815.58   18.71
  -2   1   3  833.17   18.69
  -2   1   3  827.15   18.71
   1  -1  -3  292.22    6.84
   1  -1  -3  298.50    6.92
  -1   1   3  288.06    6.89
   0  -1  -3  533.36   12.28
   0  -1  -3  556.47   12.30
   0   1   3  527.47   12.31
   0   1   3  547.40   12.55
  -1  -1  -3   25.58    0.87
  -1  -1  -3   25.19    0.99
  -1  -1  -3   23.78    0.81
  -1  -1  -3   26.32    0.87
   1   1   3   25.07    0.98
  -2  -1  -3  397.54    9.23
  -2  -1  -3  389.22    9.27
  -2  -1  -3  376.35    9.19
  -2  -1  -3  390.34    9.16
   2   1   3  383.71    9.23
  -3  -1  -3    0.58    0.43
  -3  -1  -3    1.52    0.44
  -3  -1  -3    0.64    0.37
   3   1   3    1.36    0.42
   3   1   3    1.32    0.43
  -4  -1  -3  170.33    4.80
  -4  -1  -3  178.56    4.58
  -4  -1  -3  180.43    4.79
   4   1   3  178.78    4.65
  -5  -1  -3    8.55    0.94
  -5  -1  -3    8.81    1.08
  -5  -1  -3   10.79    1.13
   5   1   3   10.24    1.02
  -6  -1  -3  169.34    5.03
   6   1   3  168.78    4.57
  -7  -1  -3   24.20    1.96
  -9   2   3   12.25    1.74
  -8   2   3   94.32    3.55
  -7   2   3   53.78    2.54
   6  -2  -3  181.61    4.54
  -6   2   3  183.00    5.04
  -6   2   3  179.20    4.51
   5  -2  -3    1.47    0.33
  -5   2   3    1.52    0.39
  -5   2   3    2.50    0.54
   4  -2  -3   86.94    2.35
   4  -2  -3   87.73    2.47
  -4   2   3   86.30    2.54
  -4   2   3   93.52    2.38
   3  -2  -3  469.15   11.01
   3  -2  -3  495.20   11.01
  -3   2   3  441.08   11.20
  -3   2   3  487.54   11.01
   2  -2  -3  201.66    4.92
   2  -2  -3  202.79    4.73
   2  -2  -3  183.98    4.95
  -2   2   3  209.18    4.86
  -2   2   3  202.74    4.72
   1  -2  -3  102.35    2.76
   1  -2  -3  103.60    2.59
  -1   2   3  117.81    2.68
  -1   2   3  109.32    2.79
   0  -2  -3    6.34    0.68
   0  -2  -3    6.87    0.55
   0  -2  -3    7.11    0.35
   0   2   3    6.78    0.38
   0   2   3    5.54    0.57
  -1  -2  -3  640.03   15.04
  -1  -2  -3  670.53   15.21
  -1  -2  -3  660.06   15.02
   1   2   3  636.68   15.12
  -2  -2  -3  109.42    3.02
  -2  -2  -3  104.99    2.91
  -2  -2  -3  105.13    2.85
  -2  -2  -3  107.34    3.01
  -2  -2  -3  108.30    2.81
   2   2   3  104.82    2.90
   2   2   3  103.37    2.99
  -3  -2  -3  284.59    7.26
  -3  -2  -3  288.55    7.14
  -3  -2  -3  288.45    7.20
  -3  -2  -3  289.08    6.94
   3   2   3  287.75    7.37
   3   2   3  289.46    7.06
  -4  -2  -3    8.77    0.93
  -4  -2  -3   10.42    0.73
  -4  -2  -3    7.20    0.90
  -4  -2  -3   10.19    1.12
   4   2   3    9.75    0.87
  -5  -2  -3  281.08    7.60
  -5  -2  -3  297.65    6.91
  -5  -2  -3  253.35    8.50
   5   2   3  294.37    7.03
  -6  -2  -3   26.01    1.78
  -6  -2  -3   22.41    2.02
  -7  -2  -3   58.74    2.88
  -9   3   3   60.89    3.18
  -8   3   3   14.08    1.62
   7  -3  -3   62.85    2.10
  -7   3   3   61.95    3.50
   6  -3  -3    3.45    0.56
  -6   3   3    5.44    0.85
   5  -3  -3  125.45    3.33
  -5   3   3  123.84    3.56
   4  -3  -3   40.52    1.45
   4  -3  -3   40.29    1.39
  -4   3   3   43.55    1.49
   3  -3  -3  220.51    5.31
   3  -3  -3  214.33    5.33
  -3   3   3  216.94    5.31
   2  -3  -3  368.31    8.71
   2  -3  -3  351.86    8.81
   2  -3  -3  384.60    8.61
  -2   3   3  372.55    8.53
  -2   3   3  360.78    8.73
   1  -3  -3  313.26    7.24
   1  -3  -3  297.05    7.05
   1  -3  -3  292.10    7.32
  -1   3   3  306.85    7.03
  -1   3   3  298.66    7.23
   0  -3  -3  593.82   14.30
   0  -3  -3  616.45   14.17
   0  -3  -3  639.27   14.03
   0   3   3  589.29   14.18
  -1  -3  -3   63.19    2.11
  -1  -3  -3   68.63    1.95
  -1  -3  -3   67.05    1.92
   1   3   3   68.98    2.01
  -2  -3  -3  585.92   13.60
  -2  -3  -3  576.27   13.95
  -2  -3  -3  585.55   13.69
   2   3   3  584.29   13.85
  -3  -3  -3   66.26    2.43
  -3  -3  -3   68.07    2.22
  -3  -3  -3   70.51    2.05
   3   3   3   67.73    2.45
   3   3   3   68.90    2.15
  -4  -3  -3  178.94    4.37
  -4  -3  -3  171.19    4.75
  -4  -3  -3  159.35    4.93
   4   3   3  169.09    5.07
  -5  -3  -3   23.36    1.63
  -5  -3  -3   24.87    1.15
  -6  -3  -3   87.42    3.35
  -6  -3  -3   81.50    3.56
  -7  -3  -3   45.59    3.22
  -7  -3  -3   45.74    2.95
  -9   4   3    5.74    1.53
  -8   4   3  166.48    5.16
   7  -4  -3    0.31    0.66
  -7   4   3    2.00    0.87
   6  -4  -3  184.80    4.90
  -6   4   3  187.07    5.13
   5  -4  -3   58.36    1.97
  -5   4   3   60.53    2.05
   4  -4  -3  187.01    4.82
  -4   4   3  187.69    4.77
   3  -4  -3  142.38    3.76
   3  -4  -3  142.79    3.72
  -3   4   3  141.29    3.61
   2  -4  -3  118.55    3.07
   2  -4  -3  117.54    3.16
  -2   4   3  112.99    2.96
   1  -4  -3  181.74    4.52
   1  -4  -3  172.75    4.36
  -1   4   3  174.06    4.32
   0  -4  -3    9.15    0.65
   0  -4  -3    8.60    0.67
   0   4   3    8.32    0.63
  -1  -4  -3  200.46    5.08
   1   4   3  202.41    5.17
  -2  -4  -3   12.57    1.24
  -2  -4  -3   13.40    0.83
   2   4   3   13.69    1.04
  -3  -4  -3   21.05    1.57
  -3  -4  -3   17.09    1.18
  -3  -4  -3   19.29    0.99
   3   4   3   19.81    1.43
  -4  -4  -3   45.30    1.62
  -4  -4  -3   45.37    2.05
   4   4   3   45.52    2.41
  -5  -4  -3   63.34    2.68
  -5  -4  -3   57.54    2.99
  -6  -4  -3   19.47    1.97
  -6  -4  -3   19.76    2.50
  -9   5   3   72.00    3.45
  -8   5   3   10.29    1.48
   7  -5  -3   76.20    2.69
  -7   5   3   78.13    2.88
   6  -5  -3    1.50    0.66
  -6   5   3    0.08    0.67
   5  -5  -3  145.65    4.08
  -5   5   3  146.83    4.03
   4  -5  -3   27.70    1.29
  -4   5   3   26.88    1.18
   3  -5  -3  157.73    4.18
  -3   5   3  150.68    3.95
   2  -5  -3  335.86    8.20
  -2   5   3  331.82    7.98
   1  -5  -3   55.86    1.88
  -1   5   3   55.68    1.74
   0  -5  -3  280.43    6.87
   0   5   3  269.92    6.80
  -1  -5  -3    0.50    0.42
   1   5   3    1.10    0.55
  -2  -5  -3  262.32    6.59
  -2  -5  -3  259.27    7.23
   2   5   3  269.06    6.95
  -3  -5  -3    6.49    1.22
  -3  -5  -3    7.70    0.84
  -3  -5  -3    8.82    1.21
  -4  -5  -3  131.06    4.74
  -4  -5  -3  139.46    3.83
  -4  -5  -3  145.05    4.33
   4   5   3  146.58    4.76
  -5  -5  -3   41.36    2.37
  -5  -5  -3   34.80    2.95
   5   5   3   39.19    2.97
  -6  -5  -3  128.37    5.28
   8  -6  -3   74.83    3.04
  -8   6   3   80.26    3.19
   7  -6  -3    1.35    0.87
  -7   6   3   -1.06    0.92
   6  -6  -3  123.98    3.64
  -6   6   3  104.10    3.85
   5  -6  -3   49.09    2.02
  -5   6   3   49.34    1.87
   4  -6  -3   87.89    2.87
  -4   6   3   89.60    2.65
   3  -6  -3   96.19    3.80
  -3   6   3   96.00    2.76
   2  -6  -3   83.55    2.67
  -2   6   3   83.02    2.46
   1  -6  -3  130.31    3.73
  -1   6   3  131.76    3.61
   0  -6  -3   67.22    2.25
   0   6   3   64.67    2.26
  -1  -6  -3  214.39    5.67
   1   6   3  220.29    5.86
  -2  -6  -3   -0.77    1.12
  -2  -6  -3   -0.24    0.58
  -3  -6  -3   89.52    2.81
  -3  -6  -3   82.74    3.70
  -3  -6  -3   85.06    3.09
   3   6   3   92.24    3.50
  -4  -6  -3   12.72    1.47
  -4  -6  -3   13.58    1.96
   4   6   3    9.29    1.74
  -5  -6  -3   41.32    4.58
  -5  -6  -3   42.77    2.80
   5   6   3   38.63    3.95
   8  -7  -3    7.08    1.79
   7  -7  -3  129.90    4.20
  -7   7   3  126.28    4.07
   6  -7  -3   26.23    1.83
  -6   7   3   30.64    1.73
   5  -7  -3   59.40    2.35
  -5   7   3   46.42    2.34
   4  -7  -3   97.09    3.20
  -4   7   3   96.75    2.96
   3  -7  -3   88.20    2.97
  -3   7   3   89.06    2.75
   2  -7  -3  174.55    4.88
  -2   7   3  172.13    4.65
   1  -7  -3    5.19    0.83
  -1   7   3    5.52    0.86
   0  -7  -3  172.02    4.87
   0   7   3  179.46    4.95
  -1  -7  -3   14.48    1.25
   1   7   3   13.60    1.54
  -2  -7  -3   93.74    3.01
  -2  -7  -3   86.58    3.91
   2   7   3   92.67    3.51
  -3  -7  -3    3.29    0.95
  -3  -7  -3    3.80    1.15
  -3  -7  -3    3.74    1.81
   3   7   3    4.04    1.52
  -4  -7  -3   54.26    2.96
   4   7   3   52.28    3.74
   6  -8  -3   37.92    3.27
   5  -8  -3   31.75    1.99
  -5   8   3   30.03    1.81
   4  -8  -3   25.23    1.80
  -4   8   3   29.18    1.67
   3  -8  -3   80.23    2.99
  -3   8   3   79.97    2.77
   2  -8  -3   11.49    1.24
  -2   8   3   11.50    1.38
   1  -8  -3  111.74    3.63
  -1   8   3  111.72    3.60
   0  -8  -3    8.90    1.15
   0   8   3    9.68    1.30
  -1  -8  -3  160.59    4.80
  -1  -8  -3  155.83    5.69
   1   8   3  174.09    5.19
  -2  -8  -3   -1.27    0.98
   2   8   3    0.72    1.53
   1  -9  -3    8.85    1.71
  -1   9   3    8.62    1.57
   0  -9  -3  178.45    6.81
   0   9   3  181.95    5.70
   1   9   3   -0.50    1.68
  -1  -9   4  104.44    3.79
   0   9  -4   12.23    1.58
   0  -9   4   11.57    1.93
   0  -9   4   11.14    1.49
  -1   9  -4  140.04    4.62
   1  -9   4  143.24    4.67
  -2   9  -4   43.67    2.41
   2  -9   4   43.71    2.50
  -3   9  -4   80.55    3.22
   3  -9   4   78.33    3.36
   2   8  -4  150.12    4.93
  -2  -8   4  147.59    4.59
  -2  -8   4  146.07    5.26
   1   8  -4   17.31    1.72
  -1  -8   4   16.85    1.88
  -1  -8   4   14.10    1.63
   0   8  -4  170.13    5.12
   0  -8   4  171.41    5.44
   0  -8   4  176.24    5.06
  -1   8  -4   70.00    2.79
   1  -8   4   76.56    2.87
  -2   8  -4   73.42    2.82
   2  -8   4   75.26    2.89
  -3   8  -4   72.23    2.83
   3  -8   4   74.52    2.98
  -4   8  -4   11.54    1.43
   4  -8   4   14.04    1.52
  -5   8  -4   31.91    2.17
   5  -8   4   39.15    2.36
   4   7  -4    3.99    1.46
  -4  -7   4    0.83    1.52
   3   7  -4   86.78    3.52
  -3  -7   4   87.68    3.72
   2   7  -4   32.35    1.99
  -2  -7   4   32.78    1.65
  -2  -7   4   32.18    2.27
   1   7  -4  131.56    4.07
  -1  -7   4  133.26    3.84
  -1  -7   4  125.91    4.29
   0   7  -4   22.95    1.50
   0  -7   4   23.14    1.48
   0  -7   4   25.20    1.82
  -1   7  -4   81.19    2.79
   1  -7   4   79.36    2.78
  -2   7  -4  130.81    3.91
   2  -7   4  129.79    3.97
  -3   7  -4   56.98    2.32
   3  -7   4   56.92    2.36
  -4   7  -4  130.98    4.08
   4  -7   4  133.90    4.21
  -5   7  -4    5.49    1.08
   5  -7   4    7.07    1.14
  -6   7  -4  127.39    4.29
   6  -7   4  127.56    4.36
   7  -7   4    6.16    1.93
   5   6  -4    7.09    1.61
  -5  -6   4    2.87    1.59
   4   6  -4  155.75    5.08
  -4  -6   4  156.16    5.26
   3   6  -4    2.59    0.97
  -3  -6   4    4.35    0.72
  -3  -6   4    5.14    1.11
   2   6  -4  141.72    4.32
  -2  -6   4  144.10    4.53
  -2  -6   4  143.62    3.92
   1   6  -4   39.81    1.80
  -1  -6   4   40.34    2.02
  -1  -6   4   38.82    1.59
   0   6  -4  159.01    4.46
   0  -6   4  161.63    4.38
  -1   6  -4  141.47    3.97
   1  -6   4  138.36    3.97
  -2   6  -4   73.91    2.48
   2  -6   4   72.56    2.50
  -3   6  -4  202.16    5.51
  -4   6  -4   40.53    1.86
   4  -6   4   39.75    1.91
  -5   6  -4  191.02    5.49
   5  -6   4  192.45    5.49
  -6   6  -4    2.20    0.98
   6  -6   4    0.92    0.96
  -7   6  -4   95.48    3.67
   7  -6   4   91.35    3.62
   8  -6   4    3.42    1.69
   6   5  -4   15.72    2.07
  -6  -5   4   12.98    1.60
  -6  -5   4   15.59    2.11
   5   5  -4  143.11    4.77
  -5  -5   4  134.35    4.83
   4   5  -4    2.75    1.00
  -4  -5   4    1.84    0.96
  -3  -5   4   94.71    3.40
  -3  -5   4   93.74    2.62
   2   5  -4   20.55    1.28
  -2  -5   4   21.86    1.46
  -2  -5   4   20.24    1.02
   1   5  -4  121.83    3.50
  -1  -5   4  123.16    3.67
  -1  -5   4  119.70    3.32
   0   5  -4   61.25    2.04
   0  -5   4   59.41    1.97
  -1   5  -4   94.23    2.80
   1  -5   4   93.98    2.80
  -2   5  -4  310.38    7.84
   2  -5   4  322.70    7.91
  -3   5  -4   81.56    2.64
   3  -5   4   83.01    2.66
  -4   5  -4  281.61    7.28
   4  -5   4  279.03    7.26
  -5   5  -4   11.95    1.27
   5  -5   4   10.88    1.27
  -6   5  -4  140.62    4.47
   6  -5   4  143.56    4.41
  -7   5  -4    4.15    1.23
   7  -5   4    2.10    1.04
   8  -5   4   58.96    3.28
   7   4  -4   24.11    2.52
  -7  -4   4   25.65    2.36
  -7  -4   4   23.62    3.10
   6   4  -4  140.88    4.94
  -6  -4   4  132.12    4.38
  -6  -4   4  137.40    4.94
   5   4  -4   12.47    1.48
  -5  -4   4   11.65    1.44
  -5  -4   4   10.93    1.29
   4   4  -4  146.57    4.41
  -4  -4   4  140.77    4.51
   3   4  -4   39.60    1.78
   3   4  -4   42.44    1.28
  -3  -4   4   42.18    1.91
  -3  -4   4   42.97    1.34
   2   4  -4   62.61    2.08
   2   4  -4   59.18    1.73
  -2  -4   4   62.20    2.23
  -2  -4   4   59.29    1.78
   1   4  -4  147.43    3.83
   1   4  -4  154.99    4.06
  -1  -4   4  159.14    3.93
  -1  -4   4  148.66    4.15
   0   4  -4   26.77    1.11
   0  -4   4   25.88    1.08
  -1   4  -4  118.69    3.25
   1  -4   4  120.61    3.28
  -2   4  -4    5.25    0.63
   2  -4   4    4.47    0.59
  -3   4  -4  354.67    8.71
   3  -4   4  351.96    8.70
  -4   4  -4   18.39    1.18
   4  -4   4   17.57    1.15
  -5   4  -4  159.57    5.08
   5  -4   4  152.39    4.46
  -6   4  -4    2.97    0.89
  -7   4  -4  173.69    5.45
   7  -4   4  180.32    5.37
  -8   4  -4    6.03    1.96
   8  -4   4    9.65    2.41
   7   3  -4  104.35    4.53
  -7  -3   4  111.47    4.01
  -7  -3   4  116.47    4.52
   6   3  -4   33.62    2.39
  -6  -3   4   35.76    2.36
  -6  -3   4   31.99    1.89
  -5  -3   4  123.53    4.20
   4   3  -4   59.21    2.29
  -4  -3   4   56.08    2.36
   3   3  -4  324.01    7.97
   3   3  -4  320.42    7.33
  -3  -3   4  315.08    7.39
  -3  -3   4  310.38    8.05
   2   3  -4   40.73    1.20
  -2  -3   4   42.45    1.60
  -2  -3   4   41.60    1.26
   1   3  -4  163.09    3.79
   1   3  -4  153.48    3.94
  -1  -3   4  143.17    3.87
  -1  -3   4  154.18    3.84
  -1  -3   4  152.69    4.03
   0   3  -4  405.94    9.48
   0   3  -4  413.35    9.42
   0  -3   4  390.23    9.45
   0  -3   4  394.53    9.45
  -1   3  -4  174.32    4.41
  -1   3  -4  178.11    4.44
   1  -3   4  180.31    4.49
   1  -3   4  172.83    4.47
  -2   3  -4  903.19   20.92
   2  -3   4  905.35   20.93
  -3   3  -4   81.80    2.56
   3  -3   4   87.05    2.57
  -4   3  -4  353.97    8.85
   4  -3   4  353.74    8.77
  -5   3  -4    1.75    0.65
   5  -3   4    1.89    0.65
  -6   3  -4  194.72    5.69
   6  -3   4  201.51    5.58
  -7   3  -4   30.64    2.03
   7  -3   4   26.99    2.67
  -8   3  -4   23.40    2.23
  -8  -2   4  109.35    4.17
  -7  -2   4    7.75    1.25
   6   2  -4  267.48    7.61
  -6  -2   4  277.44    7.66
  -6  -2   4  270.65    7.24
   5   2  -4    4.41    0.89
  -5  -2   4    4.01    0.72
  -5  -2   4    4.16    0.93
   4   2  -4  355.51    8.91
  -4  -2   4  356.39    9.05
   3   2  -4   79.24    2.45
  -3  -2   4   81.61    2.57
   2   2  -4  164.24    3.80
   2   2  -4  155.17    4.18
   2   2  -4  165.55    4.11
  -2  -2   4  161.30    3.88
  -2  -2   4  157.07    4.00
  -2  -2   4  158.18    4.20
   1   2  -4  200.95    5.38
   1   2  -4  211.14    5.25
   1   2  -4  219.55    5.10
  -1  -2   4  208.39    5.14
  -1  -2   4  231.64    5.91
  -1  -2   4  215.13    5.15
   0   2  -4   26.88    0.92
   0   2  -4   25.90    0.91
   0  -2   4   26.01    0.91
   0  -2   4   27.25    0.89
   0  -2   4   26.58    0.97
  -1   2  -4  162.38    4.42
  -1   2  -4  179.70    4.30
   1  -2   4  176.64    4.32
   1  -2   4  171.97    4.35
  -2   2  -4   61.99    1.87
  -2   2  -4   60.91    1.83
   2  -2   4   60.09    1.89
  -3   2  -4  116.18    3.25
   3  -2   4  113.08    3.20
  -4   2  -4   37.71    1.58
   4  -2   4   35.14    1.39
   4  -2   4   34.97    1.51
  -5   2  -4   82.09    2.79
   5  -2   4   76.92    2.65
  -6   2  -4   74.93    2.91
   6  -2   4   77.45    2.75
  -7   2  -4  113.83    4.04
   7  -2   4  116.27    3.90
  -8   2  -4   35.84    2.52
  -8  -1   4    7.30    1.39
  -7  -1   4  185.95    5.50
  -6  -1   4    4.14    0.83
   5   1  -4  140.15    4.27
  -5  -1   4  144.80    4.03
   4   1  -4   87.79    2.71
  -4  -1   4   85.38    2.76
  -4  -1   4   79.35    2.47
   3   1  -4  272.18    6.58
   3   1  -4  258.67    6.95
  -3  -1   4  272.43    6.44
  -3  -1   4  261.79    6.69
   2   1  -4  113.69    3.06
   2   1  -4  118.83    2.78
  -2  -1   4  107.27    3.23
  -2  -1   4  115.79    2.86
  -2  -1   4  111.62    2.83
   1   1  -4   50.03    1.34
   1   1  -4   50.34    1.39
   1   1  -4   47.89    1.41
  -1  -1   4   48.52    1.31
  -1  -1   4   47.35    1.41
  -1  -1   4   47.89    1.43
   0   1  -4  788.79   18.52
   0   1  -4  839.17   18.67
   0  -1   4  795.75   18.43
   0  -1   4  816.93   18.71
   0  -1   4  827.32   18.54
  -1   1  -4  149.57    3.73
  -1   1  -4  149.88    3.81
   1  -1   4  149.26    3.86
   1  -1   4  154.05    3.75
  -2   1  -4  217.29    5.32
  -2   1  -4  215.39    5.30
   2  -1   4  207.78    5.37
   2  -1   4  215.28    5.31
   2  -1   4  214.54    5.03
  -3   1  -4    4.60    0.57
  -3   1  -4    3.51    0.50
   3  -1   4    4.47    0.46
   3  -1   4    4.48    0.60
  -4   1  -4  298.14    7.58
   4  -1   4  305.74    7.37
   4  -1   4  300.44    7.57
  -5   1  -4   24.81    1.46
   5  -1   4   29.23    1.55
  -6   1  -4  235.42    6.55
   6  -1   4  240.20    6.48
  -7   1  -4   36.42    2.25
   7  -1   4   39.69    2.33
  -8   1  -4   65.56    3.21
  -8   0   4   91.29    3.52
  -7   0   4   11.01    1.31
  -6   0   4  222.53    6.00
  -5   0   4    0.83    0.49
  -4   0   4  478.47   11.06
  -4   0   4  452.23   11.07
   3   0  -4  494.19   11.38
   3   0  -4  476.34   11.89
   3   0  -4  505.73   11.76
   3   0  -4  506.43   11.50
  -3   0   4  499.65   11.62
  -3   0   4  512.16   11.63
   2   0  -4  375.75    8.56
   2   0  -4  371.74    8.60
   2   0  -4  353.74    8.73
  -2   0   4  371.00    8.55
  -2   0   4  365.48    8.49
   1   0  -4  410.26    9.45
   1   0  -4  405.20    9.16
  -1   0   4  400.17    9.42
  -1   0   4  391.83    9.14
   0   0  -4   29.75    1.07
   0   0   4   25.46    0.85
   0   0   4   30.78    1.10
  -1   0  -4  114.15    3.14
  -1   0  -4  119.62    2.96
  -1   0  -4  116.98    2.80
   1   0   4  122.29    2.97
  -2   0  -4  103.01    2.81
  -2   0  -4  106.43    2.92
  -2   0  -4  105.52    2.67
   2   0   4  105.31    2.62
   2   0   4  102.80    2.99
   2   0   4  105.57    2.81
  -3   0  -4  318.78    7.77
  -3   0  -4  315.77    7.80
  -3   0  -4  316.27    7.67
   3   0   4  312.09    7.91
   3   0   4  330.83    7.63
  -4   0  -4    0.43    0.45
   4   0   4    0.97    0.50
   4   0   4    0.89    0.60
  -5   0  -4  134.67    4.02
   5   0   4  133.34    3.95
  -6   0  -4   36.40    1.98
   6   0   4   38.52    1.96
  -7   0  -4   35.91    2.25
  -9   1   4   75.19    3.56
  -8   1   4    2.36    1.08
  -7   1   4  201.86    5.78
   6  -1  -4    0.08    0.33
  -6   1   4    2.01    0.66
   5  -1  -4  266.29    6.32
   5  -1  -4  275.47    6.43
  -5   1   4  265.79    6.79
   4  -1  -4  175.62    4.25
   4  -1  -4  167.21    4.12
  -4   1   4  170.94    4.41
  -4   1   4  171.44    4.41
  -4   1   4  174.91    4.16
   3  -1  -4  303.69    7.07
   3  -1  -4  305.96    7.18
  -3   1   4  304.74    7.17
  -3   1   4  295.72    7.16
   2  -1  -4  148.89    3.70
   2  -1  -4  147.01    3.60
  -2   1   4  147.20    3.66
  -2   1   4  146.58    3.51
  -2   1   4  145.93    3.49
   1  -1  -4  268.57    6.19
   1  -1  -4  246.29    6.49
  -1   1   4  248.99    6.32
   0  -1  -4  809.74   18.38
   0  -1  -4  816.61   18.73
   0  -1  -4  804.87   18.36
  -1  -1  -4    2.02    0.45
  -1  -1  -4    2.40    0.34
  -1  -1  -4    2.06    0.28
   1   1   4    2.17    0.28
   1   1   4    1.40    0.40
  -2  -1  -4  748.26   17.31
  -2  -1  -4  759.96   17.40
  -2  -1  -4  704.06   17.31
  -2  -1  -4  762.95   17.52
   2   1   4  765.53   17.29
   2   1   4  750.77   17.48
  -3  -1  -4   75.78    2.30
  -3  -1  -4   77.03    2.31
  -3  -1  -4   70.61    2.37
   3   1   4   76.96    2.39
  -4  -1  -4  148.69    4.13
  -4  -1  -4  150.61    4.16
   4   1   4  140.29    4.06
  -5  -1  -4   15.28    1.27
  -5  -1  -4   13.81    1.32
   5   1   4   12.90    1.22
  -6  -1  -4   75.85    2.94
   6   1   4   76.52    2.69
  -7  -1  -4   65.47    3.01
  -9   2   4    3.67    1.43
  -8   2   4   91.97    3.43
  -7   2   4   10.27    1.25
   6  -2  -4   66.83    1.94
  -6   2   4   66.58    2.46
  -6   2   4   64.51    2.36
   5  -2  -4   65.70    2.04
   5  -2  -4   66.75    1.91
  -5   2   4   66.54    2.19
  -5   2   4   70.20    1.97
   4  -2  -4   64.90    1.89
   4  -2  -4   62.43    1.81
   4  -2  -4   64.52    1.94
  -4   2   4   63.23    1.96
  -4   2   4   65.28    1.86
  -4   2   4   66.85    2.05
   3  -2  -4   82.15    2.21
   3  -2  -4   81.45    2.32
   3  -2  -4   81.86    2.15
  -3   2   4   84.37    2.20
  -3   2   4   81.60    2.24
   2  -2  -4   98.13    2.39
   2  -2  -4  100.01    2.59
   2  -2  -4   96.44    2.69
  -2   2   4   98.69    2.61
  -2   2   4   98.34    2.37
   1  -2  -4  278.43    6.80
   1  -2  -4  279.84    6.67
   1  -2  -4  283.32    6.38
  -1   2   4  273.05    6.75
   0  -2  -4   20.00    0.65
   0  -2  -4   18.76    0.80
   0  -2  -4   17.97    0.93
   0   2   4   20.18    0.69
   0   2   4   18.76    0.88
  -1  -2  -4  396.84    9.40
  -1  -2  -4  390.00    9.66
  -1  -2  -4  405.42    9.50
  -1  -2  -4  411.76    9.40
   1   2   4  404.46    9.50
   1   2   4  399.07    9.62
  -2  -2  -4   32.71    1.32
  -2  -2  -4   32.84    1.21
  -2  -2  -4   33.25    1.34
  -2  -2  -4   32.93    1.46
   2   2   4   32.14    1.38
   2   2   4   32.34    1.32
  -3  -2  -4  181.99    5.00
  -3  -2  -4  193.69    4.94
   3   2   4  188.55    4.94
  -4  -2  -4   24.30    1.36
  -4  -2  -4   22.87    1.46
   4   2   4   25.58    1.32
  -5  -2  -4  205.71    5.99
  -5  -2  -4  212.53    5.89
  -5  -2  -4  217.50    5.44
   5   2   4  213.69    5.60
  -6  -2  -4   26.10    1.87
  -6  -2  -4   28.21    2.12
  -7  -2  -4   61.26    3.01
  -9   3   4   63.93    3.20
  -8   3   4    9.01    1.34
   7  -3  -4  127.52    3.55
  -7   3   4  131.58    4.08
   6  -3  -4   14.54    0.91
  -6   3   4   16.79    1.21
   5  -3  -4  142.79    3.68
  -5   3   4  136.40    3.84
   4  -3  -4  142.07    3.62
   4  -3  -4  139.31    3.63
  -4   3   4  136.95    3.64
   3  -3  -4  271.43    6.43
   3  -3  -4  268.74    6.56
   2  -3  -4  785.80   18.30
   2  -3  -4  805.13   18.09
  -2   3   4  785.69   18.03
   1  -3  -4    1.39    0.33
   1  -3  -4    1.74    0.25
  -1   3   4    1.19    0.22
   0  -3  -4  928.21   20.84
   0  -3  -4  903.63   21.04
   0   3   4  907.50   20.95
  -1  -3  -4    8.45    0.61
  -1  -3  -4    7.60    0.62
   1   3   4    7.80    0.67
   1   3   4    8.37    0.71
  -2  -3  -4  452.82   11.12
  -2  -3  -4  461.49   10.86
  -2  -3  -4  453.01   10.82
   2   3   4  455.36   10.94
   2   3   4  459.36   11.05
  -3  -3  -4    3.72    0.79
  -3  -3  -4    5.51    0.66
  -3  -3  -4    5.28    0.74
   3   3   4    4.93    0.87
   3   3   4    4.37    0.67
  -4  -3  -4  111.78    3.43
  -4  -3  -4  104.10    3.58
  -4  -3  -4  109.87    3.08
   4   3   4  110.94    3.21
  -5  -3  -4   47.65    2.26
  -5  -3  -4   50.11    1.81
   5   3   4   48.78    1.99
  -6  -3  -4   30.99    2.46
  -6  -3  -4   24.94    2.03
  -7  -3  -4   25.18    2.96
  -9   4   4    5.54    1.49
  -8   4   4  116.25    3.99
   7  -4  -4    1.25    0.69
  -7   4   4    1.79    1.01
   6  -4  -4   80.75    2.49
  -6   4   4   76.25    2.62
   5  -4  -4   83.99    2.54
  -5   4   4   84.21    2.57
   4  -4  -4   91.18    2.70
   4  -4  -4  101.06    2.79
  -4   4   4   95.06    2.64
   3  -4  -4  217.74    5.52
   3  -4  -4  217.44    5.37
  -3   4   4  221.19    5.29
   2  -4  -4   28.16    1.08
   2  -4  -4   27.72    1.15
  -2   4   4   27.85    0.95
   1  -4  -4  227.93    5.60
   1  -4  -4  216.31    5.36
   0  -4  -4   48.64    1.53
   0  -4  -4   47.90    1.64
   0   4   4   48.67    1.57
  -1  -4  -4  297.00    7.24
   1   4   4  291.98    7.29
  -2  -4  -4    1.18    0.50
  -2  -4  -4   -0.33    0.63
  -2  -4  -4    0.10    0.37
   2   4   4    0.46    0.62
  -3  -4  -4  194.51    4.98
  -3  -4  -4  182.61    5.51
  -3  -4  -4  194.08    5.19
   3   4   4  197.36    5.51
  -4  -4  -4   43.30    1.66
  -4  -4  -4   42.76    2.04
  -4  -4  -4   36.05    2.97
   4   4   4   43.48    2.47
  -5  -4  -4   59.95    2.66
  -5  -4  -4   56.22    3.01
  -6  -4  -4   39.77    3.06
  -6  -4  -4   40.10    2.59
  -8   5   4   41.99    2.34
   7  -5  -4   73.65    2.64
  -7   5   4   74.14    2.77
  -6   5   4   69.48    2.41
   5  -5  -4   18.78    1.17
  -5   5   4   18.15    1.08
   4  -5  -4  233.43    5.95
  -4   5   4  226.42    5.69
   3  -5  -4   87.83    2.60
   3  -5  -4   78.38    2.72
  -3   5   4   83.06    2.32
   2  -5  -4  111.06    3.03
   2  -5  -4  108.88    3.15
  -2   5   4  106.68    2.88
   1  -5  -4    7.01    1.03
   1  -5  -4    7.68    0.75
  -1   5   4    6.90    0.66
   0  -5  -4  297.55    7.27
   0   5   4  283.81    7.16
  -1  -5  -4   28.05    1.29
   1   5   4   27.42    1.42
  -2  -5  -4  224.15    6.57
  -2  -5  -4  236.54    5.99
  -2  -5  -4  234.24    6.06
   2   5   4  237.36    6.29
  -3  -5  -4   35.40    2.28
  -3  -5  -4   39.58    1.63
   3   5   4   38.01    3.39
  -4  -5  -4   69.15    2.83
  -4  -5  -4   75.12    2.43
  -4  -5  -4   65.37    3.17
   4   5   4   72.79    3.26
  -5  -5  -4   39.40    2.45
  -5  -5  -4   42.49    3.09
   8  -6  -4   55.25    3.51
   7  -6  -4   19.12    1.62
  -7   6   4   19.29    1.62
   6  -6  -4   79.47    2.82
  -6   6   4   82.68    2.72
   5  -6  -4  120.83    3.65
  -5   6   4  118.31    3.39
   4  -6  -4   99.82    3.12
  -4   6   4   98.72    2.84
   3  -6  -4   52.64    1.99
  -3   6   4   49.16    1.71
  -2   6   4   25.13    1.16
   1  -6  -4  181.14    5.52
  -1   6   4  190.30    4.84
   0  -6  -4    0.91    0.68
   0   6   4    0.72    0.66
   1   6   4  230.59    6.17
  -2  -6  -4   32.70    1.62
  -2  -6  -4   31.29    2.40
   2   6   4   28.54    2.99
  -3  -6  -4  109.03    3.65
  -3  -6  -4  104.21    4.27
  -3  -6  -4  111.79    3.37
   3   6   4  116.42    4.06
  -4  -6  -4   44.96    2.49
  -4  -6  -4   49.56    3.15
   4   6   4   46.41    3.12
   7  -7  -4   88.05    3.34
   6  -7  -4   83.08    3.08
   5  -7  -4   45.12    2.12
  -5   7   4   43.89    1.85
   4  -7  -4  109.44    3.52
  -4   7   4  109.80    3.20
   3  -7  -4   53.29    2.17
  -3   7   4   52.44    1.93
   2  -7  -4  120.67    3.71
  -2   7   4  122.31    3.50
   1  -7  -4   18.35    1.34
  -1   7   4   20.63    1.39
   0  -7  -4  152.16    4.50
   0   7   4  164.10    4.61
  -1  -7  -4   16.20    1.37
   1   7   4   16.09    1.74
  -2  -7  -4   49.73    2.18
  -2  -7  -4   46.73    3.07
   2   7   4   47.26    2.61
  -3  -7  -4   68.12    2.58
  -3  -7  -4   65.76    2.90
  -3  -7  -4   60.11    3.77
   3   7   4   64.71    3.33
   5  -8  -4   40.57    2.25
   4  -8  -4   15.58    1.61
   3  -8  -4   56.45    2.47
   2  -8  -4   -0.16    0.84
   1  -8  -4   52.27    2.37
  -1   8   4   55.30    2.46
   0  -8  -4   -0.94    0.88
   0   8   4   -1.41    1.22
  -1  -8  -4   99.07    4.47
  -1  -8  -4  110.72    3.64
   1   8   4  113.09    4.03
  -2  -8  -4   46.99    2.35
   2   8   4   43.06    3.01
  -1  -9   5   66.20    3.04
   0  -9   5   23.49    2.66
   0  -9   5   19.03    2.09
  -1   9  -5   47.85    2.62
   1  -9   5   46.42    2.62
   1  -9   5   53.49    3.03
  -2   9  -5  109.49    3.91
   2  -9   5  107.86    4.03
  -3   9  -5   36.40    3.09
   2   8  -5  103.79    4.04
  -2  -8   5  110.45    4.30
   1   8  -5    7.24    1.27
  -1  -8   5    7.46    1.46
  -1  -8   5    8.22    1.25
   0   8  -5   48.25    2.34
   0  -8   5   47.44    2.35
   0  -8   5   50.26    2.70
  -1   8  -5  121.76    3.94
   1  -8   5  120.01    3.94
  -2   8  -5   40.53    2.08
   2  -8   5   38.84    2.16
  -3   8  -5   98.60    3.49
   3  -8   5   99.85    3.59
  -4   8  -5    1.15    1.05
   4  -8   5    0.97    1.08
  -5   8  -5   59.99    2.81
   5  -8   5   60.91    3.01
   4   7  -5   11.65    1.89
  -4  -7   5   10.43    1.85
   3   7  -5   54.70    2.77
  -3  -7   5   51.77    2.95
   2   7  -5   36.21    2.18
  -2  -7   5   41.01    1.86
  -2  -7   5   38.82    2.41
   1   7  -5   67.89    2.63
  -1  -7   5   60.12    2.37
  -1  -7   5   61.20    2.73
   0   7  -5   90.03    3.08
   0  -7   5   88.76    3.23
  -1   7  -5   74.19    2.65
   1  -7   5   71.27    2.64
  -2   7  -5  230.58    6.21
   2  -7   5  225.94    6.25
  -3   7  -5   44.28    2.05
   3  -7   5   45.90    2.14
  -4   7  -5  136.07    4.25
   4  -7   5  138.35    4.36
  -5   7  -5    5.25    1.11
   5  -7   5    5.12    1.12
  -6   7  -5  122.45    4.23
   6  -7   5  118.38    4.30
   5   6  -5   17.05    2.03
  -5  -6   5   25.12    2.66
   4   6  -5   90.73    3.65
  -4  -6   5   90.65    3.68
   3   6  -5   25.61    1.82
  -3  -6   5   25.11    1.33
  -3  -6   5   24.10    1.95
   2   6  -5  175.88    5.08
  -2  -6   5  177.12    5.27
  -2  -6   5  173.88    4.68
   1   6  -5  118.51    4.69
  -1  -6   5  118.33    3.81
  -1  -6   5  123.66    3.50
   0   6  -5  120.86    3.63
   0  -6   5  118.56    3.73
   0  -6   5  126.03    3.59
   1  -6   5  139.21    4.01
  -2   6  -5   39.52    1.74
   2  -6   5   38.29    1.79
  -3   6  -5   64.18    2.40
   3  -6   5   65.13    2.45
  -4   6  -5    8.85    1.08
   4  -6   5    7.13    0.98
  -5   6  -5  154.18    4.71
   5  -6   5  156.70    4.78
  -6   6  -5    2.85    1.07
   6  -6   5    1.43    1.04
  -7   6  -5   73.43    4.14
   7  -6   5   73.53    3.34
   6   5  -5    3.10    1.67
  -6  -5   5    3.31    1.26
  -6  -5   5    1.36    1.66
   5   5  -5  195.16    6.03
  -5  -5   5  193.99    6.13
   4   5  -5   36.32    2.15
  -4  -5   5   33.53    2.22
   3   5  -5  271.29    7.56
  -3  -5   5  264.02    7.52
  -3  -5   5  266.54    6.53
   2   5  -5  284.04    7.25
  -2  -5   5  279.73    7.39
  -2  -5   5  276.91    6.88
   1   5  -5   50.16    1.85
  -1  -5   5   45.95    1.92
  -1  -5   5   46.17    1.70
   0   5  -5  130.67    3.63
   0  -5   5  126.29    3.56
   0  -5   5  126.99    3.67
  -1   5  -5   11.12    0.87
   1  -5   5   10.92    0.88
  -2   5  -5  244.12    6.29
   2  -5   5  246.75    6.36
  -3   5  -5    9.28    0.94
   3  -5   5    7.92    0.91
   4  -5   5  319.69    8.26
  -5   5  -5   39.79    1.96
   5  -5   5   37.26    1.96
  -6   5  -5  102.01    3.61
   6  -5   5  101.25    3.63
  -7   5  -5   19.61    1.95
   7  -5   5   22.47    2.20
   8  -5   5   13.67    2.03
   7   4  -5    6.53    1.90
  -7  -4   5    4.52    1.42
   6   4  -5  117.36    4.44
  -6  -4   5  119.20    3.99
  -6  -4   5  111.13    4.35
   5   4  -5   10.73    1.40
  -5  -4   5   13.33    1.53
   4   4  -5  109.93    3.72
  -4  -4   5  109.94    3.95
   3   4  -5  122.54    3.05
   3   4  -5  122.27    3.65
  -3  -4   5  120.30    3.79
  -3  -4   5  119.87    3.16
   2   4  -5   63.58    2.15
   2   4  -5   62.98    1.79
  -2  -4   5   60.87    1.88
  -2  -4   5   62.20    2.26
   1   4  -5   33.42    1.33
   1   4  -5   31.81    1.21
  -1  -4   5   33.92    1.27
  -1  -4   5   32.35    1.42
   0   4  -5   44.20    1.57
   0  -4   5   45.78    1.60
   0  -4   5   44.01    1.55
  -1   4  -5  250.41    6.31
   1  -4   5  256.51    6.37
  -2   4  -5   17.17    0.96
   2  -4   5   16.36    0.98
  -3   4  -5  334.82    8.48
   3  -4   5  349.36    8.56
  -4   4  -5    4.47    0.76
   4  -4   5    3.72    0.73
  -5   4  -5  183.34    5.18
   5  -4   5  176.53    5.12
  -6   4  -5    6.56    1.11
   6  -4   5    6.45    1.16
  -7   4  -5  123.48    4.37
   7  -4   5  130.13    4.38
   8  -4   5   45.29    4.01
   7   3  -5  100.08    4.48
  -7  -3   5  115.78    4.02
   6   3  -5    9.38    1.50
  -6  -3   5    7.42    1.04
  -6  -3   5    6.99    1.41
   5   3  -5  117.16    5.31
  -5  -3   5  128.54    4.18
   4   3  -5  114.81    3.60
  -4  -3   5  117.57    3.72
   3   3  -5  167.58    4.55
   3   3  -5  170.93    3.97
  -3  -3   5  163.41    4.08
  -3  -3   5  164.75    4.65
   2   3  -5  123.96    3.05
   2   3  -5  124.88    3.36
  -2  -3   5  119.23    3.44
  -2  -3   5  119.28    3.14
   1   3  -5   60.89    1.71
   1   3  -5   60.01    1.83
  -1  -3   5   58.49    1.79
  -1  -3   5   57.99    1.89
   0   3  -5  657.32   15.39
   0   3  -5  670.83   15.34
   0  -3   5  668.72   15.43
   0  -3   5  679.98   15.37
   0  -3   5  634.17   15.35
  -1   3  -5    1.06    0.32
   1  -3   5    0.87    0.37
  -2   3  -5  568.04   13.42
   2  -3   5  571.28   13.51
  -3   3  -5    0.09    0.39
   3  -3   5    0.51    0.44
  -4   3  -5  327.79    8.25
   4  -3   5  322.13    8.21
  -5   3  -5   20.36    1.45
   5  -3   5   19.89    1.43
  -6   3  -5  164.12    4.97
   6  -3   5  159.11    4.86
  -7   3  -5   38.24    2.35
   7  -3   5   43.49    2.47
  -8  -2   5   97.44    3.95
  -7  -2   5    3.31    1.03
   6   2  -5  143.05    4.68
  -6  -2   5  144.10    4.36
   5   2  -5    3.45    0.87
  -5  -2   5    2.93    0.84
  -5  -2   5    3.63    0.69
   4   2  -5  167.88    4.62
  -4  -2   5  163.88    4.73
   3   2  -5  217.40    5.56
   3   2  -5  223.35    5.04
  -3  -2   5  213.16    5.16
  -3  -2   5  212.65    5.68
   2   2  -5  222.43    5.36
   2   2  -5  222.71    5.12
   2   2  -5  204.03    5.44
  -2  -2   5  209.89    5.44
  -2  -2   5  222.73    5.23
  -2  -2   5  210.35    5.25
   1   2  -5  425.45    9.91
   1   2  -5  411.82   10.00
   1   2  -5  426.98    9.96
  -1  -2   5  440.53   10.23
  -1  -2   5  419.65   10.00
  -1  -2   5  426.31    9.91
   0   2  -5   55.21    1.65
   0  -2   5   56.23    1.54
   0  -2   5   55.63    1.73
   0  -2   5   55.60    1.61
  -1   2  -5  343.07    8.21
  -1   2  -5  343.91    8.27
   1  -2   5  353.51    8.27
   1  -2   5  343.08    8.35
  -2   2  -5   17.26    0.88
   2  -2   5   18.11    0.97
   2  -2   5   19.64    1.00
  -3   2  -5  148.38    4.06
   3  -2   5  151.16    3.72
   3  -2   5  146.00    4.09
  -4   2  -5    3.31    0.65
   4  -2   5    2.38    0.52
   4  -2   5    2.01    0.62
  -5   2  -5  172.19    4.92
   5  -2   5  169.20    4.85
  -6   2  -5   26.70    1.78
   6  -2   5   26.40    1.86
  -7   2  -5   72.29    3.11
   7  -2   5   71.52    3.26
  -8  -1   5    3.52    1.23
  -7  -1   5  111.43    3.79
  -6  -1   5   23.95    1.52
   5   1  -5  131.85    4.05
  -5  -1   5  134.85    3.81
   4   1  -5  211.69    5.52
  -4  -1   5  207.79    5.34
   3   1  -5  142.38    3.74
   3   1  -5  141.77    3.39
  -3  -1   5  137.96    3.60
  -3  -1   5  139.05    3.88
  -3  -1   5  144.06    3.42
   2   1  -5  510.20   11.91
   2   1  -5  519.24   11.78
   2   1  -5  516.38   11.68
  -2  -1   5  473.54   11.90
  -2  -1   5  507.59   11.65
  -2  -1   5  500.92   11.75
   1   1  -5   22.77    0.86
   1   1  -5   23.93    0.79
   1   1  -5   22.17    0.90
  -1  -1   5   23.72    0.99
  -1  -1   5   23.09    0.84
  -1  -1   5   22.91    0.75
   0   1  -5  390.34    9.34
   0   1  -5  415.10    9.56
   0   1  -5  388.02    9.23
   0  -1   5  420.96    9.38
   0  -1   5  404.68    9.66
  -1   1  -5    0.34    0.23
  -1   1  -5    0.65    0.30
   1  -1   5    0.69    0.27
   1  -1   5    0.51    0.33
  -2   1  -5  369.89    9.14
  -2   1  -5  388.12    9.10
   2  -1   5  381.35    9.10
   2  -1   5  382.09    9.25
   2  -1   5  380.76    8.72
  -3   1  -5  104.50    3.05
   3  -1   5  107.85    3.17
   3  -1   5  107.27    2.74
  -4   1  -5  232.13    6.09
   4  -1   5  231.44    6.16
   4  -1   5  236.03    5.79
  -5   1  -5   77.60    2.77
   5  -1   5   80.38    2.86
  -6   1  -5   97.15    3.46
   6  -1   5  104.09    3.55
  -7   1  -5   62.07    2.87
   7  -1   5   61.95    2.94
  -9   0   5   12.13    2.18
  -8   0   5   42.47    2.45
  -7   0   5   13.98    1.47
  -6   0   5   24.32    1.45
  -5   0   5   45.17    1.71
   4   0  -5  310.28    7.06
   4   0  -5  297.94    7.46
   4   0  -5  299.29    6.88
  -4   0   5  287.41    7.21
  -4   0   5  296.13    7.26
   3   0  -5  254.44    6.15
   3   0  -5  258.25    6.06
   3   0  -5  254.78    5.89
   3   0  -5  232.31    6.32
  -3   0   5  256.71    6.01
  -3   0   5  250.88    5.93
  -3   0   5  249.00    6.01
   2   0  -5  672.15   15.12
   2   0  -5  659.09   14.92
   2   0  -5  622.67   15.14
  -2   0   5  662.32   15.04
  -2   0   5  638.99   14.84
   1   0  -5   85.86    2.05
   1   0  -5   79.58    2.35
  -1   0   5   81.70    2.92
   0   0  -5    8.80    0.68
   0   0  -5    9.43    0.40
   0   0   5    9.37    0.43
  -1   0  -5  631.61   15.15
  -1   0  -5  647.07   14.89
   1   0   5  649.73   14.90
   1   0   5  658.99   15.25
  -2   0  -5    5.10    0.53
  -2   0  -5    4.94    0.63
  -2   0  -5    5.55    0.44
   2   0   5    6.58    0.76
   2   0   5    5.89    0.59
  -3   0  -5  156.37    4.25
   3   0   5  163.14    4.48
   3   0   5  160.59    4.01
  -4   0  -5   65.56    2.28
   4   0   5   64.38    2.39
   4   0   5   65.46    2.10
  -5   0  -5  245.56    6.72
   5   0   5  258.33    6.76
  -6   0  -5   62.58    2.65
   6   0   5   61.63    2.60
  -7   0  -5   59.04    2.88
  -9   1   5   91.23    3.82
  -8   1   5    9.21    1.37
   6  -1  -5  252.09    5.92
  -6   1   5  248.89    6.56
   5  -1  -5  381.68    8.73
  -5   1   5  354.49    8.97
   4  -1  -5  384.00    9.02
   4  -1  -5  374.94    8.86
  -4   1   5  378.09    9.09
  -4   1   5  387.45    9.07
   3  -1  -5  103.91    2.82
   3  -1  -5  104.03    2.67
  -3   1   5  103.58    2.68
  -3   1   5  107.31    2.67
   2  -1  -5  270.72    6.49
   2  -1  -5  253.98    6.47
  -2   1   5  264.33    6.11
  -2   1   5  272.15    6.09
  -2   1   5  266.67    6.46
   1  -1  -5   12.54    0.78
  -1   1   5   13.10    0.75
   0  -1  -5  260.79    5.98
   0  -1  -5  252.69    6.40
   0   1   5  258.20    6.39
  -1  -1  -5  113.04    2.89
  -1  -1  -5  112.74    2.95
   1   1   5  112.03    3.21
   1   1   5  116.56    2.88
  -2  -1  -5   84.45    2.36
  -2  -1  -5   80.32    2.34
  -2  -1  -5   83.20    2.47
   2   1   5   84.47    2.34
   2   1   5   80.83    2.57
  -3  -1  -5   89.96    2.63
  -3  -1  -5   84.82    2.55
   3   1   5   86.16    2.76
  -4  -1  -5   32.25    1.53
  -4  -1  -5   33.83    1.55
   4   1   5   31.25    1.60
  -5  -1  -5  105.70    3.35
   5   1   5  100.41    3.32
  -6  -1  -5   53.82    2.52
   6   1   5   57.13    2.41
  -7  -1  -5   73.99    3.26
  -9   2   5    8.66    1.57
  -8   2   5  101.46    3.63
  -7   2   5   27.89    1.71
   6  -2  -5   81.60    2.28
  -6   2   5   81.96    2.71
   5  -2  -5   68.20    1.93
   5  -2  -5   65.39    2.13
  -5   2   5   67.86    2.16
  -5   2   5   67.17    1.99
   4  -2  -5  228.22    5.50
   4  -2  -5  224.01    5.67
   4  -2  -5  230.76    5.49
  -4   2   5  225.54    5.57
  -4   2   5  226.92    5.59
  -4   2   5  221.87    5.54
   3  -2  -5   63.41    1.68
   3  -2  -5   64.00    2.01
   3  -2  -5   62.70    1.83
  -3   2   5   66.17    1.73
  -3   2   5   62.72    1.76
   2  -2  -5  159.24    4.17
   2  -2  -5  158.42    4.01
   1  -2  -5  340.96    8.09
   1  -2  -5  330.43    8.25
  -1   2   5  345.48    8.20
   0  -2  -5    1.05    0.45
   0  -2  -5    1.40    0.21
   0  -2  -5    1.01    0.21
   0  -2  -5    0.59    0.28
   0   2   5    0.91    0.36
   0   2   5    1.03    0.26
  -1  -2  -5  317.21    7.69
  -1  -2  -5  318.50    7.52
  -1  -2  -5  314.31    7.53
   1   2   5  319.89    7.85
  -2  -2  -5   14.07    0.92
  -2  -2  -5   14.37    0.83
  -2  -2  -5   12.40    0.94
   2   2   5   15.67    1.00
  -3  -2  -5  152.74    4.06
  -3  -2  -5  140.99    4.06
   3   2   5  145.66    4.11
  -4  -2  -5  308.79    7.91
  -4  -2  -5  312.09    7.95
   4   2   5  309.45    7.88
  -5  -2  -5  203.56    5.80
  -5  -2  -5  214.44    5.39
  -5  -2  -5  198.03    5.75
   5   2   5  199.53    5.54
  -6  -2  -5   91.17    3.47
  -6  -2  -5   93.93    3.59
  -7  -2  -5   26.56    2.37
  -9   3   5   64.24    3.21
  -8   3   5   79.38    3.19
   7  -3  -5   58.57    1.97
  -7   3   5   58.93    2.42
   6  -3  -5  162.52    4.24
  -6   3   5  163.21    4.52
   5  -3  -5   42.69    1.49
  -5   3   5   42.49    1.61
   4  -3  -5  184.31    4.64
   4  -3  -5  180.74    4.52
  -4   3   5  183.15    4.55
   3  -3  -5   42.29    1.45
   3  -3  -5   42.68    1.27
  -3   3   5   43.88    1.23
   2  -3  -5  408.35    9.57
   2  -3  -5  388.03    9.23
  -2   3   5  407.58    9.20
   1  -3  -5   93.64    2.30
   1  -3  -5   91.68    2.62
  -1   3   5   92.84    2.32
   0  -3  -5  319.06    7.59
   0  -3  -5  325.62    7.88
   0   3   5  330.59    7.69
   0   3   5  322.91    8.01
  -1  -3  -5   16.66    0.89
  -1  -3  -5   17.55    0.87
  -1  -3  -5   17.25    0.80
   1   3   5   16.08    0.98
   1   3   5   15.32    0.92
  -2  -3  -5  306.82    7.58
  -2  -3  -5  303.20    7.81
  -2  -3  -5  316.88    7.58
   2   3   5  313.03    7.74
   2   3   5  303.58    7.75
  -3  -3  -5  127.60    3.62
  -3  -3  -5  123.43    3.46
  -3  -3  -5  120.52    3.76
   3   3   5  125.81    3.63
  -4  -3  -5   66.15    2.21
  -4  -3  -5   67.75    2.48
  -4  -3  -5   64.85    2.64
   4   3   5   65.67    2.37
  -5  -3  -5   34.94    2.68
  -5  -3  -5   38.50    2.12
  -5  -3  -5   40.53    1.72
   5   3   5   41.33    1.91
  -6  -3  -5   51.87    2.83
  -6  -3  -5   48.39    2.66
  -7  -3  -5   27.76    3.64
  -8   4   5  112.74    3.85
   7  -4  -5   15.82    1.24
  -7   4   5   20.11    1.52
   6  -4  -5   70.79    2.29
  -6   4   5   69.69    2.38
   5  -4  -5  168.50    4.41
  -5   4   5  163.63    4.33
   4  -4  -5  114.53    3.15
   4  -4  -5  122.45    3.32
  -4   4   5  118.87    3.09
   3  -4  -5  324.06    7.84
   3  -4  -5  312.80    7.55
  -3   4   5  320.39    7.49
   2  -4  -5   14.21    0.75
   2  -4  -5   15.04    0.88
  -2   4   5   14.42    0.63
   1  -4  -5  261.53    6.32
   1  -4  -5  267.89    6.64
  -1   4   5  269.32    6.36
   0  -4  -5    6.93    0.64
   0  -4  -5    5.67    0.63
   0   4   5    7.62    0.72
  -1  -4  -5  132.74    3.51
  -1  -4  -5  133.74    3.64
   1   4   5  128.19    3.64
  -2  -4  -5   52.50    2.25
  -2  -4  -5   52.34    1.85
  -2  -4  -5   50.42    1.84
   2   4   5   51.89    2.09
  -3  -4  -5   70.23    2.35
  -3  -4  -5   71.82    2.52
  -3  -4  -5   69.29    2.81
   3   4   5   76.02    2.85
  -4  -4  -5   75.22    2.48
  -4  -4  -5   74.31    2.82
  -4  -4  -5   70.94    3.12
  -5  -4  -5   43.93    2.38
  -5  -4  -5   43.57    2.75
  -6  -4  -5   82.15    3.59
  -6  -4  -5   85.33    4.05
   7  -5  -5   26.87    1.58
  -7   5   5   24.40    1.74
   6  -5  -5  152.00    4.25
  -6   5   5  147.40    4.14
   5  -5  -5    1.88    0.60
  -5   5   5    2.47    0.58
   4  -5  -5  311.42    7.59
  -4   5   5  291.37    7.23
   3  -5  -5    1.52    0.57
   3  -5  -5    1.41    0.49
  -3   5   5    2.43    0.41
   2  -5  -5  151.46    4.06
   2  -5  -5  145.12    3.79
  -2   5   5  141.46    3.68
   1  -5  -5    0.24    0.42
   1  -5  -5   -0.18    0.46
  -1   5   5    0.72    0.44
   0  -5  -5  226.54    5.85
   0   5   5  224.49    5.73
  -1  -5  -5   18.60    1.15
   1   5   5   21.05    1.33
  -2  -5  -5  182.35    5.54
  -2  -5  -5  187.06    4.95
  -2  -5  -5  182.76    4.96
   2   5   5  182.10    5.20
  -3  -5  -5   53.69    2.30
  -3  -5  -5   54.26    2.80
  -3  -5  -5   52.61    2.05
   3   5   5   55.54    2.68
  -4  -5  -5   54.62    2.93
  -4  -5  -5   47.80    2.42
  -4  -5  -5   52.54    2.49
  -5  -5  -5   85.42    3.56
  -5  -5  -5   89.75    4.23
   7  -6  -5   58.17    2.44
   6  -6  -5   45.44    2.02
  -6   6   5   42.03    1.93
   5  -6  -5  182.03    5.02
  -5   6   5  176.83    4.68
   4  -6  -5   33.81    1.61
  -4   6   5   31.76    1.34
   3  -6  -5  161.86    4.48
  -3   6   5  156.38    4.10
   2  -6  -5    9.15    0.97
  -2   6   5    7.90    0.81
   1  -6  -5  249.08    6.50
  -1   6   5  249.22    6.27
   0  -6  -5    4.81    0.75
   0   6   5    3.54    0.78
  -1  -6  -5  155.73    4.46
   1   6   5  162.66    4.64
  -2  -6  -5   46.71    1.95
  -2  -6  -5   43.52    2.74
   2   6   5   44.52    2.72
  -3  -6  -5   64.81    2.67
  -3  -6  -5   62.33    3.28
  -3  -6  -5   62.07    2.42
   3   6   5   68.34    3.21
  -4  -6  -5  113.86    4.20
  -4  -6  -5  124.13    4.84
   4   6   5  122.72    4.86
   7  -7  -5   22.66    1.90
   6  -7  -5  102.85    3.54
   5  -7  -5    3.14    0.89
   4  -7  -5  132.03    4.05
   3  -7  -5    2.10    0.73
  -3   7   5    0.37    0.65
   2  -7  -5  111.03    3.50
  -2   7   5  108.81    3.21
   1  -7  -5   19.82    1.46
  -1   7   5   18.55    1.43
   0  -7  -5   82.72    2.93
   0   7   5   88.47    3.03
  -1  -7  -5   16.10    1.45
   1   7   5   17.05    1.92
  -2  -7  -5   40.75    2.20
  -2  -7  -5   33.67    1.97
  -2  -7  -5   32.62    2.92
   2   7   5   38.25    2.56
  -3  -7  -5   94.09    3.53
  -3  -7  -5   87.65    4.45
  -3  -7  -5   90.29    3.22
   3   7   5   86.39    4.00
   5  -8  -5  114.37    4.23
   4  -8  -5    1.05    0.94
   3  -8  -5   99.94    3.51
   2  -8  -5    8.04    1.14
   1  -8  -5   47.74    2.26
   0  -8  -5   32.74    1.95
  -1  -8  -5   85.60    5.01
  -1  -8  -5   71.56    2.96
  -2  -8  -5   77.69    3.07
  -1  -9   6   39.33    2.56
   0  -9   6   53.70    2.84
   0  -9   6   48.43    3.11
   1  -9   6   14.09    1.77
   1  -9   6   19.27    2.08
   2  -9   6  164.62    5.32
   2   8  -6   57.46    2.93
  -2  -8   6   56.13    3.20
   1   8  -6   39.69    2.36
  -1  -8   6   41.30    2.61
  -1  -8   6   39.17    2.20
   0   8  -6   24.31    1.92
   0  -8   6   22.86    1.88
   0  -8   6   26.26    2.17
  -1   8  -6  109.33    3.72
   1  -8   6  109.93    3.90
   1  -8   6  108.54    3.77
  -2   8  -6    9.69    1.27
   2  -8   6    6.23    1.19
  -3   8  -6   88.34    3.30
   3  -8   6   85.48    3.38
  -4   8  -6    0.06    1.05
   4  -8   6    0.85    1.11
   4   7  -6   49.29    3.05
  -4  -7   6   45.76    3.11
   3   7  -6   63.05    2.98
  -3  -7   6   60.39    3.18
   2   7  -6  121.91    4.12
  -2  -7   6  123.74    3.72
  -2  -7   6  121.03    4.26
   1   7  -6    5.67    1.11
  -1  -7   6    5.07    0.97
  -1  -7   6    6.88    1.26
   0   7  -6  126.84    4.00
   0  -7   6  127.41    3.95
   0  -7   6  131.18    4.19
  -1   7  -6    2.15    0.75
   1  -7   6    1.40    0.77
  -2   7  -6  120.17    3.77
   2  -7   6  117.26    3.82
  -3   7  -6    5.33    0.98
   3  -7   6    6.55    1.07
  -4   7  -6  125.33    4.07
   4  -7   6  126.96    4.19
  -5   7  -6   27.71    2.02
   5  -7   6   28.81    2.16
   6  -7   6  103.82    4.08
   5   6  -6   38.19    2.89
  -5  -6   6   34.30    2.86
   4   6  -6   63.82    2.97
  -4  -6   6   54.83    2.99
   3   6  -6   65.82    2.81
  -3  -6   6   71.18    3.04
  -3  -6   6   66.19    2.31
   2   6  -6  114.11    3.71
  -2  -6   6  114.27    3.38
  -2  -6   6  119.27    3.93
   1   6  -6  166.20    4.71
  -1  -6   6  161.19    4.82
  -1  -6   6  165.38    4.54
   0  -6   6  118.47    3.55
   0  -6   6  118.49    3.68
  -1   6  -6  167.56    5.39
   1  -6   6  183.14    4.93
  -2   6  -6   14.04    1.21
  -3   6  -6  185.32    5.28
   3  -6   6  195.04    5.39
  -4   6  -6   11.24    1.19
   4  -6   6   11.29    1.35
  -5   6  -6   89.77    3.27
   5  -6   6   89.11    3.35
  -6   6  -6   40.40    2.37
   6  -6   6   36.84    2.43
   7  -6   6   45.83    3.02
   6   5  -6   18.94    2.27
  -6  -5   6   24.02    2.10
  -6  -5   6   16.45    2.12
   5   5  -6   99.21    3.90
  -5  -5   6   97.85    3.92
   4   5  -6  191.45    5.59
  -4  -5   6  182.92    5.65
   3   5  -6  305.74    7.83
  -3  -5   6  300.66    7.25
  -3  -5   6  278.30    9.17
   2   5  -6  216.68    5.83
  -2  -5   6  217.41    5.52
  -2  -5   6  214.29    5.94
   1   5  -6   18.63    1.19
  -1  -5   6   20.41    1.12
  -1  -5   6   21.02    1.33
   0   5  -6  230.16    5.95
   0  -5   6  229.68    5.92
   0  -5   6  227.42    5.96
  -1   5  -6    9.29    0.88
   1  -5   6    8.61    0.90
  -2   5  -6   98.84    3.04
   2  -5   6  101.74    3.15
  -3   5  -6    6.80    0.85
   3  -5   6    7.52    0.91
  -4   5  -6   55.80    2.26
   4  -5   6   60.08    2.41
  -5   5  -6   47.60    2.17
   5  -5   6   43.58    2.23
  -6   5  -6   67.32    2.89
   6  -5   6   70.80    3.02
  -7   5  -6   48.25    2.71
   7  -5   6   54.70    2.97
   8  -5   6   17.03    2.41
   7   4  -6    4.04    1.96
  -7  -4   6    3.84    1.46
   6   4  -6   93.75    3.82
  -6  -4   6   87.10    3.82
  -6  -4   6   87.34    3.37
   5   4  -6   46.27    2.52
  -5  -4   6   50.30    2.68
   4   4  -6  126.86    5.04
   3   4  -6  108.89    2.74
   3   4  -6  107.07    3.33
  -3  -4   6  103.21    2.91
  -3  -4   6  103.12    3.41
   2   4  -6   54.13    1.93
   2   4  -6   49.87    1.59
  -2  -4   6   52.35    2.01
  -2  -4   6   50.22    1.72
   1   4  -6  245.40    6.08
  -1  -4   6  232.31    6.09
  -1  -4   6  238.09    5.99
   0   4  -6   33.22    1.34
   0  -4   6   34.55    1.41
   0  -4   6   34.69    1.37
  -1   4  -6  195.60    5.17
   1  -4   6  208.05    5.31
  -2   4  -6    1.49    0.48
   2  -4   6    0.96    0.51
  -3   4  -6   82.78    2.66
   3  -4   6   83.72    2.79
  -4   4  -6   10.07    1.08
   4  -4   6    9.45    1.15
  -5   4  -6  130.16    4.07
   5  -4   6  130.00    4.17
  -6   4  -6   91.31    3.36
   6  -4   6   92.51    3.48
  -7   4  -6  111.97    4.12
   7  -4   6  115.52    4.25
   8  -4   6   96.47    5.95
   7   3  -6   69.83    3.70
  -7  -3   6   76.33    3.19
   6   3  -6   51.99    2.85
  -6  -3   6   52.81    2.75
  -6  -3   6   51.03    2.34
  -5  -3   6   78.85    3.07
   4   3  -6  305.19    7.85
  -4  -3   6  300.70    7.99
   3   3  -6  120.76    3.53
   3   3  -6  124.50    3.02
  -3  -3   6  119.26    3.64
  -3  -3   6  124.35    3.20
   2   3  -6  455.98   10.68
   2   3  -6  443.81   10.36
  -2  -3   6  447.80   10.77
  -2  -3   6  432.82   10.51
   1   3  -6    6.01    0.58
   1   3  -6    4.87    0.56
  -1  -3   6    5.86    0.62
  -1  -3   6    6.58    0.67
   0   3  -6  619.80   14.72
   0  -3   6  632.57   14.84
   0  -3   6  642.35   14.66
  -1   3  -6   32.85    1.26
   1  -3   6   35.37    1.41
  -2   3  -6  102.53    2.88
   2  -3   6   95.90    2.98
  -3   3  -6   36.31    1.52
   3  -3   6   38.11    1.67
  -4   3  -6  256.94    6.70
   4  -3   6  250.62    6.28
   4  -3   6  257.06    6.79
  -5   3  -6   93.43    3.15
   5  -3   6   86.93    3.16
  -6   3  -6   53.66    2.47
   6  -3   6   56.25    2.61
  -7   3  -6   43.62    2.48
   7  -3   6   42.76    2.75
  -8  -2   6  106.60    4.10
  -7  -2   6   19.57    1.79
   6   2  -6  100.12    3.71
  -6  -2   6   97.71    3.31
   5   2  -6   29.72    2.04
  -5  -2   6   32.45    1.57
  -5  -2   6   32.46    1.91
   4   2  -6  110.06    3.30
  -4  -2   6  104.02    3.40
   3   2  -6  211.52    5.38
   3   2  -6  211.54    4.93
  -3  -2   6  204.21    5.08
  -3  -2   6  204.55    5.49
   2   2  -6  272.82    6.52
   2   2  -6  246.35    6.61
   2   2  -6  271.99    6.36
  -2  -2   6  261.56    6.42
  -2  -2   6  269.10    6.65
  -2  -2   6  279.81    6.55
   1   2  -6  498.95   12.21
   1   2  -6  542.74   12.22
   1   2  -6  522.13   12.19
  -1  -2   6  528.30   12.14
  -1  -2   6  526.70   12.23
  -1  -2   6  520.58   12.32
   0   2  -6   15.37    0.72
   0   2  -6   16.11    0.83
   0  -2   6   15.63    0.88
   0  -2   6   16.39    0.76
   0  -2   6   16.51    0.65
  -1   2  -6  459.35   10.80
   1  -2   6  460.94   10.86
   1  -2   6  456.99   11.03
  -2   2  -6   78.81    2.31
   2  -2   6   75.11    2.47
  -3   2  -6  208.74    5.56
   3  -2   6  216.44    5.14
   3  -2   6  218.47    5.75
  -4   2  -6   98.42    3.16
   4  -2   6   99.79    3.25
   4  -2   6  105.50    2.80
  -5   2  -6   58.26    3.03
   5  -2   6   60.64    2.49
  -6   2  -6   53.44    2.46
   6  -2   6   54.31    2.61
  -7   2  -6   35.29    2.29
   7  -2   6   34.49    2.64
  -8  -1   6   17.15    1.83
  -7  -1   6   38.71    2.09
  -6  -1   6   56.16    2.27
   5   1  -6    2.70    0.82
  -5  -1   6    1.34    0.58
   4   1  -6  320.38    7.98
  -4  -1   6  318.07    7.80
   3   1  -6    1.00    0.40
   3   1  -6    0.85    0.32
  -3  -1   6    0.76    0.33
  -3  -1   6    1.64    0.34
   2   1  -6  385.96    8.86
   2   1  -6  383.27    8.90
   2   1  -6  358.72    9.00
  -2  -1   6  382.99    9.70
  -2  -1   6  367.86    8.75
   1   1  -6   69.40    1.83
   1   1  -6   68.72    2.06
   1   1  -6   68.14    1.91
  -1  -1   6   69.48    1.80
  -1  -1   6   64.64    2.33
   0   1  -6  369.14    8.76
   0   1  -6  387.86    8.91
   0   1  -6  384.33    9.20
   0  -1   6  374.74    9.28
   0  -1   6  397.47    8.95
  -1   1  -6    0.45    0.42
   1  -1   6    0.14    0.31
   1  -1   6    0.03    0.38
  -2   1  -6  278.75    6.78
   2  -1   6  272.26    6.77
   2  -1   6  275.29    7.02
  -3   1  -6   23.06    1.16
   3  -1   6   22.00    0.81
   3  -1   6   20.74    1.29
  -4   1  -6  206.76    5.58
   4  -1   6  210.75    5.20
   4  -1   6  208.42    5.77
  -5   1  -6   21.21    1.48
   5  -1   6   22.27    1.73
  -6   1  -6   56.58    2.51
   6  -1   6   52.10    2.69
  -7   1  -6   83.76    3.45
   7  -1   6   81.40    3.56
  -9   0   6    7.06    1.74
  -8   0   6   61.11    2.87
  -7   0   6   11.57    1.27
  -6   0   6   42.45    1.87
  -5   0   6  184.10    4.88
   4   0  -6  142.63    3.97
   4   0  -6  152.05    3.73
   4   0  -6  146.31    3.50
  -4   0   6  140.70    3.73
  -4   0   6  140.91    3.77
   3   0  -6  427.93   10.10
   3   0  -6  429.98   10.13
  -3   0   6  426.79    9.90
  -3   0   6  418.36    9.94
   2   0  -6   90.56    2.27
   2   0  -6   89.25    2.57
   2   0  -6   86.45    2.52
  -2   0   6   89.91    2.19
  -2   0   6   86.44    2.50
   1   0  -6  878.59   19.83
   1   0  -6  837.46   19.33
  -1   0   6  837.22   19.80
  -1   0   6  858.91   19.34
   0   0  -6    0.61    0.45
   0   0  -6    1.49    0.22
   0   0   6    0.69    0.23
   0   0   6    0.97    0.42
  -1   0  -6  804.40   20.54
   1   0   6  906.77   20.61
   1   0   6  926.66   20.18
  -2   0  -6   94.27    2.35
  -2   0  -6   93.98    2.61
   2   0   6   94.56    2.94
   2   0   6   88.41    2.60
  -3   0  -6   87.21    2.64
   3   0   6   87.64    2.91
  -4   0  -6  149.66    4.28
   4   0   6  154.34    4.49
  -5   0  -6   27.57    2.22
   5   0   6   30.32    1.86
  -6   0  -6   98.30    3.58
   6   0   6  105.68    3.69
  -7   0  -6    9.98    1.47
  -9   1   6   47.47    2.90
  -8   1   6   30.78    2.09
  -7   1   6  103.20    3.45
  -6   1   6  143.78    4.12
   5  -1  -6   27.61    1.23
  -5   1   6   27.96    1.29
   4  -1  -6  191.66    4.72
   4  -1  -6  195.87    4.92
  -4   1   6  201.26    4.83
  -4   1   6  187.66    4.84
   3  -1  -6   14.08    0.91
   3  -1  -6   13.72    0.68
  -3   1   6   15.62    0.62
  -3   1   6   14.23    0.64
   2  -1  -6  203.26    5.22
   2  -1  -6  206.77    5.05
  -2   1   6  204.56    5.15
   1  -1  -6    1.70    0.46
  -1   1   6    2.31    0.44
   0  -1  -6  603.04   13.58
   0  -1  -6  602.46   13.54
   0  -1  -6  566.04   14.10
   0   1   6  573.08   14.06
   0   1   6  622.40   13.53
  -1  -1  -6   24.70    1.07
  -1  -1  -6   26.87    1.05
   1   1   6   26.25    1.30
   1   1   6   28.90    0.97
  -2  -1  -6  128.05    3.34
  -2  -1  -6  121.59    3.27
  -2  -1  -6  119.38    3.43
   2   1   6  125.31    3.66
   2   1   6  126.41    3.31
  -3  -1  -6  109.64    3.09
  -3  -1  -6  114.21    3.23
   3   1   6  109.78    3.43
  -4  -1  -6   78.41    2.68
  -4  -1  -6   82.96    2.58
   4   1   6   78.15    2.82
  -5  -1  -6  162.20    4.76
  -5  -1  -6  161.40    4.59
   5   1   6  154.39    4.72
  -6  -1  -6   38.56    2.23
   6   1   6   42.80    2.31
  -7  -1  -6   80.58    3.54
  -9   2   6   30.89    2.46
  -8   2   6  126.53    4.19
  -7   2   6   58.29    2.37
   6  -2  -6   11.41    0.78
  -6   2   6   12.45    1.10
   5  -2  -6  121.91    3.18
  -5   2   6  121.28    3.36
   4  -2  -6   61.34    1.85
  -4   2   6   64.12    1.86
  -4   2   6   64.13    1.87
   3  -2  -6  221.22    5.55
  -3   2   6  232.89    5.31
  -3   2   6  223.44    5.29
   2  -2  -6    8.10    0.60
  -2   2   6    7.64    0.68
   1  -2  -6  406.05    9.73
  -1   2   6  410.17    9.85
   0  -2  -6   24.63    0.80
   0  -2  -6   25.77    1.10
   0  -2  -6   26.17    0.81
   0   2   6   26.35    1.23
  -1  -2  -6   69.89    1.96
  -1  -2  -6   69.49    1.98
   1   2   6   67.80    2.31
  -2  -2  -6   68.11    2.09
  -2  -2  -6   66.66    2.17
   2   2   6   68.35    2.37
  -3  -2  -6  145.45    4.02
  -3  -2  -6  147.10    4.05
   3   2   6  140.49    4.17
  -4  -2  -6  225.27    5.99
  -4  -2  -6  221.91    6.01
   4   2   6  223.37    6.06
  -5  -2  -6   58.24    2.52
  -5  -2  -6   57.57    2.51
   5   2   6   56.23    2.46
  -6  -2  -6  138.83    4.49
  -6  -2  -6  125.77    4.43
  -8   3   6   49.08    2.51
   7  -3  -6   66.68    2.46
  -7   3   6   68.33    2.59
   6  -3  -6  146.75    3.87
  -6   3   6  143.39    4.06
   5  -3  -6   25.78    1.20
   5  -3  -6   27.53    1.13
  -5   3   6   24.74    1.18
  -5   3   6   24.48    1.37
   4  -3  -6  346.38    8.19
   4  -3  -6  348.25    8.43
  -4   3   6  347.23    8.32
  -4   3   6  353.82    8.22
   3  -3  -6    2.07    0.42
   3  -3  -6    2.05    0.29
  -3   3   6    1.93    0.24
   2  -3  -6   66.22    2.06
   1  -3  -6    2.86    0.48
  -1   3   6    3.59    0.38
   0  -3  -6  278.23    6.42
   0  -3  -6  262.31    6.39
   0  -3  -6  271.03    6.75
   0   3   6  270.24    6.51
   0   3   6  275.53    6.91
  -1  -3  -6   32.07    1.24
  -1  -3  -6   32.03    1.21
  -1  -3  -6   32.70    1.36
   1   3   6   33.89    1.51
   1   3   6   34.44    1.39
  -2  -3  -6  277.77    6.83
  -2  -3  -6  271.84    7.05
  -2  -3  -6  273.74    6.91
   2   3   6  273.15    7.06
  -3  -3  -6  265.89    7.09
  -3  -3  -6  272.67    6.95
  -3  -3  -6  274.71    6.89
   3   3   6  270.92    7.05
  -4  -3  -6   42.67    2.11
  -4  -3  -6   45.83    2.23
  -4  -3  -6   43.55    1.85
   4   3   6   45.15    2.04
  -5  -3  -6  122.47    3.59
  -5  -3  -6  114.60    3.97
  -5  -3  -6  115.58    4.11
   5   3   6  120.75    3.80
  -6  -3  -6   13.70    1.84
  -6  -3  -6   10.26    1.68
   7  -4  -6   90.46    2.84
  -7   4   6   89.29    3.03
   6  -4  -6   68.59    2.27
  -6   4   6   67.15    2.28
   5  -4  -6  181.96    4.70
  -5   4   6  171.47    4.48
   4  -4  -6   27.30    1.10
   4  -4  -6   29.22    1.29
  -4   4   6   26.92    1.08
   3  -4  -6  100.55    2.89
   3  -4  -6   96.46    2.53
  -3   4   6   98.57    2.47
   2  -4  -6   33.48    1.09
   2  -4  -6   33.60    1.39
  -2   4   6   34.25    1.04
   1  -4  -6  399.87    8.99
   1  -4  -6  382.06    9.39
  -1   4   6  375.33    9.04
   0  -4  -6   78.01    2.42
   0  -4  -6   78.04    2.13
   0  -4  -6   71.93    2.10
   0   4   6   72.78    2.22
  -1  -4  -6  127.54    3.62
  -1  -4  -6  130.59    3.44
   1   4   6  125.30    3.62
  -2  -4  -6  182.71    4.75
  -2  -4  -6  174.76    4.80
  -2  -4  -6  171.37    5.10
   2   4   6  182.42    4.99
  -3  -4  -6   37.90    1.77
  -3  -4  -6   31.96    1.62
  -3  -4  -6   35.92    2.10
  -4  -4  -6   87.39    3.16
  -4  -4  -6   88.26    3.45
  -4  -4  -6   88.44    2.97
  -5  -4  -6    4.78    1.55
  -5  -4  -6    4.80    1.28
   7  -5  -6   34.24    1.77
   6  -5  -6   97.03    3.04
  -6   5   6   92.06    2.85
   5  -5  -6    0.49    0.60
  -5   5   6   -0.17    0.47
   4  -5  -6  109.03    3.28
  -4   5   6  106.83    2.84
   3  -5  -6    6.93    0.80
  -3   5   6    5.72    0.60
   2  -5  -6  132.74    3.46
   2  -5  -6  135.79    3.78
  -2   5   6  127.37    3.35
   1  -5  -6   33.08    1.49
   1  -5  -6   31.67    1.29
  -1   5   6   33.47    1.31
   0  -5  -6  240.48    6.18
   0   5   6  232.33    5.99
  -1  -5  -6   10.47    1.06
  -1  -5  -6   10.11    0.98
   1   5   6   10.16    1.19
  -2  -5  -6   65.17    2.35
  -2  -5  -6   66.61    2.40
   2   5   6   66.83    2.73
  -3  -5  -6  105.12    3.48
  -3  -5  -6  104.95    3.30
  -3  -5  -6  103.31    3.91
   3   5   6  105.07    3.90
  -4  -5  -6   49.47    2.98
  -4  -5  -6   54.51    2.26
  -4  -5  -6   55.07    2.64
  -5  -5  -6  102.67    4.04
  -5  -5  -6  105.23    4.49
   7  -6  -6   78.49    2.93
   6  -6  -6   19.74    1.45
   5  -6  -6  127.24    3.86
   4  -6  -6    1.90    0.66
   3  -6  -6  268.48    6.88
  -3   6   6  255.63    6.37
   2  -6  -6   49.11    1.94
  -2   6   6   43.02    1.62
   1  -6  -6  181.44    5.01
  -1   6   6  179.63    4.76
   0  -6  -6   40.16    1.81
   0   6   6   37.95    1.80
  -1  -6  -6   41.42    1.79
  -1  -6  -6   38.86    1.87
   1   6   6   40.64    2.11
  -2  -6  -6   72.35    2.66
  -2  -6  -6   71.14    3.00
  -2  -6  -6   69.89    3.35
   2   6   6   73.19    3.14
  -3  -6  -6   59.15    2.74
  -3  -6  -6   56.61    2.47
  -3  -6  -6   67.38    3.42
   3   6   6   59.83    3.15
  -4  -6  -6   70.00    3.89
  -4  -6  -6   69.56    3.22
   7  -7  -6   13.60    1.52
   6  -7  -6  100.99    3.56
   5  -7  -6    1.56    0.87
   4  -7  -6  209.44    5.85
   3  -7  -6   10.39    1.15
   2  -7  -6  105.99    3.49
   1  -7  -6   31.81    1.77
   0  -7  -6   93.81    3.19
  -1  -7  -6   28.26    2.64
  -1  -7  -6   30.54    1.81
   1   7   6   23.69    2.66
  -2  -7  -6   32.47    2.03
  -2  -7  -6   41.84    3.12
   2   7   6   37.38    3.69
  -3  -7  -6   90.42    3.38
   4  -8  -6   11.76    1.58
   3  -8  -6   72.50    2.92
   2  -8  -6   27.83    1.91
   1  -8  -6   51.88    2.42
   0  -8  -6   62.06    2.74
  -1  -8  -6   45.54    2.63
   0  -9   7  126.91    4.87
   0  -9   7  133.99    4.58
   1  -9   7   12.57    1.84
   1  -9   7   10.41    1.66
   2  -9   7  114.68    4.32
   2   8  -7   35.36    2.62
  -2  -8   7   35.62    2.80
   1   8  -7  123.97    4.31
  -1  -8   7  124.84    4.06
  -1  -8   7  120.81    4.45
   0   8  -7   15.43    1.80
   0  -8   7   11.73    1.38
   0  -8   7   12.72    1.56
  -1   8  -7   95.83    3.47
   1  -8   7   97.04    3.65
   1  -8   7   93.71    3.52
  -2   8  -7    0.99    0.97
   2  -8   7    1.97    1.07
  -3   8  -7   75.38    3.15
   3  -8   7   79.08    3.31
  -4   8  -7   24.10    2.13
   4  -8   7   26.86    2.31
  -4  -7   7   40.85    2.94
   3   7  -7   28.98    2.33
  -3  -7   7   34.35    2.58
   2   7  -7  144.21    4.57
  -2  -7   7  136.07    4.18
  -2  -7   7  140.63    4.71
   1   7  -7    0.68    0.89
  -1  -7   7   -0.56    1.02
  -1  -7   7    1.85    1.22
   0   7  -7  156.83    4.74
   0  -7   7  163.01    4.73
   0  -7   7  158.14    4.82
  -1   7  -7   14.57    1.43
   1  -7   7   14.75    1.55
   1  -7   7   16.15    1.50
  -2   7  -7  126.94    4.00
   2  -7   7  127.31    4.11
  -3   7  -7    3.09    0.94
   3  -7   7    4.41    1.05
  -4   7  -7  133.77    4.34
   4  -7   7  138.32    4.53
  -5   7  -7   10.52    1.45
   5  -7   7   10.36    1.65
   5   6  -7   24.67    2.71
  -5  -6   7   26.19    2.58
   4   6  -7   59.56    2.95
  -4  -6   7   55.83    2.99
   3   6  -7  116.11    4.00
  -3  -6   7  116.00    4.05
   2   6  -7   22.94    1.68
  -2  -6   7   24.10    1.49
  -2  -6   7   23.56    1.86
   1   6  -7  185.53    5.25
  -1  -6   7  184.51    5.10
  -1  -6   7  188.48    5.34
   0   6  -7   -0.16    0.64
   0  -6   7    2.00    0.74
   0  -6   7    0.56    0.71
  -1   6  -7  208.86    5.64
   1  -6   7  204.90    5.57
   1  -6   7  209.58    5.77
  -2   6  -7    1.55    0.69
   2  -6   7   -0.44    0.71
  -3   6  -7  204.46    5.68
   3  -6   7  205.42    5.85
  -4   6  -7   28.39    1.79
   4  -6   7   34.97    2.00
  -5   6  -7   63.60    2.72
   5  -6   7   62.60    2.89
  -6   6  -7   88.10    3.49
   6  -6   7   88.43    3.74
   6   5  -7   39.76    3.24
  -6  -5   7   37.85    2.52
  -6  -5   7   37.70    2.90
   5   5  -7   90.86    3.77
  -5  -5   7   87.81    3.76
   4   5  -7  172.06    5.25
  -4  -5   7  166.07    5.25
   3   5  -7   44.33    2.13
  -3  -5   7   41.87    1.71
   2   5  -7  180.71    5.06
  -2  -5   7  180.25    5.14
  -2  -5   7  179.44    4.80
   1   5  -7    3.86    0.68
  -1  -5   7    3.96    0.69
  -1  -5   7    4.29    0.74
   0   5  -7  246.38    6.46
   0  -5   7  249.27    6.49
   0  -5   7  254.48    6.42
  -1   5  -7    2.69    0.61
   1  -5   7    3.81    0.71
   1  -5   7    3.68    0.64
  -2   5  -7  146.51    4.14
   2  -5   7  145.78    4.30
   3  -5   7   53.56    2.89
  -4   5  -7   51.98    2.21
   4  -5   7   50.47    2.33
  -5   5  -7   63.38    2.60
   5  -5   7   59.54    2.76
  -6   5  -7   48.06    2.47
   6  -5   7   44.17    2.68
   7  -5   7   46.04    3.23
   7   4  -7   31.64    3.26
  -7  -4   7   31.66    2.89
   6   4  -7   96.39    4.05
  -6  -4   7   99.59    3.66
  -6  -4   7  103.43    4.18
   5   4  -7   83.33    3.37
  -5  -4   7   83.05    3.36
   4   4  -7   26.01    2.76
  -4  -4   7   30.57    2.12
   3   4  -7   58.92    1.77
   3   4  -7   63.89    2.36
  -3  -4   7   60.23    2.01
  -3  -4   7   60.28    2.41
   2   4  -7   64.62    2.20
  -2  -4   7   60.23    2.23
  -2  -4   7   58.94    2.04
   1   4  -7  304.00    7.46
  -1  -4   7  300.40    7.46
  -1  -4   7  293.39    7.46
   0   4  -7    0.50    0.40
   0  -4   7    0.70    0.49
   0  -4   7    0.73    0.46
  -1   4  -7  380.08    9.27
   1  -4   7  380.42    9.08
   1  -4   7  383.16    9.45
  -2   4  -7   83.17    2.60
   2  -4   7   81.32    2.74
  -3   4  -7   35.65    1.64
   3  -4   7   38.80    1.85
   4  -4   7   95.32    3.98
  -5   4  -7   59.86    2.52
   5  -4   7   65.19    2.80
  -6   4  -7  105.67    3.75
   6  -4   7  107.85    4.01
  -7   4  -7   23.45    2.10
   7  -4   7   24.10    2.54
   7   3  -7   17.55    2.12
  -7  -3   7   14.65    1.67
   6   3  -7   76.47    3.45
  -6  -3   7   79.40    3.00
  -6  -3   7   74.34    3.28
  -5  -3   7   40.41    2.28
   4   3  -7   84.66    2.92
  -4  -3   7   82.26    2.95
   3   3  -7   91.89    2.87
   3   3  -7   94.14    2.42
  -3  -3   7   90.82    2.99
  -3  -3   7   90.80    2.72
   2   3  -7  388.88    9.19
   2   3  -7  397.04    9.44
  -2  -3   7  385.99    9.51
  -2  -3   7  385.24    9.37
   1   3  -7    0.25    0.34
  -1  -3   7    0.47    0.39
  -1  -3   7    1.06    0.44
   0   3  -7  239.12    6.19
   0  -3   7  259.98    6.18
   0  -3   7  255.74    6.42
  -1   3  -7    4.60    0.57
   1  -3   7    5.27    0.47
   1  -3   7    5.89    0.75
  -2   3  -7   86.14    2.62
   2  -3   7   88.83    2.86
  -3   3  -7   65.20    2.25
   3  -3   7   65.83    2.45
  -4   3  -7  220.39    5.95
   4  -3   7  220.38    6.13
  -5   3  -7  133.97    4.20
   5  -3   7  135.40    4.72
  -6   3  -7   36.27    2.13
   6  -3   7   33.94    2.32
  -7   3  -7  104.48    3.96
   7  -3   7  103.42    4.17
  -8  -2   7   94.61    3.85
  -7  -2   7   86.53    3.33
   6   2  -7  114.02    4.14
  -6  -2   7  118.06    3.74
   5   2  -7  256.98    6.90
  -5  -2   7  250.76    6.61
   4   2  -7  109.44    3.35
  -4  -2   7  112.34    2.75
  -4  -2   7  105.44    3.45
   3   2  -7  293.95    6.85
   3   2  -7  285.25    7.19
  -3  -2   7  281.98    7.33
  -3  -2   7  294.15    7.31
   2   2  -7    2.20    0.41
   2   2  -7    0.83    0.49
   2   2  -7    2.89    0.47
  -2  -2   7    2.10    0.53
  -2  -2   7    2.20    0.40
  -2  -2   7    2.48    0.47
   1   2  -7  127.03    3.47
   1   2  -7  127.77    3.41
   1   2  -7  130.82    3.39
  -1  -2   7  133.57    3.62
  -1  -2   7  133.00    3.36
  -1  -2   7  133.50    3.42
   0   2  -7   54.96    1.69
   0  -2   7   57.89    1.75
   0  -2   7   57.77    1.56
   0  -2   7   56.05    1.96
  -1   2  -7  328.18    7.78
   1  -2   7  317.48    7.85
   1  -2   7  325.11    8.11
  -2   2  -7  128.91    3.55
   2  -2   7  132.56    3.83
  -3   2  -7   54.25    1.95
   3  -2   7   51.74    2.13
  -4   2  -7  234.26    6.27
   4  -2   7  236.48    5.70
   4  -2   7  234.93    6.45
  -5   2  -7   17.09    1.47
   5  -2   7   19.70    1.74
  -6   2  -7   40.93    2.28
   6  -2   7   40.45    2.50
  -7   2  -7   -0.75    1.21
   7  -2   7    4.38    1.65
  -8  -1   7   43.38    2.61
  -7  -1   7   49.00    2.29
  -6  -1   7  146.60    4.31
   5   1  -7  109.96    3.56
  -5  -1   7  108.77    3.24
   4   1  -7   67.40    2.24
   4   1  -7   63.01    1.78
   4   1  -7   61.99    1.68
  -4  -1   7   62.02    2.01
  -4  -1   7   63.40    1.75
   3   1  -7    8.74    0.73
   3   1  -7    9.11    0.76
  -3  -1   7    9.18    0.63
  -3  -1   7    9.07    0.74
   2   1  -7  207.04    5.29
   2   1  -7  209.31    5.33
   2   1  -7  213.08    5.14
  -2  -1   7  207.54    5.36
  -2  -1   7  214.57    5.05
   1   1  -7    8.84    0.51
   1   1  -7    8.76    0.82
   1   1  -7    9.79    0.62
  -1  -1   7    8.74    0.51
  -1  -1   7    7.86    0.79
   0   1  -7  450.44   10.51
   0   1  -7  465.26   10.69
   0  -1   7  475.26   10.75
   0  -1   7  449.75   11.16
  -1   1  -7   84.68    2.31
   1  -1   7   83.05    2.37
   1  -1   7   83.44    2.72
  -2   1  -7  310.38    7.57
   2  -1   7  309.80    7.96
  -3   1  -7  133.28    3.73
   3  -1   7  130.82    4.03
  -4   1  -7  108.24    3.37
   4  -1   7  111.97    3.70
   4  -1   7  108.51    2.91
  -5   1  -7  104.36    3.51
   5  -1   7  106.18    3.75
  -6   1  -7   11.52    1.41
   6  -1   7   18.29    2.06
  -7   1  -7  104.38    4.05
   7  -1   7  110.81    4.35
  -9   0   7   24.65    2.68
  -8   0   7   58.43    2.82
  -7   0   7   73.23    2.82
  -6   0   7   12.99    1.22
   5   0  -7  153.90    3.86
   5   0  -7  149.90    3.64
  -5   0   7  149.67    4.11
   4   0  -7    0.20    0.51
   4   0  -7    0.37    0.28
   4   0  -7    0.32    0.53
  -4   0   7   -0.56    0.36
  -4   0   7   -0.25    0.37
   3   0  -7  138.21    3.77
   3   0  -7  135.43    3.54
  -3   0   7  139.88    3.44
  -3   0   7  138.78    3.66
  -3   0   7  145.12    3.74
   2   0  -7    5.31    0.61
   2   0  -7    5.72    0.43
   2   0  -7    5.34    0.70
  -2   0   7    5.49    0.63
  -2   0   7    5.31    0.34
   1   0  -7  728.12   17.21
   1   0  -7  782.37   17.45
   1   0  -7  735.81   17.76
  -1   0   7  753.46   17.79
  -1   0   7  788.98   17.25
   0   0  -7   17.14    0.65
   0   0   7   16.66    1.06
   0   0   7   17.96    0.71
  -1   0  -7  562.94   13.03
   1   0   7  552.80   13.53
   1   0   7  566.23   13.04
  -2   0  -7  103.90    2.86
   2   0   7   96.77    2.84
   2   0   7  103.98    3.26
  -3   0  -7  105.93    3.13
   3   0   7  107.54    3.47
  -4   0  -7  183.05    5.06
   4   0   7  184.29    5.33
  -5   0  -7   45.09    2.13
   5   0   7   47.96    2.40
  -6   0  -7   52.37    2.52
   6   0   7   50.45    4.24
  -7   0  -7    6.48    1.48
  -9   1   7   46.98    2.95
  -8   1   7   73.26    3.06
  -7   1   7   66.66    2.62
   6  -1  -7  209.53    5.59
  -6   1   7  230.82    5.85
   5  -1  -7   15.59    0.76
   5  -1  -7   14.95    1.16
  -5   1   7   16.55    1.05
   4  -1  -7  245.08    6.00
   4  -1  -7  234.85    6.22
  -4   1   7  264.33    6.00
   3  -1  -7   22.45    1.23
   3  -1  -7   22.70    0.96
  -3   1   7   24.79    0.75
  -3   1   7   23.24    1.05
  -3   1   7   23.58    0.81
   2  -1  -7  534.23   12.63
  -2   1   7  541.88   12.78
  -1   1   7   23.34    1.17
   0  -1  -7  116.22    2.90
   0  -1  -7  119.32    2.85
   0   1   7  114.03    3.43
   0   1   7  119.26    2.85
  -1  -1  -7  106.09    2.91
  -1  -1  -7  110.64    2.84
   1   1   7  108.56    3.34
   1   1   7  108.44    2.82
  -2  -1  -7  205.17    4.93
  -2  -1  -7  187.88    5.21
  -2  -1  -7  200.54    5.04
   2   1   7  194.55    5.01
   2   1   7  204.34    5.48
  -3  -1  -7   86.95    2.56
  -3  -1  -7   87.43    2.71
   3   1   7   87.83    3.00
  -4  -1  -7   56.31    2.25
  -4  -1  -7   60.99    2.09
   4   1   7   56.60    2.46
  -5  -1  -7   85.82    3.17
   5   1   7   88.72    3.29
  -6  -1  -7    3.16    1.15
   6   1   7    3.05    1.38
  -7  -1  -7   44.30    3.52
  -8   2   7   72.11    2.99
  -7   2   7   63.04    2.47
   6  -2  -7    2.13    0.48
  -6   2   7    3.86    0.72
   5  -2  -7  153.24    3.96
  -5   2   7  150.09    4.03
  -5   2   7  159.75    4.07
   4  -2  -7    1.02    0.37
  -4   2   7    1.59    0.41
  -4   2   7    2.41    0.41
   3  -2  -7  178.54    4.57
   2  -2  -7  100.60    2.81
  -2   2   7   99.22    2.93
   1  -2  -7  243.74    6.13
  -1   2   7  244.29    6.27
   0  -2  -7  128.13    3.15
   0  -2  -7  131.38    3.61
   0  -2  -7  131.04    3.17
   0   2   7  131.38    3.78
  -1  -2  -7  221.37    5.46
   1   2   7  224.99    5.95
  -2  -2  -7  230.24    5.73
  -2  -2  -7  222.38    5.66
   2   2   7  220.63    6.05
  -3  -2  -7  100.75    3.08
  -3  -2  -7  100.63    3.07
   3   2   7  101.85    3.35
  -4  -2  -7  136.49    4.12
  -4  -2  -7  141.74    4.07
   4   2   7  133.13    4.24
  -5  -2  -7    6.07    1.16
  -5  -2  -7    4.91    1.15
   5   2   7    3.01    1.20
  -6  -2  -7   75.20    3.25
  -7   3   7   11.91    1.26
   6  -3  -7  188.20    4.82
  -6   3   7  184.60    4.93
   5  -3  -7   16.64    0.96
  -5   3   7   16.76    0.96
   4  -3  -7  319.61    7.72
  -4   3   7  315.81    7.43
  -4   3   7  309.76    7.35
   3  -3  -7   17.63    0.95
   2  -3  -7  173.06    4.56
   1  -3  -7   48.51    1.73
  -1   3   7   47.02    1.84
   0  -3  -7  250.18    6.00
   0  -3  -7  255.39    6.03
   0  -3  -7  253.74    6.45
   0   3   7  257.59    6.63
  -1  -3  -7  100.89    2.91
  -1  -3  -7  111.36    3.23
  -1  -3  -7  112.43    2.95
   1   3   7  110.61    3.38
  -2  -3  -7  205.95    5.21
  -2  -3  -7  200.60    5.35
  -2  -3  -7  200.93    5.39
   2   3   7  193.99    5.51
  -3  -3  -7  119.00    3.67
  -3  -3  -7  117.44    3.51
  -3  -3  -7  114.18    3.53
   3   3   7  119.16    3.77
  -4  -3  -7   28.63    1.68
  -4  -3  -7   31.79    2.04
  -4  -3  -7   29.82    1.88
   4   3   7   31.21    1.92
  -5  -3  -7  147.38    4.36
  -5  -3  -7  154.29    4.80
  -5  -3  -7  145.28    4.72
   5   3   7  149.02    4.63
  -6  -3  -7   -0.27    1.38
   7  -4  -7  155.55    4.34
   6  -4  -7   31.43    1.46
  -6   4   7   29.08    1.46
   5  -4  -7  158.78    4.26
  -5   4   7  152.71    3.94
   4  -4  -7   -0.37    0.43
  -4   4   7    0.34    0.31
   3  -4  -7   52.69    1.90
   2  -4  -7  133.23    3.75
   1  -4  -7  118.60    2.88
   1  -4  -7  113.92    3.36
   1  -4  -7  116.44    2.87
  -1   4   7  112.26    2.95
   0  -4  -7  164.81    4.56
   0  -4  -7  170.07    4.16
   0  -4  -7  168.26    4.18
   0   4   7  163.44    4.31
  -1  -4  -7   28.99    1.45
  -1  -4  -7   27.20    1.25
   1   4   7   27.56    1.46
  -2  -4  -7  162.83    4.45
  -2  -4  -7  159.67    4.57
  -2  -4  -7  161.66    4.81
   2   4   7  167.78    4.82
  -3  -4  -7   41.51    2.26
  -3  -4  -7   41.51    1.97
  -3  -4  -7   40.42    1.90
   3   4   7   41.60    2.13
  -4  -4  -7  165.60    5.11
  -4  -4  -7  159.73    4.88
  -4  -4  -7  158.62    4.66
  -5  -4  -7    3.88    1.56
  -5  -4  -7    3.22    1.40
   7  -5  -7   17.48    1.49
   6  -5  -7  119.51    3.62
   5  -5  -7    3.20    0.70
   4  -5  -7   97.11    3.04
   3  -5  -7   86.30    2.80
   2  -5  -7   93.27    3.21
   1  -5  -7  113.25    3.40
  -1   5   7  108.85    3.02
   0  -5  -7   98.76    3.10
   0  -5  -7   99.28    2.75
   0   5   7   94.22    2.90
  -1  -5  -7  106.07    3.27
  -1  -5  -7  104.71    3.03
   1   5   7   97.62    3.26
  -2  -5  -7   63.73    2.92
  -2  -5  -7   61.00    2.39
  -2  -5  -7   64.45    2.38
   2   5   7   68.45    2.83
  -3  -5  -7  169.81    4.95
  -3  -5  -7  166.52    5.41
  -3  -5  -7  171.04    4.86
  -4  -5  -7   26.58    2.63
  -4  -5  -7   22.73    2.14
  -4  -5  -7   24.29    1.80
  -5  -5  -7   55.71    3.18
   7  -6  -7   80.91    3.01
   6  -6  -7    1.55    0.81
   5  -6  -7   86.59    2.97
   4  -6  -7    1.90    0.70
   3  -6  -7  184.10    5.14
   2  -6  -7   58.88    2.28
   1  -6  -7  110.40    3.48
   0  -6  -7  156.84    4.34
   0  -6  -7  153.70    4.49
   0   6   7  147.16    4.44
  -1  -6  -7   23.72    1.46
  -1  -6  -7   17.49    1.50
   1   6   7   23.99    1.89
  -2  -6  -7  146.30    4.44
  -2  -6  -7  142.48    4.44
  -2  -6  -7  145.88    5.08
   2   6   7  152.33    4.82
  -3  -6  -7   13.03    1.45
  -3  -6  -7   13.87    2.13
  -3  -6  -7   13.51    1.63
  -4  -6  -7   74.91    4.11
   6  -7  -7  129.58    4.21
   5  -7  -7    4.07    1.02
   4  -7  -7   98.89    3.41
   3  -7  -7   72.09    2.78
   2  -7  -7   55.92    2.39
   1  -7  -7   60.58    2.51
   0  -7  -7   31.71    1.95
  -1  -7  -7   66.28    3.52
  -1  -7  -7   64.14    2.73
  -2  -7  -7   11.10    1.42
  -2  -7  -7    9.52    2.09
  -3  -7  -7   65.07    3.39
   0  -9   8  156.14    5.47
   0  -9   8  154.24    5.27
   1  -9   8    0.49    1.62
   1  -9   8    2.14    1.92
  -2  -8   8   27.54    2.75
   1   8  -8  156.57    5.19
  -1  -8   8  159.97    5.29
  -1  -8   8  164.02    5.02
   0   8  -8    0.59    1.15
   0  -8   8    1.93    1.29
   0  -8   8   -0.30    1.18
  -1   8  -8   47.03    2.44
   1  -8   8   45.35    2.59
   1  -8   8   47.38    2.61
  -2   8  -8    5.77    1.18
   2  -8   8   13.35    1.64
   2  -8   8    9.78    1.50
  -3   8  -8   58.19    2.84
   3  -8   8   56.00    2.97
  -4  -7   8   67.24    3.67
   3   7  -8   34.21    2.49
  -3  -7   8   29.58    2.56
   2   7  -8   72.59    3.06
  -2  -7   8   69.17    3.15
  -2  -7   8   67.59    2.84
   1   7  -8    4.51    1.09
  -1  -7   8    8.19    1.34
  -1  -7   8    7.38    1.17
   0   7  -8  123.73    4.03
   0  -7   8  125.62    4.09
   0  -7   8  128.15    4.18
  -1   7  -8   19.98    1.63
   1  -7   8   24.03    1.75
   1  -7   8   18.68    1.70
  -2   7  -8   79.31    2.99
   2  -7   8   82.37    3.18
  -3   7  -8   59.30    2.59
   3  -7   8   57.71    2.75
  -4   7  -8   69.52    2.88
   4  -7   8   67.49    3.22
  -5   7  -8   26.71    2.19
   5  -7   8   30.75    2.51
   5   6  -8   40.68    3.12
  -5  -6   8   44.43    3.20
   4   6  -8   28.02    2.44
  -4  -6   8   29.84    2.44
   3   6  -8   98.28    3.68
  -3  -6   8  100.38    3.75
   2   6  -8    0.61    0.87
  -2  -6   8    4.34    1.06
  -2  -6   8    2.10    0.85
   1   6  -8  249.03    6.82
  -1  -6   8  254.39    6.86
  -1  -6   8  259.69    6.78
   0   6  -8    4.23    0.86
   0  -6   8    5.96    0.92
   0  -6   8    4.30    0.94
  -1   6  -8  209.19    5.91
   1  -6   8  222.05    5.86
   1  -6   8  227.97    6.14
  -2   6  -8   75.68    2.77
   2  -6   8   79.56    2.97
  -3   6  -8  142.71    4.32
   3  -6   8  143.06    4.58
  -4   6  -8   66.37    2.69
   4  -6   8   66.43    2.93
  -5   6  -8   37.66    2.13
   5  -6   8   28.66    2.37
   6  -6   8   65.59    3.51
   6   5  -8   45.56    3.48
  -6  -5   8   44.50    2.73
  -6  -5   8   47.66    4.17
   5   5  -8   37.09    2.66
  -5  -5   8   37.15    2.74
   4   5  -8  137.92    4.59
  -4  -5   8  139.16    4.61
   3   5  -8   13.78    1.58
  -3  -5   8   15.62    1.92
  -3  -5   8   15.62    1.31
   2   5  -8  195.77    6.10
  -2  -5   8  201.20    5.37
  -2  -5   8  203.26    5.61
   1   5  -8    4.03    0.76
  -1  -5   8    4.15    0.79
  -1  -5   8    4.20    0.81
   0   5  -8  273.02    7.17
   0  -5   8  289.47    7.32
   0  -5   8  278.57    7.10
  -1   5  -8   34.52    1.61
   1  -5   8   35.76    1.52
   1  -5   8   36.43    1.81
  -2   5  -8   59.80    2.19
   2  -5   8   57.39    2.71
  -3   5  -8  118.54    3.66
   3  -5   8  119.19    3.91
  -4   5  -8   99.26    3.43
   4  -5   8  110.10    3.76
  -5   5  -8   44.17    2.25
   5  -5   8   45.74    2.58
  -6   5  -8   21.37    2.02
   6  -5   8   27.51    2.61
   7  -5   8   76.37    4.05
   6   4  -8   38.12    2.86
  -6  -4   8   38.35    2.30
  -6  -4   8   43.64    2.87
   5   4  -8  118.96    4.24
  -5  -4   8  123.08    4.26
   4   4  -8    3.92    1.03
  -4  -4   8    5.15    1.12
   3   4  -8  105.23    3.35
  -3  -4   8  100.35    3.02
  -3  -4   8   99.93    3.35
   2   4  -8    6.44    0.84
  -2  -4   8    6.62    0.87
  -2  -4   8    5.85    0.80
   1   4  -8  102.38    3.07
  -1  -4   8  103.40    3.08
  -1  -4   8  105.61    3.19
   0   4  -8   58.41    2.01
   0  -4   8   57.40    1.94
   0  -4   8   61.23    2.22
  -1   4  -8  146.26    4.02
   1  -4   8  146.91    4.27
  -2   4  -8  155.60    4.26
   2  -4   8  152.11    4.53
  -3   4  -8  216.68    5.78
   3  -4   8  216.14    6.10
  -4   4  -8  140.10    4.17
   4  -4   8  136.82    4.44
  -5   4  -8   28.71    1.81
   5  -4   8   27.34    2.19
  -6   4  -8   96.03    3.59
   6  -4   8   95.37    3.91
   7  -4   8    1.43    1.77
   7   3  -8    4.56    1.79
  -7  -3   8    7.99    1.44
   6   3  -8  126.09    4.54
  -6  -3   8  128.20    4.13
   5   3  -8    7.06    1.34
  -5  -3   8    5.56    1.23
   4   3  -8  185.11    5.20
  -4  -3   8  187.36    5.32
  -4  -3   8  176.01    4.58
   3   3  -8   20.35    1.29
   3   3  -8   21.58    1.00
  -3  -3   8   23.41    1.41
  -3  -3   8   22.10    1.29
   2   3  -8  295.18    7.27
  -2  -3   8  288.89    7.33
  -2  -3   8  290.40    7.30
   1   3  -8   24.11    1.12
  -1  -3   8   25.11    1.30
  -1  -3   8   24.36    1.14
   0   3  -8  357.77    8.42
   0  -3   8  359.57    8.72
   0  -3   8  323.68    8.50
  -1   3  -8   76.59    2.33
   1  -3   8   78.70    2.65
   1  -3   8   75.68    2.00
  -2   3  -8  190.68    4.96
   2  -3   8  186.78    5.29
  -3   3  -8  207.45    5.52
   3  -3   8  208.74    5.89
  -4   3  -8   50.11    2.14
   4  -3   8   56.07    3.75
  -5   3  -8   82.96    3.03
   5  -3   8   78.71    3.26
  -6   3  -8    1.16    1.08
   6  -3   8    1.59    1.26
  -7   3  -8   82.02    3.56
   7  -3   8   83.28    3.99
  -8  -2   8   28.02    2.43
  -7  -2   8   98.18    3.61
   6   2  -8   44.13    2.64
  -6  -2   8   41.65    2.08
   5   2  -8  213.33    5.97
  -5  -2   8  210.23    5.67
   4   2  -8   56.50    2.14
   4   2  -8   55.05    1.59
  -4  -2   8   54.40    1.72
   3   2  -8  116.10    3.35
   3   2  -8  119.02    3.12
  -3  -2   8  121.20    3.32
  -3  -2   8  115.87    3.50
   2   2  -8    1.28    0.57
   2   2  -8    0.89    0.50
   2   2  -8    1.08    0.42
  -2  -2   8    1.48    0.50
  -2  -2   8    1.23    0.47
  -2  -2   8    1.53    0.56
   1   2  -8  122.64    3.21
   1   2  -8  117.18    3.19
  -1  -2   8  124.99    3.22
  -1  -2   8  121.26    3.55
  -1  -2   8  120.76    3.18
   0   2  -8   75.95    2.16
   0  -2   8   76.18    2.54
   0  -2   8   73.82    2.21
  -1   2  -8  159.92    4.14
   1  -2   8  162.43    4.57
  -2   2  -8  325.67    7.94
   2  -2   8  322.02    8.34
  -3   2  -8   13.87    1.02
   3  -2   8   14.60    1.35
  -4   2  -8  288.51    7.53
   4  -2   8  291.44    7.86
  -5   2  -8    6.66    1.07
   5  -2   8    6.15    1.28
  -6   2  -8  146.28    4.77
   6  -2   8  148.74    5.07
  -7   2  -8    1.86    1.39
   7  -2   8   -0.66    1.78
  -8  -1   8   97.72    3.83
  -7  -1   8   23.07    1.78
  -6  -1   8  165.91    4.76
   5   1  -8   20.41    1.56
  -5  -1   8   19.37    1.20
   4   1  -8  125.77    3.34
   4   1  -8  125.69    3.67
   4   1  -8  132.11    3.25
  -4  -1   8  131.33    3.34
  -4  -1   8  122.70    3.46
   3   1  -8   33.63    1.35
   3   1  -8   33.71    1.39
  -3  -1   8   34.87    1.19
  -3  -1   8   34.19    1.40
   2   1  -8   98.44    2.73
   2   1  -8   94.81    2.79
   2   1  -8   92.25    2.84
  -2  -1   8   98.50    2.51
  -2  -1   8   99.09    2.92
   1   1  -8  115.10    2.94
   1   1  -8  105.77    2.85
  -1  -1   8  113.07    2.86
  -1  -1   8  113.31    3.34
   0  -1   8   78.10    2.28
   0  -1   8   88.34    2.80
  -1   1  -8   91.47    2.54
   1  -1   8   95.22    2.64
   1  -1   8   91.33    3.04
  -2   1  -8   69.82    2.17
   2  -1   8   68.27    2.58
  -3   1  -8  171.43    4.61
   3  -1   8  163.94    4.99
  -4   1  -8  136.32    4.06
   4  -1   8  136.16    4.43
  -5   1  -8  170.66    5.06
   5  -1   8  170.96    5.46
  -6   1  -8    8.85    1.36
   6  -1   8    7.80    1.58
  -7   1  -8   83.21    3.66
   7  -1   8   82.66    4.53
  -9   0   8   15.74    2.20
  -8   0   8   60.34    2.87
  -7   0   8  102.87    3.58
  -6   0   8   16.68    1.34
   5   0  -8  235.12    6.17
  -5   0   8  263.65    6.35
   4   0  -8    5.87    0.74
   4   0  -8    4.83    0.57
   4   0  -8    4.90    0.77
  -4   0   8    6.06    0.69
  -4   0   8    6.85    0.66
  -4   0   8    6.52    0.70
   3   0  -8  146.72    3.82
   3   0  -8  142.91    4.05
   3   0  -8  147.47    3.81
  -3   0   8  153.19    3.62
  -3   0   8  147.49    3.96
   2   0  -8   36.51    1.41
   2   0  -8   36.41    1.09
  -2   0   8   32.08    1.46
  -2   0   8   35.49    1.01
   1   0  -8  352.70    8.18
   1   0  -8  333.00    7.94
  -1   0   8  354.79    7.99
  -1   0   8  336.62    8.58
   0   0  -8   46.92    1.32
   0   0   8   45.18    1.88
   0   0   8   46.56    1.39
  -1   0  -8   95.51    2.58
   1   0   8   93.49    3.10
   1   0   8   97.06    2.63
  -2   0  -8  383.23    9.24
   2   0   8  383.06    9.75
  -3   0  -8   50.21    1.92
   3   0   8   51.26    2.29
  -4   0  -8  257.96    6.83
   4   0   8  261.46    7.19
  -5   0  -8    0.29    0.85
   5   0   8    2.14    1.27
  -6   0  -8   85.69    3.42
   6   0   8   91.44    3.70
  -8   1   8   82.14    3.27
  -7   1   8    9.87    1.18
   6  -1  -8  166.37    4.24
  -6   1   8  170.43    4.64
   5  -1  -8    1.23    0.40
   5  -1  -8    1.67    0.90
  -5   1   8    2.55    0.59
  -5   1   8    1.87    0.71
   4  -1  -8  315.15    7.67
  -4   1   8  324.36    7.51
  -4   1   8  317.78    7.59
   3  -1  -8    3.89    0.53
  -3   1   8    3.65    0.57
   2  -1  -8  277.71    6.91
  -2   1   8  281.73    7.08
  -1   1   8  146.39    4.14
   0  -1  -8   59.06    1.54
   0  -1  -8   57.41    1.62
   0   1   8   58.07    1.55
   0   1   8   58.60    2.20
  -1  -1  -8  119.76    3.05
  -1  -1  -8  118.87    3.21
   1   1   8  120.02    3.10
   1   1   8  118.10    3.69
  -2  -1  -8   69.73    2.00
  -2  -1  -8   66.88    2.13
   2   1   8   69.93    2.63
  -3  -1  -8  162.80    4.25
  -3  -1  -8  166.28    4.49
   3   1   8  161.92    4.89
  -4  -1  -8   28.45    1.47
  -4  -1  -8   28.60    1.62
   4   1   8   26.66    1.99
  -5  -1  -8  115.33    3.90
   5   1   8  122.95    4.17
  -6  -1  -8   12.57    1.57
   6   1   8   13.38    1.80
  -7   2   8  135.13    4.04
   6  -2  -8    1.46    0.49
  -6   2   8    1.71    0.69
   5  -2  -8  191.40    4.85
  -5   2   8  191.31    4.83
   4  -2  -8   33.67    1.32
  -4   2   8   34.25    1.04
  -4   2   8   32.73    1.07
   3  -2  -8  143.98    3.87
   2  -2  -8  172.93    4.57
  -2   2   8  174.79    4.73
   1  -2  -8  168.85    4.53
  -1   2   8  169.33    4.69
   0  -2  -8   28.22    0.90
   0  -2  -8   29.20    0.90
   0   2   8   28.00    1.52
  -1  -2  -8   81.32    2.32
  -1  -2  -8   80.21    2.28
   1   2   8   81.37    2.84
  -2  -2  -8  234.32    5.95
  -2  -2  -8  243.91    6.00
   2   2   8  230.46    6.45
  -3  -2  -8   31.22    1.52
  -3  -2  -8   27.68    1.48
   3   2   8   29.50    1.86
  -4  -2  -8   97.86    3.35
  -4  -2  -8  105.41    3.24
  -5  -2  -8   16.10    1.75
   5   2   8   14.90    1.71
  -6  -2  -8  106.55    4.06
   6  -3  -8  155.77    4.17
   5  -3  -8   21.72    1.13
   4  -3  -8  319.89    7.90
   3  -3  -8   53.36    1.88
   2  -3  -8  253.16    6.46
   1  -3  -8   54.59    1.95
  -1   3   8   55.00    2.10
   0  -3  -8  151.43    3.66
   0  -3  -8  153.10    4.22
   0  -3  -8  148.18    3.70
   0   3   8  150.17    4.39
  -1  -3  -8   75.42    2.19
  -1  -3  -8   68.99    2.15
  -1  -3  -8   72.08    2.49
   1   3   8   76.56    2.71
  -2  -3  -8    4.10    0.70
  -2  -3  -8    3.33    0.73
  -2  -3  -8    3.49    0.81
   2   3   8    3.56    0.89
  -3  -3  -8  117.90    3.60
  -3  -3  -8  108.39    3.62
  -3  -3  -8  115.38    3.49
   3   3   8  111.43    4.12
  -4  -3  -8    6.64    1.15
  -4  -3  -8    9.69    1.35
  -4  -3  -8    6.83    1.16
   4   3   8    9.35    1.35
  -5  -3  -8  114.06    3.68
  -5  -3  -8  106.82    3.93
   5   3   8  105.25    3.90
  -6  -3  -8    4.06    1.67
   7  -4  -8  168.67    4.76
   6  -4  -8    5.10    0.86
   5  -4  -8  178.01    4.81
   4  -4  -8   31.54    1.49
   3  -4  -8  348.89    8.68
   2  -4  -8   90.64    2.85
   1  -4  -8   92.64    2.95
   0  -4  -8  193.50    5.29
  -1  -4  -8    7.58    0.73
  -1  -4  -8    5.40    0.86
   1   4   8    5.82    1.09
  -2  -4  -8  185.52    5.30
  -2  -4  -8  191.77    5.12
  -2  -4  -8  195.48    5.49
   2   4   8  194.01    5.56
  -3  -4  -8    6.99    1.23
  -3  -4  -8    5.54    1.03
  -3  -4  -8    7.62    1.07
   3   4   8    5.99    1.17
  -4  -4  -8   86.43    3.19
  -4  -4  -8   93.78    3.64
  -4  -4  -8   88.69    3.33
   4   4   8   85.51    3.49
  -5  -4  -8   20.87    2.35
   6  -5  -8   82.64    2.83
   5  -5  -8   10.37    1.18
   4  -5  -8  160.77    4.56
   3  -5  -8   49.24    1.99
   2  -5  -8   42.75    1.88
   1  -5  -8  100.72    3.22
   0  -5  -8   31.64    1.47
   0  -5  -8   28.39    1.61
   0   5   8   30.52    1.58
  -1  -5  -8   71.80    2.42
  -1  -5  -8   76.14    2.70
  -2  -5  -8   27.59    1.72
  -2  -5  -8   25.85    1.69
  -2  -5  -8   27.41    2.26
  -3  -5  -8  161.13    5.22
  -3  -5  -8  153.73    4.69
  -3  -5  -8  157.69    4.77
  -4  -5  -8    1.10    1.15
  -4  -5  -8   -0.34    1.43
   7  -6  -8   84.11    3.14
   6  -6  -8   26.07    1.80
   5  -6  -8   89.13    3.09
   4  -6  -8   62.60    2.44
   3  -6  -8   99.53    3.30
   2  -6  -8   96.04    3.22
   1  -6  -8   35.54    1.86
   0  -6  -8  169.26    4.94
  -1  -6  -8    8.55    1.16
  -2  -6  -8  113.01    4.47
  -2  -6  -8  123.67    3.95
  -3  -6  -8    3.94    1.24
  -3  -6  -8    5.98    1.95
   5  -7  -8    4.77    1.17
   4  -7  -8   74.40    2.89
   3  -7  -8   75.55    2.90
   2  -7  -8   56.96    2.51
   1  -7  -8   91.91    3.33
   0  -7  -8   12.97    1.45
  -1  -7  -8   98.04    3.53
  -1  -7  -8   95.68    4.31
  -2  -7  -8    9.77    2.25
   0  -9   9   93.29    4.74
   0  -9   9   93.65    4.55
  -2  -8   9    1.19    1.76
   1   8  -9  109.71    4.73
  -1  -8   9  119.50    4.34
  -1  -8   9  118.38    4.23
   0   8  -9   14.47    1.61
   0  -8   9   14.95    1.79
   0  -8   9   11.99    1.74
  -1   8  -9   40.67    2.42
   1  -8   9   38.47    2.70
   1  -8   9   42.62    2.57
  -2   8  -9   37.20    2.33
   2  -8   9   36.58    2.65
  -4  -7   9   79.31    5.08
   3   7  -9    3.33    1.54
  -3  -7   9    4.70    1.57
   2   7  -9   72.60    3.16
  -2  -7   9   73.03    3.29
  -2  -7   9   74.39    3.05
   1   7  -9    2.32    1.09
  -1  -7   9    1.70    1.13
  -1  -7   9    3.88    1.23
   0   7  -9  113.48    3.79
   0  -7   9  113.04    3.95
   0  -7   9  109.16    4.60
  -1   7  -9   24.20    1.77
   1  -7   9   23.15    1.82
   1  -7   9   21.51    2.00
  -2   7  -9   52.55    2.47
   2  -7   9   55.47    2.74
  -3   7  -9  109.61    3.77
   3  -7   9  106.43    4.04
  -4   7  -9   23.87    1.94
   4  -7   9   23.86    2.37
  -5  -6   9   62.48    4.18
   4   6  -9   -2.81    1.41
  -4  -6   9    4.10    1.43
   3   6  -9   97.28    3.76
  -3  -6   9  101.16    3.76
   2   6  -9    6.99    1.20
  -2  -6   9    7.21    1.22
  -2  -6   9    4.76    1.10
   1   6  -9  125.52    4.08
  -1  -6   9  135.25    4.13
  -1  -6   9  134.21    4.14
   0   6  -9   11.85    1.34
   0  -6   9   14.67    1.56
   0  -6   9   12.72    1.42
  -1   6  -9  110.34    3.52
   1  -6   9  110.15    3.41
   1  -6   9  113.75    3.80
  -2   6  -9   89.35    3.08
   2  -6   9   82.93    3.28
   2  -6   9   89.82    2.84
  -3   6  -9   55.20    2.32
   3  -6   9   51.81    2.61
  -4   6  -9  143.28    4.48
   4  -6   9  139.11    4.80
  -5   6  -9    5.32    1.24
   5  -6   9    9.26    1.70
   6   5  -9  132.71    6.26
  -6  -5   9  142.32    5.77
   5   5  -9    0.59    1.46
  -5  -5   9    0.27    1.39
   4   5  -9  113.18    4.10
  -4  -5   9  114.48    4.14
   3   5  -9    4.83    1.10
  -3  -5   9    5.54    1.01
  -3  -5   9    6.22    1.22
   2   5  -9  210.14    5.81
  -2  -5   9  210.62    5.83
  -2  -5   9  209.93    5.71
   1   5  -9    3.62    0.79
  -1  -5   9    1.46    0.79
  -1  -5   9    2.84    0.78
   0   5  -9  205.53    5.60
   0  -5   9  205.84    5.47
   0  -5   9  213.64    5.83
  -1   5  -9  106.68    3.30
   1  -5   9  103.74    3.07
   1  -5   9  107.65    3.64
  -2   5  -9   33.64    1.64
   2  -5   9   31.74    1.96
   2  -5   9   32.41    1.43
  -3   5  -9  151.56    4.41
   3  -5   9  145.77    4.73
  -4   5  -9   23.89    1.69
   4  -5   9   27.19    2.10
  -5   5  -9   38.17    2.21
   5  -5   9   41.15    2.65
  -6   5  -9   -1.44    1.12
   6  -5   9    1.43    1.56
   6   4  -9    7.38    1.87
  -6  -4   9    7.33    1.76
  -6  -4   9    7.60    1.34
   5   4  -9   98.54    3.87
  -5  -4   9  107.93    3.99
   4   4  -9    2.57    1.03
  -4  -4   9    0.12    0.96
   3   4  -9  196.12    5.54
  -3  -4   9  200.08    5.31
  -3  -4   9  197.17    5.61
   2   4  -9   43.03    1.86
  -2  -4   9   42.81    1.87
  -2  -4   9   44.58    1.87
   1   4  -9  148.67    4.23
  -1  -4   9  156.06    4.46
  -1  -4   9  157.84    4.24
   0   4  -9  158.70    4.40
   0  -4   9  168.70    4.73
   0  -4   9  161.48    4.26
  -1   4  -9   79.97    2.53
   1  -4   9   78.55    2.30
   1  -4   9   78.65    2.85
  -2   4  -9   97.09    3.03
   2  -4   9   98.46    3.39
   2  -4   9   98.37    2.56
   3  -4   9   81.91    3.14
  -4   4  -9  155.90    4.57
   4  -4   9  151.72    4.96
  -5   4  -9    2.51    0.98
   5  -4   9    1.44    1.22
  -6   4  -9   88.35    3.44
   6  -4   9   84.48    3.92
   7  -4   9   23.12    2.65
   7   3  -9   -1.76    1.71
  -7  -3   9    2.35    1.30
   6   3  -9   77.67    3.52
  -6  -3   9   86.63    3.16
   5   3  -9    0.60    1.08
   4   3  -9  101.32    3.43
  -4  -3   9  108.04    3.58
  -4  -3   9  101.36    2.98
   3   3  -9  118.27    3.56
  -3  -3   9  119.32    3.52
  -3  -3   9  120.62    3.67
   2   3  -9  300.05    7.49
  -2  -3   9  306.60    7.66
  -2  -3   9  293.24    7.52
   1   3  -9   26.16    1.21
  -1  -3   9   27.00    1.24
  -1  -3   9   26.32    1.49
   0   3  -9  217.49    5.46
   0  -3   9  213.53    5.23
   0  -3   9  211.88    5.81
  -1   3  -9   33.83    1.41
   1  -3   9   36.90    1.78
  -2   3  -9  294.82    7.29
   2  -3   9  285.74    7.70
  -3   3  -9  142.34    4.04
   3  -3   9  138.44    4.60
  -4   3  -9   21.69    1.47
   4  -3   9   23.05    1.90
  -5   3  -9   92.59    3.39
   5  -3   9  102.15    3.83
  -6   3  -9    9.06    1.41
   6  -3   9    9.31    1.65
   7  -3   9   94.13    4.52
  -8  -2   9   28.01    2.52
  -7  -2   9   90.26    3.47
   6   2  -9    0.51    1.27
  -6  -2   9    0.95    0.90
   5   2  -9  305.59    8.11
  -5  -2   9  309.04    7.85
   4   2  -9   91.59    3.03
  -4  -2   9   97.41    2.74
   3   2  -9  240.40    6.13
   3   2  -9  236.09    5.98
  -3  -2   9  244.45    6.18
   2   2  -9   89.72    2.62
   2   2  -9   91.28    2.83
  -2  -2   9   94.30    2.95
   1   2  -9  211.68    5.18
   1   2  -9  210.98    5.15
  -1  -2   9  197.76    5.14
  -1  -2   9  209.25    5.65
   0   2  -9   59.30    1.81
   0  -2   9   56.03    2.25
  -1   2  -9   77.04    2.27
   1  -2   9   75.31    2.76
  -2   2  -9  227.53    5.74
   2  -2   9  221.35    6.24
  -3   2  -9    1.29    0.64
   3  -2   9    2.90    0.95
  -4   2  -9  155.49    4.67
   4  -2   9  156.83    5.01
  -5   2  -9    1.98    0.99
   5  -2   9    3.62    1.40
  -6   2  -9   72.92    3.18
   6  -2   9   79.58    3.75
   7  -2   9   17.91    2.37
  -8  -1   9   70.91    3.26
  -7  -1   9    0.34    0.98
  -6  -1   9   98.46    3.25
   5   1  -9    4.52    0.99
  -5  -1   9    3.93    0.71
   4   1  -9   88.85    2.72
   4   1  -9   94.11    2.91
   4   1  -9   92.62    2.56
  -4  -1   9   96.77    2.71
  -4  -1   9   91.57    2.70
   3   1  -9   33.37    1.38
  -3  -1   9   34.77    1.22
  -3  -1   9   35.25    1.55
   2   1  -9  326.16    7.98
  -2  -1   9  329.88    8.22
  -2  -1   9  322.85    7.68
   1   1  -9   63.28    1.83
   1   1  -9   60.22    1.79
  -1  -1   9   61.15    1.79
  -1  -1   9   62.74    2.30
   0   1  -9   26.60    0.99
   0  -1   9   25.47    1.50
   0  -1   9   26.47    1.11
  -1   1  -9  346.47    8.15
   1  -1   9  337.24    8.82
   1  -1   9  336.76    8.23
  -2   1  -9   55.12    1.90
   2  -1   9   56.63    2.45
  -3   1  -9  118.81    3.51
   3  -1   9  120.68    4.07
  -4   1  -9   15.62    1.43
   4  -1   9   15.25    1.84
  -5   1  -9  190.18    5.59
   5  -1   9  191.46    5.94
  -6   1  -9    3.38    1.33
   6  -1   9    5.54    1.59
  -8   0   9    9.35    1.70
  -6   0   9   12.11    1.24
   5   0  -9  200.32    4.93
  -5   0   9  201.74    5.22
   4   0  -9   44.75    1.70
   4   0  -9   42.61    1.47
  -4   0   9   39.12    1.45
  -4   0   9   43.13    1.61
  -4   0   9   41.68    1.39
   3   0  -9  183.54    4.53
  -3   0   9  186.23    4.37
  -3   0   9  184.66    4.87
  -3   0   9  172.74    4.43
   2   0  -9  251.11    5.97
   2   0  -9  257.71    6.38
  -2   0   9  248.69    6.57
  -2   0   9  255.94    5.93
   1   0  -9  116.52    3.05
   1   0  -9  114.46    2.81
  -1   0   9  116.58    2.86
  -1   0   9  112.45    3.50
   0   0  -9  193.13    4.59
   0   0  -9  188.59    4.53
   0   0   9  187.24    5.32
   0   0   9  193.75    4.66
  -1   0  -9   58.00    1.76
   1   0   9   59.04    1.84
   1   0   9   57.07    2.35
  -2   0  -9  198.13    5.19
   2   0   9  207.28    5.81
  -3   0  -9   29.80    1.46
   3   0   9   25.81    1.85
  -4   0  -9  194.68    5.54
   4   0   9  207.63    6.03
  -5   0  -9   16.81    1.76
   5   0   9   20.11    2.09
  -6   0  -9  114.78    4.27
   6   0   9  121.69    4.45
  -7   1   9    0.86    0.96
  -6   1   9  156.87    4.34
   5  -1  -9    1.60    0.48
  -5   1   9    0.90    0.56
   4  -1  -9  196.45    5.07
  -4   1   9  200.70    4.77
  -4   1   9  202.17    4.86
   3  -1  -9   73.33    2.28
  -3   1   9   73.55    2.43
  -2   1   9  166.72    4.64
  -1   1   9  145.60    4.24
   0  -1  -9   23.42    0.92
   0  -1  -9   24.94    0.80
   0   1   9   22.47    1.45
  -1  -1  -9  155.44    3.79
  -1  -1  -9  145.86    3.85
  -1  -1  -9  153.12    3.98
   1   1   9  152.07    3.85
   1   1   9  150.35    4.57
  -2  -1  -9   13.13    0.97
  -2  -1  -9   15.38    0.85
   2   1   9   15.73    1.49
  -3  -1  -9  128.35    3.67
  -3  -1  -9  123.08    3.60
   3   1   9  125.70    4.20
  -4  -1  -9    7.50    1.10
   4   1   9    9.27    1.44
  -5  -1  -9  178.03    5.35
   5   1   9  179.79    5.62
  -6  -1  -9    5.09    1.51
   6   1   9   10.22    1.85
   6  -2  -9    3.04    0.62
   5  -2  -9  121.02    3.35
   4  -2  -9  196.15    5.08
   3  -2  -9   40.83    1.61
  -3   2   9   41.09    1.79
   2  -2  -9  341.31    8.39
  -2   2   9  336.06    8.55
   1  -2  -9   52.09    1.96
  -1   2   9   53.64    2.16
   0  -2  -9  153.32    3.68
   0   2   9  154.88    4.57
  -1  -2  -9    1.74    0.46
  -1  -2  -9    2.01    0.55
   1   2   9    1.67    0.78
  -2  -2  -9  212.99    5.52
  -2  -2  -9  218.38    5.52
   2   2   9  216.01    6.15
  -3  -2  -9    4.10    0.81
  -3  -2  -9    3.51    0.81
   3   2   9    4.59    1.17
  -4  -2  -9   94.91    3.32
   4   2   9   93.45    3.58
  -5  -2  -9    6.90    1.32
   5   2   9    6.02    1.52
  -6  -2  -9   82.12    3.71
   6  -3  -9   91.38    2.79
   5  -3  -9   26.96    1.32
   4  -3  -9  193.75    5.13
   3  -3  -9   73.46    2.42
   2  -3  -9  461.80   11.23
  -2   3   9  459.47   11.42
   1  -3  -9  109.36    3.32
  -1   3   9  110.07    3.52
   0  -3  -9   69.89    2.44
   0  -3  -9   66.67    1.83
   0   3   9   69.65    2.63
  -1  -3  -9  133.49    4.91
  -1  -3  -9  140.82    3.61
   1   3   9  133.50    4.74
  -2  -3  -9    0.35    0.62
  -2  -3  -9   -0.14    0.74
  -2  -3  -9   -0.17    0.69
   2   3   9    0.66    0.89
  -3  -3  -9  107.18    3.39
  -3  -3  -9  105.19    3.56
  -3  -3  -9  109.39    3.47
   3   3   9  107.66    3.79
  -4  -3  -9    9.25    1.29
  -4  -3  -9    7.02    1.23
   4   3   9   10.68    1.54
  -5  -3  -9  114.81    3.91
  -5  -3  -9  112.56    4.11
   5   3   9  110.43    4.21
   6  -4  -9   38.38    1.77
   5  -4  -9   84.02    2.75
   4  -4  -9   84.88    2.85
   3  -4  -9  118.23    3.79
   2  -4  -9   80.94    2.73
   1  -4  -9    3.86    0.75
   0  -4  -9  107.95    3.44
   0   4   9  109.67    3.68
  -1  -4  -9    4.57    0.85
  -1  -4  -9    6.03    0.74
   1   4   9    4.05    1.00
  -2  -4  -9  121.08    3.85
  -2  -4  -9  118.96    3.52
  -2  -4  -9  116.99    3.76
   2   4   9  112.90    3.96
  -3  -4  -9   14.89    1.44
  -3  -4  -9   13.13    1.54
  -3  -4  -9   16.42    1.90
   3   4   9   12.98    1.53
  -4  -4  -9   57.79    2.76
  -4  -4  -9   58.43    2.71
   4   4   9   59.06    3.06
   7  -5  -9   10.90    1.26
   6  -5  -9   98.68    3.25
   5  -5  -9   16.30    1.36
   4  -5  -9  104.44    3.35
   3  -5  -9  145.21    4.29
   2  -5  -9   77.31    2.75
   1  -5  -9  159.23    4.65
   0  -5  -9    2.53    0.86
  -1  -5  -9  140.22    4.30
  -2  -5  -9    0.83    1.35
  -2  -5  -9    2.77    1.01
  -3  -5  -9   50.07    2.50
  -4  -5  -9   17.59    2.11
   7  -6  -9   53.19    2.60
   6  -6  -9   27.67    1.91
   5  -6  -9   40.96    2.06
   4  -6  -9   81.28    2.98
   3  -6  -9   66.64    2.63
   2  -6  -9   71.87    2.74
   1  -6  -9   16.41    1.53
   0  -6  -9  121.31    3.97
  -1  -6  -9   -3.40    1.41
  -1  -6  -9    0.73    1.00
  -2  -6  -9   86.10    3.39
  -2  -6  -9   86.30    3.87
   4  -7  -9   31.33    2.09
   3  -7  -9   90.66    3.40
   2  -7  -9   19.32    1.80
   1  -7  -9   84.34    3.28
  -1  -7  -9  150.93    5.56
  -2  -8  10   34.43    3.07
  -1  -8  10  101.60    4.13
  -1  -8  10  112.08    4.27
   0  -8  10   34.06    2.71
   1  -8  10   42.23    2.84
   2  -8  10   69.60    3.87
   3   7 -10   15.08    1.98
  -3  -7  10   17.25    2.08
   2   7 -10   45.96    2.68
  -2  -7  10   44.89    2.77
   1   7 -10   11.58    1.42
  -1  -7  10   10.20    1.56
  -1  -7  10   12.12    1.65
   0   7 -10   74.00    3.01
   0  -7  10   74.00    3.14
  -1   7 -10   50.24    2.46
   1  -7  10   52.37    2.80
  -2   7 -10   31.62    2.07
   2  -7  10   34.94    2.40
  -3   7 -10  134.83    4.49
   3  -7  10  138.91    4.87
  -4   7 -10   15.68    2.50
   4   6 -10    4.36    1.66
  -4  -6  10   10.03    1.82
   3   6 -10  111.17    4.18
  -3  -6  10  120.78    4.21
   2   6 -10   33.54    2.09
  -2  -6  10   29.35    2.09
  -2  -6  10   30.72    2.14
   1   6 -10   77.11    2.97
  -1  -6  10   77.56    2.94
  -1  -6  10   77.70    3.09
   0   6 -10  110.34    3.69
   0  -6  10  117.40    3.65
   0  -6  10  117.93    4.00
  -1   6 -10   44.27    2.07
   1  -6  10   38.65    2.36
   1  -6  10   44.92    2.41
  -2   6 -10  116.77    3.79
   2  -6  10  119.38    4.20
  -3   6 -10   29.93    1.84
   3  -6  10   29.72    2.38
  -4   6 -10   94.66    3.41
   4  -6  10   88.81    3.87
  -5   6 -10    3.83    1.43
   5  -6  10    1.72    2.19
   5   5 -10    2.01    1.57
  -5  -5  10   -1.66    1.40
   4   5 -10   94.68    3.77
  -4  -5  10   97.61    3.74
   3   5 -10    5.20    1.24
  -3  -5  10    6.54    1.19
  -3  -5  10    6.42    1.10
   2   5 -10   87.94    3.18
  -2  -5  10   97.67    3.24
  -2  -5  10   95.14    3.26
   1   5 -10   29.11    1.67
  -1  -5  10   31.00    1.69
  -1  -5  10   32.89    1.95
   0   5 -10   90.72    4.07
   0  -5  10  108.17    3.73
   0  -5  10  106.02    3.14
  -1   5 -10   86.44    2.82
   1  -5  10   76.51    3.09
   1  -5  10   78.56    2.47
  -2   5 -10   36.18    1.76
   2  -5  10   34.39    2.15
  -3   5 -10  169.73    4.83
   3  -5  10  161.74    5.23
  -4   5 -10   -0.81    0.87
   4  -5  10    1.32    1.26
  -5   5 -10  130.30    4.34
   5  -5  10  131.55    4.95
   6   4 -10    3.49    1.82
  -6  -4  10    4.65    1.30
   5   4 -10   72.73    3.39
  -5  -4  10   77.26    3.40
   4   4 -10   25.03    2.03
  -4  -4  10   28.42    2.02
   3   4 -10   62.38    2.58
  -3  -4  10   65.28    2.58
  -3  -4  10   65.51    2.60
   2   4 -10  157.57    4.54
  -2  -4  10  160.83    4.66
  -2  -4  10  163.07    4.59
   1   4 -10   21.11    1.30
  -1  -4  10   22.37    1.28
  -1  -4  10   22.54    1.60
   0   4 -10  153.31    4.17
   0  -4  10  143.13    3.91
   0  -4  10  151.91    4.53
  -1   4 -10   15.36    1.16
   1  -4  10   15.66    0.86
   1  -4  10   14.43    1.50
  -2   4 -10  113.82    3.39
   2  -4  10  110.28    3.86
  -3   4 -10    9.23    1.05
   3  -4  10   10.08    1.38
  -4   4 -10  157.21    4.64
   4  -4  10  152.61    5.07
  -5   4 -10   -1.08    0.88
   5  -4  10    1.24    1.39
  -6   4 -10   83.85    3.52
   6  -4  10   91.69    4.16
   7   3 -10    1.25    1.87
  -7  -3  10    4.29    1.43
   6   3 -10   76.92    3.56
  -6  -3  10   79.58    3.08
   5   3 -10    1.25    1.16
   4   3 -10  124.83    3.99
  -4  -3  10  131.63    3.71
   3   3 -10  103.52    3.27
  -3  -3  10  104.41    3.37
  -3  -3  10  106.24    3.29
   2   3 -10  267.30    6.67
  -2  -3  10  256.09    6.68
  -2  -3  10  261.33    6.94
   1   3 -10   84.72    2.56
  -1  -3  10   81.54    2.50
  -1  -3  10   85.42    2.98
   0   3 -10  198.49    5.05
   0  -3  10  190.06    5.50
  -1   3 -10  163.84    4.33
   1  -3  10  159.04    4.85
  -2   3 -10   34.81    1.52
   2  -3  10   31.89    2.31
  -3   3 -10  139.20    3.98
   3  -3  10  130.57    4.49
  -4   3 -10    1.99    0.83
   4  -3  10   -1.52    1.04
  -5   3 -10   59.12    2.65
   5  -3  10   63.20    3.31
  -6   3 -10   21.17    2.10
   6  -3  10   23.29    2.44
  -8  -2  10   -0.89    1.57
  -7  -2  10   71.16    3.08
   6   2 -10    5.66    1.50
  -6  -2  10    5.49    1.05
   5   2 -10  166.01    4.92
  -5  -2  10  159.63    4.58
   4   2 -10  113.24    3.51
  -4  -2  10  114.95    3.31
   3   2 -10  193.24    5.22
  -3  -2  10  207.24    5.42
   2   2 -10  186.10    4.87
  -2  -2  10  194.87    5.31
   1   2 -10   78.87    2.30
  -1  -2  10   75.80    2.82
   0   2 -10  119.46    3.17
   0  -2  10  112.80    3.77
  -1   2 -10    1.24    0.45
   1  -2  10    0.51    0.85
  -2   2 -10  107.00    3.08
   2  -2  10  103.37    3.72
  -3   2 -10    5.56    0.82
   3  -2  10    4.44    1.19
  -4   2 -10  104.01    3.47
   4  -2  10  114.10    4.19
  -5   2 -10   23.81    1.88
   5  -2  10   22.18    2.53
  -6   2 -10  118.69    4.31
   6  -2  10  122.51    4.78
   7  -2  10   71.45    4.25
  -7  -1  10    0.69    1.10
  -6  -1  10  126.66    3.89
   5   1 -10   59.28    2.46
  -5  -1  10   55.26    2.06
   4   1 -10  165.24    4.49
   4   1 -10  159.44    4.22
  -4  -1  10  158.04    4.27
  -4  -1  10  168.89    4.41
   3   1 -10   62.38    2.03
  -3  -1  10   64.49    2.32
  -3  -1  10   61.54    1.86
   2   1 -10  137.57    3.79
   2   1 -10  138.60    3.58
  -2  -1  10  139.61    4.11
  -2  -1  10  139.48    3.53
   1   1 -10  147.88    3.72
   1   1 -10  144.97    3.69
  -1  -1  10  143.54    3.74
  -1  -1  10  148.19    4.37
   0   1 -10   48.08    1.51
   0  -1  10   47.56    1.63
   0  -1  10   47.85    2.13
  -1   1 -10  233.45    5.76
   1  -1  10  232.21    6.50
  -2   1 -10   34.31    1.44
   2  -1  10   35.47    2.07
  -3   1 -10  142.74    4.08
   3  -1  10  141.59    4.68
  -4   1 -10    7.86    1.66
   4  -1  10    7.84    1.37
  -5   1 -10   82.18    3.23
   5  -1  10   85.17    3.68
  -6   1 -10   36.10    2.64
   6  -1  10   42.46    3.11
  -6   0  10   20.93    1.47
   5   0 -10   79.08    2.29
  -5   0  10   77.67    2.46
   4   0 -10   95.48    2.77
  -4   0  10   99.42    2.94
  -4   0  10   94.06    2.65
   3   0 -10   94.61    2.50
  -3   0  10   87.50    2.91
  -3   0  10   90.45    2.33
  -3   0  10   89.64    2.37
   2   0 -10  236.63    5.51
   2   0 -10  233.68    5.93
  -2   0  10  234.46    5.49
  -2   0  10  226.14    6.21
   1   0 -10   41.74    1.47
   1   0 -10   41.14    1.20
  -1   0  10   41.89    1.27
  -1   0  10   42.92    1.98
   0   0 -10  181.00    4.41
   0   0  10  174.39    5.18
   0   0  10  180.60    4.42
  -1   0 -10    3.79    0.51
   1   0  10    3.21    0.63
   1   0  10    2.92    0.89
  -2   0 -10  159.81    4.24
   2   0  10  157.16    4.91
  -3   0 -10    1.16    0.68
   3   0  10    1.22    1.00
   4   0  10   61.52    3.02
  -5   0 -10   36.67    2.26
   5   0  10   34.59    2.54
  -6   0 -10  121.13    4.33
   6   0  10  111.92    4.61
   5  -1 -10   16.06    0.99
  -5   1  10   17.37    1.08
   4  -1 -10  281.62    7.15
  -4   1  10  294.07    7.33
   3  -1 -10  108.21    3.17
  -3   1  10  108.63    3.36
  -2   1  10  124.32    3.81
  -1   1  10  377.27    9.61
   0  -1 -10    6.02    0.67
   0  -1 -10    6.77    0.47
   0   1  10    6.11    0.99
  -1  -1 -10  303.40    7.01
  -1  -1 -10  294.03    7.12
  -1  -1 -10  294.87    7.25
   1   1  10  292.87    7.96
   1   1  10  295.99    7.12
  -2  -1 -10   29.90    1.39
  -2  -1 -10   27.92    1.11
  -3  -1 -10  149.93    4.23
   3   1  10  145.25    4.82
  -4  -1 -10   24.16    1.82
   4   1  10   22.90    2.19
  -5  -1 -10   78.20    3.19
   5   1  10   74.21    3.52
  -6  -1 -10   26.79    2.71
   6   1  10   25.97    2.53
   6  -2 -10    9.65    1.00
   5  -2 -10   31.10    1.43
   4  -2 -10  135.01    3.78
   3  -2 -10    7.83    0.88
  -3   2  10   10.09    1.16
   2  -2 -10   78.27    2.60
  -2   2  10   78.27    2.78
   1  -2 -10    0.20    0.52
  -1   2  10    1.34    0.77
   0   2  10  223.68    6.28
  -1  -2 -10    0.69    0.48
  -1  -2 -10   -0.21    0.53
  -2  -2 -10  250.77    6.25
  -2  -2 -10  247.89    6.30
   2   2  10  248.73    7.03
  -3  -2 -10    3.17    0.86
   3   2  10    3.31    1.22
  -4  -2 -10   95.65    3.35
   4   2  10   93.07    3.72
  -5  -2 -10   14.38    1.69
   5   2  10   13.43    1.91
   6  -3 -10   63.31    2.26
   5  -3 -10   69.24    2.38
   4  -3 -10   70.98    2.45
   3  -3 -10  101.63    3.18
   2  -3 -10   35.56    1.67
  -2   3  10   30.58    1.84
   1  -3 -10  448.60   11.92
  -1   3  10  456.11   12.74
   0  -3 -10   -0.61    0.61
   0   3  10   -0.89    0.78
  -1  -3 -10  181.28    5.30
  -1  -3 -10  191.19    4.76
   1   3  10  187.69    5.56
  -2  -3 -10   10.16    1.00
  -2  -3 -10    8.33    1.11
  -2  -3 -10   10.44    1.31
   2   3  10    9.59    1.36
  -3  -3 -10   78.13    3.07
  -3  -3 -10   82.20    2.88
   3   3  10   81.42    3.36
  -4  -3 -10   16.41    1.91
  -4  -3 -10   15.94    1.67
   4   3  10   16.19    1.87
  -5  -3 -10   36.06    2.52
   5   3  10   33.28    2.91
   6  -4 -10   19.23    1.48
   5  -4 -10   60.86    2.30
   4  -4 -10   96.99    3.15
   3  -4 -10   39.88    1.84
   2  -4 -10  130.59    3.94
   1  -4 -10   -0.19    0.66
   0  -4 -10  168.41    4.92
   0   4  10  168.87    5.18
  -1  -4 -10    0.28    0.76
   1   4  10    0.35    0.95
  -2  -4 -10  137.69    4.40
  -2  -4 -10  145.50    4.46
   2   4  10  139.88    4.66
  -3  -4 -10   47.48    2.44
   3   4  10   49.44    2.75
  -4  -4 -10   68.57    3.13
   4   4  10   70.95    3.50
   6  -5 -10   59.96    2.45
   5  -5 -10   35.85    1.90
   4  -5 -10    5.84    0.94
   3  -5 -10   94.37    3.21
   2  -5 -10    3.51    0.83
   1  -5 -10  128.62    4.05
   0  -5 -10    3.41    0.94
  -1  -5 -10  147.03    4.67
  -1  -5 -10  157.94    4.86
  -2  -5 -10   46.84    2.45
  -3  -5 -10   72.22    3.14
   6  -6 -10   46.18    2.43
   5  -6 -10   11.45    1.34
   4  -6 -10   89.91    3.29
   3  -6 -10   26.95    1.80
   2  -6 -10   61.81    2.66
   1  -6 -10   -0.75    0.94
   0  -6 -10  150.22    4.75
  -1  -6 -10   10.93    1.88
  -1  -6 -10   11.58    1.51
  -1  -8  11   54.59    4.77
   0  -8  11   54.24    3.43
   1  -8  11   26.67    2.93
  -3  -7  11   49.20    3.22
   2   7 -11   81.91    3.59
  -2  -7  11   89.71    3.69
   1   7 -11   33.23    2.35
  -1  -7  11   31.50    2.55
   0   7 -11   42.02    2.33
   0  -7  11   38.76    2.66
  -1   7 -11   92.50    3.45
   1  -7  11   93.65    3.91
  -2   7 -11   17.55    1.87
   2  -7  11   17.72    2.06
  -3   7 -11   84.21    3.38
   3  -7  11   82.14    5.32
   4   6 -11   26.84    2.89
  -4  -6  11   29.97    2.81
   3   6 -11   65.31    3.21
  -3  -6  11   64.61    3.17
   2   6 -11   41.18    2.43
  -2  -6  11   49.29    2.58
  -2  -6  11   51.10    2.63
   1   6 -11   27.89    1.94
  -1  -6  11   24.40    2.22
  -1  -6  11   26.93    1.95
   0   6 -11  129.32    4.07
   0  -6  11  126.28    4.41
  -1   6 -11   20.79    1.64
   1  -6  11   22.75    2.10
  -2   6 -11   96.41    3.31
   2  -6  11   90.41    3.75
  -3   6 -11   14.26    1.61
   3  -6  11   10.68    1.66
  -4   6 -11   89.45    3.47
   4  -6  11   96.02    4.18
   5   5 -11   11.93    1.97
  -5  -5  11   10.75    1.85
   4   5 -11  103.02    4.06
  -4  -5  11  110.98    4.04
   3   5 -11   73.98    3.08
  -3  -5  11   74.34    3.09
   2   5 -11  116.79    3.82
  -2  -5  11  119.13    3.87
  -2  -5  11  117.64    3.99
   1   5 -11   89.86    3.06
  -1  -5  11   89.19    2.95
  -1  -5  11   87.38    4.91
   0   5 -11   14.71    1.35
   0  -5  11   13.59    1.64
   0  -5  11   16.36    1.81
  -1   5 -11  156.00    4.53
   1  -5  11  156.60    5.03
  -2   5 -11    4.25    0.94
   2  -5  11    8.00    1.41
  -3   5 -11  103.97    3.49
   3  -5  11  107.91    4.12
  -4   5 -11   15.33    1.73
   4  -5  11   19.96    2.32
  -5   5 -11   98.42    3.69
   5  -5  11   94.50    4.52
   6   4 -11    4.60    1.98
  -6  -4  11    6.26    1.43
   5   4 -11   77.22    3.54
   4   4 -11   24.53    2.08
  -4  -4  11   25.62    2.09
  -3  -4  11   79.32    3.00
  -3  -4  11   77.72    2.99
   2   4 -11  108.24    3.40
  -2  -4  11  108.23    3.38
  -2  -4  11  101.68    3.60
   1   4 -11    1.00    0.68
  -1  -4  11   -0.62    0.93
  -1  -4  11    0.76    0.71
   0   4 -11  113.54    3.32
   0  -4  11  110.66    4.07
   0  -4  11  106.39    3.17
  -1   4 -11    0.17    0.66
   1  -4  11    0.70    0.97
  -2   4 -11  131.56    4.12
   2  -4  11  142.91    4.63
  -3   4 -11    0.73    0.82
   3  -4  11   -0.35    1.13
  -4   4 -11  200.44    5.73
   4  -4  11  201.50    6.38
  -5   4 -11    5.42    1.26
   5  -4  11    4.71    1.76
   7   3 -11   -2.26    1.92
  -7  -3  11    0.42    1.50
   6   3 -11  125.65    4.64
  -6  -3  11  125.20    4.15
   5   3 -11   23.28    2.13
   4   3 -11   79.39    3.01
   3   3 -11   88.49    2.95
  -3  -3  11   88.97    3.09
   2   3 -11   45.74    1.83
  -2  -3  11   44.35    2.22
   1   3 -11   81.11    2.49
  -1  -3  11   76.71    3.04
   0   3 -11   15.05    1.06
   0  -3  11   15.42    1.62
  -1   3 -11  459.30   11.05
  -2   3 -11    3.35    0.72
   2  -3  11    2.99    1.18
  -3   3 -11  159.88    4.58
   3  -3  11  158.35    5.26
  -4   3 -11   27.51    1.78
   4  -3  11   26.77    2.50
  -5   3 -11   85.87    3.27
   5  -3  11   81.47    3.98
  -6   3 -11   15.89    2.04
   6  -3  11   18.55    2.50
  -7  -2  11   64.37    3.40
   6   2 -11   36.54    2.78
  -6  -2  11   44.80    2.20
   5   2 -11   92.56    3.35
  -5  -2  11   88.45    3.00
   4   2 -11   18.12    1.51
  -4  -2  11   17.50    1.41
   3   2 -11   84.68    2.71
  -3  -2  11   87.64    2.98
   2   2 -11  144.74    3.84
  -2  -2  11  140.40    4.33
   1   2 -11   26.12    1.18
  -1  -2  11   27.52    1.77
   0   2 -11  255.99    6.24
   0  -2  11  247.36    6.99
  -1   2 -11   20.62    1.08
   1  -2  11   19.52    1.80
  -2   2 -11   64.13    2.17
   2  -2  11   62.33    2.92
  -3   2 -11    5.75    0.88
   3  -2  11    6.34    1.34
  -4   2 -11   90.63    3.17
   4  -2  11   90.76    3.92
  -5   2 -11   26.13    2.04
   5  -2  11   22.97    2.42
  -6   2 -11  104.38    4.01
   6  -2  11   96.62    4.63
  -6  -1  11  128.68    3.97
   5   1 -11   34.29    2.01
  -5  -1  11   33.70    1.61
   4   1 -11  126.78    3.56
   4   1 -11  111.40    3.33
  -4  -1  11  120.12    3.32
  -4  -1  11  120.50    3.58
   3   1 -11  179.56    4.69
  -3  -1  11  183.35    5.08
   2   1 -11   25.37    1.12
   2   1 -11   23.93    1.39
  -2  -1  11   26.86    1.69
  -2  -1  11   25.47    1.12
   1   1 -11  225.54    5.43
   1   1 -11  231.56    5.45
  -1  -1  11  208.67    5.48
  -1  -1  11  224.92    6.21
   0   1 -11   26.54    1.06
   0  -1  11   23.79    1.26
   0  -1  11   27.10    1.83
  -1   1 -11  156.77    4.08
   1  -1  11  158.58    4.96
  -2   1 -11   13.92    1.04
   2  -1  11   13.23    1.51
  -3   1 -11  110.06    3.36
   3  -1  11  107.71    4.07
  -4   1 -11   67.31    2.76
   4  -1  11   71.30    3.38
  -5   1 -11   90.48    3.45
   5  -1  11   82.48    3.91
  -6   1 -11   21.18    2.37
   6  -1  11   16.78    2.41
   5   0 -11   70.39    2.24
   4   0 -11   99.11    2.93
  -4   0  11  105.44    3.15
  -4   0  11   92.46    2.68
  -3   0  11   94.73    3.22
  -3   0  11  100.42    2.52
   2   0 -11  119.88    3.55
  -2   0  11  132.27    3.98
   1   0 -11   52.56    1.46
   1   0 -11   52.87    1.72
  -1   0  11   52.58    1.52
  -1   0  11   50.60    2.34
   0   0 -11  135.92    3.46
   0   0  11  137.31    3.56
   0   0  11  144.14    4.44
  -1   0 -11    0.09    0.44
   1   0  11   -1.36    1.01
  -2   0 -11  235.55    5.95
   2   0  11  232.80    6.78
  -3   0 -11   17.90    1.38
   3   0  11   14.79    1.69
  -4   0 -11   99.40    3.49
   4   0  11  101.96    4.00
  -5   0 -11   50.56    2.72
   5   0  11   49.13    3.10
  -6   0 -11   56.23    3.33
   6   0  11   60.25    3.81
   5  -1 -11  133.78    3.72
   4  -1 -11   88.38    2.77
  -4   1  11   88.70    2.96
   3  -1 -11   71.23    2.42
  -3   1  11   69.42    2.63
  -2   1  11   31.63    1.82
  -1   1  11   71.67    2.82
   0   1  11   21.26    1.73
  -1  -1 -11  192.13    4.85
   1   1  11  199.87    5.85
  -2  -1 -11   89.26    2.72
   2   1  11   89.05    3.50
  -3  -1 -11   47.18    2.08
   3   1  11   46.02    2.69
  -4  -1 -11   72.42    2.93
   4   1  11   76.35    3.43
  -5  -1 -11   28.34    2.40
   5   1  11   31.73    2.82
   6   1  11   37.29    4.08
   6  -2 -11   67.41    2.96
   5  -2 -11   46.79    1.88
   4  -2 -11  108.75    3.30
   3  -2 -11   29.84    1.53
  -3   2  11   27.60    1.70
   2  -2 -11  112.01    3.50
  -2   2  11  114.62    3.73
   0   2  11  342.08    9.09
  -1  -2 -11   28.40    1.53
   1   2  11   28.91    2.07
  -2  -2 -11  158.00    4.33
   2   2  11  163.30    5.17
  -3  -2 -11   14.37    1.59
   3   2  11   18.15    1.90
  -4  -2 -11   74.95    3.12
   4   2  11   74.35    3.57
  -5  -2 -11   37.93    2.59
   5   2  11   34.10    3.11
   6  -3 -11   25.07    1.53
   5  -3 -11   60.24    2.28
   4  -3 -11   19.64    1.38
   3  -3 -11  106.03    3.37
   2  -3 -11    8.58    1.03
  -2   3  11   10.74    1.30
   1  -3 -11  224.80    6.08
  -1   3  11  218.49    6.31
   0  -3 -11    3.54    0.87
   0   3  11    5.73    1.12
  -1  -3 -11  175.50    4.75
  -1  -3 -11  159.41    4.93
   1   3  11  160.44    5.17
  -2  -3 -11   12.98    1.42
   2   3  11   12.89    1.64
  -3  -3 -11   48.99    2.54
   3   3  11   52.75    2.96
  -4  -3 -11   75.11    3.25
   4   3  11   67.51    3.52
   6  -4 -11   60.67    2.41
   5  -4 -11   31.93    1.72
   4  -4 -11  182.60    5.18
   3  -4 -11    2.62    0.82
   2  -4 -11  131.51    4.08
   1  -4 -11   11.23    1.34
   0  -4 -11  156.50    4.73
   0   4  11  152.97    5.00
  -1  -4 -11    7.49    1.18
   1   4  11    8.65    1.36
  -2  -4 -11   89.43    3.44
   2   4  11   98.11    3.82
  -3  -4 -11   85.25    3.52
   3   4  11   88.50    3.85
   6  -5 -11   12.76    1.41
   5  -5 -11  136.42    4.24
   4  -5 -11    0.27    0.86
   3  -5 -11   95.08    3.34
   2  -5 -11    0.48    0.87
   1  -5 -11   94.92    3.42
   0  -5 -11   28.54    1.95
  -1  -5 -11  107.45    3.86
  -2  -5 -11   25.12    2.20
   5  -6 -11   18.80    1.92
   4  -6 -11   95.73    3.53
   3  -6 -11   -0.46    1.02
   2  -6 -11  112.30    3.93
   1  -6 -11    4.11    1.28
   2   7 -12   34.13    3.44
   1   7 -12   86.21    3.55
  -1  -7  12   84.31    3.83
   0   7 -12    4.97    1.32
   0  -7  12    6.96    1.75
  -1   7 -12   71.86    3.06
   1  -7  12   72.70    3.72
  -2   7 -12    1.49    1.19
   2  -7  12    4.78    2.32
   4   6 -12   44.51    3.37
  -4  -6  12   53.50    3.37
   3   6 -12   83.04    3.78
  -3  -6  12   92.95    3.69
   2   6 -12   90.08    3.54
  -2  -6  12   95.92    3.84
   1   6 -12   29.78    2.09
  -1  -6  12   32.69    2.55
   0   6 -12  114.53    3.77
   0  -6  12  110.46    4.24
  -1   6 -12    3.76    1.06
   1  -6  12    4.27    1.53
  -2   6 -12   73.23    2.95
   2  -6  12   74.02    3.60
  -3   6 -12    0.96    1.12
   3  -6  12    2.08    1.60
   5   5 -12   40.83    3.27
   4   5 -12  109.97    4.32
  -4  -5  12  115.21    4.33
   3   5 -12  123.73    4.25
  -3  -5  12  119.21    4.18
   2   5 -12   67.39    2.73
  -2  -5  12   67.58    2.76
  -2  -5  12   60.23    4.39
   1   5 -12   84.57    3.00
  -1  -5  12   81.07    3.44
   0   5 -12   -0.74    0.77
   0  -5  12   -2.36    1.15
  -1   5 -12  105.38    3.41
   1  -5  12  103.86    3.97
  -2   5 -12    7.66    1.11
   2  -5  12    7.39    1.54
  -3   5 -12   73.10    2.89
   3  -5  12   73.48    3.55
  -4   5 -12   43.13    2.39
   4  -5  12   40.53    3.16
   6   4 -12   37.87    3.48
  -6  -4  12   36.23    2.66
   5   4 -12   37.83    2.80
   4   4 -12   83.83    3.42
   3   4 -12   69.91    2.86
  -3  -4  12   68.22    2.91
   2   4 -12   98.68    3.22
  -2  -4  12   92.04    3.58
   1   4 -12    3.65    0.81
  -1  -4  12    1.55    1.97
   0   4 -12  167.36    4.57
   0  -4  12  159.43    5.17
   1  -4  12    8.95    1.48
  -2   4 -12  136.99    4.09
   2  -4  12  140.02    4.84
  -3   4 -12   13.67    1.35
   3  -4  12    9.17    1.70
  -4   4 -12   78.78    3.09
   4  -4  12   85.26    3.99
  -5   4 -12   12.97    1.67
   6   3 -12   81.12    3.81
  -6  -3  12   76.55    3.19
   5   3 -12  100.90    3.81
   4   3 -12   70.29    2.90
   3   3 -12   80.75    2.84
  -3  -3  12   83.62    3.08
   2   3 -12    1.04    0.72
  -2  -3  12    2.33    1.07
   1   3 -12  162.81    4.35
  -1  -3  12  155.19    5.01
   0   3 -12    3.72    0.69
   0  -3  12    4.95    1.24
  -1   3 -12  207.69    5.34
   1  -3  12  197.32    6.15
  -2   3 -12    7.05    0.95
   2  -3  12    6.34    1.44
  -3   3 -12   74.43    2.71
   3  -3  12   75.45    3.62
  -4   3 -12   32.84    2.03
   4  -3  12   39.32    3.03
  -5   3 -12   69.43    3.02
   5  -3  12   64.37    3.97
   5   2 -12   21.74    2.01
  -5  -2  12   17.35    1.55
   4   2 -12   57.91    2.40
  -4  -2  12   54.98    2.33
   3   2 -12   38.49    1.73
  -3  -2  12   39.50    2.08
   2   2 -12  237.93    6.02
  -2  -2  12  240.32    6.63
   1   2 -12    1.01    0.54
  -1  -2  12    0.46    0.93
   0   2 -12  350.73    8.49
  -1   2 -12   22.95    1.22
   1  -2  12   21.64    2.02
  -2   2 -12  159.19    4.41
   2  -2  12  165.43    5.42
   3  -2  12   50.02    3.03
  -4   2 -12   83.98    3.08
   4  -2  12   78.66    3.76
  -5   2 -12   74.94    3.25
   5  -2  12   82.41    4.13
   4   1 -12   21.80    1.62
   4   1 -12   18.21    1.25
  -4  -1  12   19.33    1.55
  -4  -1  12   18.56    1.25
   3   1 -12  102.04    2.92
  -3  -1  12  100.00    3.40
   2   1 -12    2.50    0.56
  -2  -1  12    3.66    1.02
   1   1 -12  178.79    4.40
  -1  -1  12  172.28    5.27
   0   1 -12   -0.47    0.43
  -1   1 -12  139.93    3.74
   1  -1  12  141.24    4.71
  -2   1 -12   57.25    2.02
   2  -1  12   51.25    2.79
  -3   1 -12   96.43    3.15
   3  -1  12   97.94    3.96
  -4   1 -12   56.44    2.53
   4  -1  12   51.69    3.15
  -5   1 -12   32.08    2.42
   5  -1  12   30.36    3.13
   5   0 -12   14.38    1.16
   4   0 -12  148.88    4.17
  -4   0  12  147.62    4.36
  -3   0  12   24.51    1.77
  -2   0  12  196.99    5.69
  -1   0  12    4.60    1.08
   0   0  12  292.23    8.03
  -1   0 -12   33.82    1.32
   1   0  12   34.78    2.18
  -2   0 -12  104.06    3.01
   2   0  12   98.46    3.85
  -3   0 -12   35.60    1.80
   3   0  12   33.30    2.53
  -4   0 -12   43.39    2.31
   4   0  12   47.29    2.95
  -5   0 -12   52.47    2.86
   5   0  12   45.32    3.47
   5  -1 -12  169.55    4.63
   4  -1 -12   27.58    1.51
  -4   1  12   26.23    1.79
   3  -1 -12  117.61    3.55
  -3   1  12  111.53    3.75
  -2   1  12    0.46    0.95
  -1   1  12  195.06    5.78
   0   1  12   -0.62    0.96
   1   1  12   79.25    3.26
  -2  -1 -12   91.52    3.27
   2   1  12   97.14    3.77
  -3  -1 -12   48.73    2.44
   3   1  12   48.30    2.85
   4   1  12  136.65    5.06
   5   1  12    0.49    2.10
   4  -2 -12  118.06    3.63
   3  -2 -12    1.73    0.78
  -3   2  12    3.09    1.05
   2  -2 -12   86.53    3.02
  -2   2  12   87.43    3.27
   1  -2 -12   11.81    1.28
  -1   2  12   10.06    1.40
   0  -2 -12  142.66    4.34
   0   2  12  139.65    4.65
   1   2  12   32.59    2.32
   2   2  12   56.55    3.08
   3   2  12  104.61    4.23
   4   2  12   57.62    3.51
   6  -3 -12    2.14    0.95
   5  -3 -12   97.14    3.23
   4  -3 -12    0.25    0.77
   3  -3 -12  136.21    4.17
   2  -3 -12    3.65    0.90
  -2   3  12    4.96    1.13
   1  -3 -12  117.84    3.83
  -1   3  12  117.65    4.10
   0  -3 -12   13.43    1.48
   0   3  12   10.21    1.42
  -1  -3 -12   77.05    3.05
   1   3  12   76.78    3.36
  -2  -3 -12   59.76    2.77
   2   3  12   63.35    3.19
  -3  -3 -12   48.83    2.70
   3   3  12   45.13    3.13
   6  -4 -12   91.16    3.19
   5  -4 -12    9.29    1.17
   4  -4 -12  250.63    6.81
   3  -4 -12    0.31    0.85
   2  -4 -12   95.07    3.36
   1  -4 -12   22.38    1.75
   0  -4 -12  115.32    3.94
   0   4  12  115.24    4.26
  -1  -4 -12   30.88    2.15
   1   4  12   35.06    2.54
  -2  -4 -12   18.87    2.04
   2   4  12   23.90    2.50
   6  -5 -12   -2.21    1.09
   5  -5 -12  116.98    3.92
   4  -5 -12    8.80    1.31
   3  -5 -12   59.94    2.66
   2  -5 -12   19.42    1.78
   1  -5 -12  115.58    4.02
   0  -5 -12   33.58    2.25
  -1  -7  13  104.33    4.57
   0   7 -13   12.37    1.91
   0  -7  13   11.96    2.07
   3   6 -13   10.62    1.97
   2   6 -13   73.84    3.23
   1   6 -13    2.45    1.24
  -1  -6  13    3.45    1.72
   0   6 -13  133.88    4.27
   0  -6  13  130.66    4.96
  -1   6 -13    2.04    1.13
   1  -6  13    0.46    1.53
  -2   6 -13  119.56    4.11
   2  -6  13  130.12    4.96
  -3   6 -13   36.79    2.40
   5   5 -13   46.48    3.54
   4   5 -13   49.00    3.15
   3   5 -13  116.59    4.21
   2   5 -13    9.81    1.39
  -2  -5  13    9.93    1.82
   1   5 -13  130.27    4.05
  -1  -5  13  123.89    4.66
   0   5 -13    9.36    1.24
   0  -5  13    8.82    1.66
  -1   5 -13  100.98    3.38
   1  -5  13  101.84    4.19
  -2   5 -13   13.58    1.62
   2  -5  13   14.51    2.09
  -3   5 -13   16.89    1.56
   3  -5  13   15.58    2.30
  -4   5 -13   49.63    2.63
   5   4 -13   27.67    2.88
   4   4 -13   83.14    3.40
   3   4 -13    2.17    1.19
  -3  -4  13    2.22    1.32
   2   4 -13  139.24    4.31
  -2  -4  13  135.47    4.70
   1   4 -13    0.15    1.47
  -1  -4  13    1.20    1.35
   0   4 -13  145.45    4.86
   0  -4  13  149.94    5.10
  -1   4 -13   22.08    1.55
   1  -4  13   19.26    2.05
  -2   4 -13   77.49    2.77
   2  -4  13   76.81    3.70
  -3   4 -13   75.73    2.85
   3  -4  13   69.24    3.83
  -4   4 -13   26.40    2.07
   4  -4  13   30.06    3.70
   4   3 -13    7.93    1.40
   3   3 -13   96.76    3.16
  -3  -3  13   91.00    3.51
   2   3 -13    7.22    0.99
  -2  -3  13    7.90    2.21
   1   3 -13  182.69    4.77
  -1  -3  13  168.94    5.51
   0   3 -13    8.61    0.92
   0  -3  13    3.27    1.33
  -1   3 -13  136.90    3.86
   1  -3  13  131.86    4.81
  -2   3 -13   25.53    1.59
   2  -3  13   29.09    2.58
  -3   3 -13   36.93    1.97
   3  -3  13   40.21    3.04
  -4   3 -13   54.39    2.55
   4  -3  13   44.55    3.55
  -5   3 -13   33.81    2.40
  -4  -2  13   95.58    3.40
   3   2 -13    9.45    1.06
  -3  -2  13    8.46    1.40
   2   2 -13  204.73    5.25
  -2  -2  13  202.19    6.06
   1   2 -13    9.40    0.98
  -1  -2  13    8.95    1.44
   0   2 -13  137.98    3.69
   0  -2  13  132.36    4.65
  -1   2 -13   28.63    1.38
   1  -2  13   29.85    2.28
  -2   2 -13   91.41    2.92
   2  -2  13   95.58    3.89
  -3   2 -13   47.86    2.14
   3  -2  13   47.55    3.05
  -4   2 -13   20.49    1.81
   4  -2  13   15.48    2.18
  -5   2 -13   81.95    3.44
   4   1 -13    0.91    0.77
  -4  -1  13    2.93    1.05
  -3  -1  13  147.41    4.60
  -2  -1  13   69.44    4.23
   1   1 -13  103.83    3.53
  -1  -1  13  122.12    4.04
   0   1 -13   28.48    1.21
   0  -1  13   26.61    2.14
  -1   1 -13  180.08    4.64
   1  -1  13  180.34    5.71
  -2   1 -13   54.32    2.06
   2  -1  13   55.43    3.03
   3  -1  13   38.78    2.87
  -4   1 -13   88.61    3.25
   4  -1  13   83.71    4.11
  -5   1 -13    2.59    1.50
   4   0 -13   74.15    2.65
  -4   0  13   77.40    2.95
  -3   0  13    1.01    1.21
  -2   0  13  164.73    5.12
  -1   0  13    3.43    1.18
   0   0  13  439.70   11.53
   1   0  13   19.01    2.04
   2   0  13   92.67    3.84
   3   0  13   55.88    3.20
   4   0  13   10.15    2.03
   5  -1 -13   76.42    3.06
   4  -1 -13   10.60    1.16
  -4   1  13    9.05    1.34
   3  -1 -13  138.54    4.17
  -3   1  13  134.99    4.41
   2  -1 -13   45.16    2.10
  -2   1  13   46.16    2.50
  -1   1  13  160.79    5.13
   0   1  13   37.44    2.37
   1   1  13   34.16    2.44
   2   1  13   53.69    3.05
   3   1  13    9.44    1.85
   4   1  13  104.61    5.06
   5  -2 -13   -0.34    0.84
   4  -2 -13  140.39    4.24
   3  -2 -13   13.68    1.43
  -3   2  13   19.99    1.92
   2  -2 -13  170.40    4.92
  -2   2  13  158.21    5.11
   1  -2 -13   47.72    2.26
  -1   2  13   46.56    2.64
   0  -2 -13   84.19    3.17
   0   2  13   83.16    3.50
   1   2  13   51.41    2.95
   2   2  13   30.09    2.76
   3   2  13   98.18    4.35
   5  -3 -13   98.26    3.37
   4  -3 -13    8.08    1.13
   3  -3 -13   88.41    3.20
   2  -3 -13   34.32    1.99
  -2   3  13   34.72    2.33
   1  -3 -13   30.70    1.92
  -1   3  13   27.84    2.30
   0  -3 -13   38.58    2.25
   0   3  13   38.82    2.60
  -1  -3 -13   59.94    2.87
   1   3  13   69.01    3.32
  -2  -3 -13   86.38    3.51
   2   3  13   81.95    3.89
   6  -4 -13  108.12    3.71
   5  -4 -13    4.15    1.13
   4  -4 -13   66.92    2.82
   3  -4 -13   29.31    1.97
   2  -4 -13   91.76    3.43
   1  -4 -13   36.75    2.31
  -1   4  13   39.51    2.67
   0  -4 -13   70.11    3.15
   0   4  13   75.10    3.54
   4  -5 -13   26.57    2.34
   3  -5 -13   34.60    2.59
  -1  -7  14  106.26    6.33
   3   6 -14   -3.33    1.77
   2   6 -14   71.17    3.38
   1   6 -14   10.12    1.54
  -1  -6  14    9.51    2.04
   0   6 -14  128.06    4.27
   0  -6  14  126.01    5.09
  -1   6 -14    3.45    1.27
   1  -6  14   -1.58    2.08
  -2   6 -14  126.11    4.28
   4   5 -14    8.56    2.06
   3   5 -14   35.44    2.66
   2   5 -14    9.40    1.48
  -2  -5  14    8.51    1.86
   1   5 -14  145.53    4.48
  -1  -5  14  142.38    5.27
   0   5 -14   21.57    1.81
   0  -5  14   25.77    2.78
  -1   5 -14  101.53    3.50
   1  -5  14  104.20    4.52
  -2   5 -14   62.30    2.70
   2  -5  14   54.00    3.73
  -3   5 -14   12.36    1.56
   3   4 -14    6.56    1.41
   2   4 -14  128.56    3.92
  -2  -4  14  114.74    4.49
   1   4 -14    3.79    1.01
  -1  -4  14   -1.44    1.43
   0   4 -14  142.18    4.12
   0  -4  14  135.90    5.07
  -1   4 -14   25.78    1.78
   1  -4  14   32.60    2.88
  -2   4 -14   55.93    2.43
   2  -4  14   54.41    3.53
  -3   4 -14   81.74    3.12
  -4   4 -14   22.25    2.23
  -3  -3  14   73.65    3.26
   2   3 -14    8.02    1.09
  -2  -3  14    8.78    1.54
   1   3 -14   97.22    2.98
  -1  -3  14   88.95    3.82
   0   3 -14   26.46    1.52
   0  -3  14   25.16    2.40
  -1   3 -14   16.23    1.39
   1  -3  14   19.93    2.25
  -2   3 -14   81.47    2.83
   2  -3  14   80.09    4.04
  -3   3 -14   30.12    1.97
   3  -3  14   33.35    3.41
  -4   3 -14   77.90    3.17
  -3  -2  14   -0.28    1.31
  -2  -2  14  110.60    4.06
  -1  -2  14   24.02    2.30
   0  -2  14  123.01    4.51
  -1   2 -14   79.85    2.53
   1  -2  14   75.33    3.61
  -2   2 -14   67.05    2.41
   2  -2  14   60.34    3.45
  -3   2 -14  159.07    4.57
   3  -2  14  150.13    5.68
  -4   2 -14    0.49    1.28
   4   1 -14    5.62    1.72
  -4  -1  14    3.62    2.09
  -3  -1  14   52.23    2.67
  -2  -1  14   60.86    3.01
  -1  -1  14   53.98    2.83
   0  -1  14   25.65    2.30
   1  -1  14    9.09    1.67
   2  -1  14   93.76    4.11
   3  -1  14   17.71    2.27
   4   0 -14  134.34    4.08
  -4   0  14  130.84    4.34
   3   0 -14   11.42    1.38
  -3   0  14    9.70    1.46
  -2   0  14   98.98    3.78
  -1   0  14   44.32    2.65
   0   0  14  111.36    4.25
   1   0  14   61.54    3.26
   2   0  14   36.14    2.85
   3   0  14  115.48    4.85
   5  -1 -14  133.46    4.11
   4  -1 -14   10.43    1.23
  -4   1  14   12.38    1.58
   3  -1 -14  103.30    3.50
  -3   1  14  103.31    3.85
   2  -1 -14   50.04    2.33
  -2   1  14   47.84    2.64
  -1   1  14   59.62    3.02
   0   1  14   44.13    2.76
   1   1  14   12.91    1.84
   2   1  14   92.99    4.11
   5  -2 -14    2.75    1.04
   4  -2 -14  118.89    3.87
   3  -2 -14   14.45    1.56
  -3   2  14   15.64    1.72
   2  -2 -14   78.39    3.07
  -2   2  14   83.85    3.47
   1  -2 -14   96.86    3.50
  -1   2  14   95.27    3.85
   0  -2 -14   53.31    2.59
   0   2  14   47.51    2.94
  -1  -2 -14   91.85    3.56
   1   2  14   90.21    4.00
  -2  -2 -14    0.27    1.25
   2   2  14    1.53    1.77
   5  -3 -14   96.57    3.46
   4  -3 -14   13.15    1.44
   3  -3 -14   46.31    2.46
   2  -3 -14   60.75    2.73
  -2   3  14   60.44    3.11
   1  -3 -14   23.81    1.94
  -1   3  14   20.01    2.42
   0  -3 -14   25.63    2.19
   0   3  14   35.04    2.66
   5  -4 -14    2.07    1.30
   4  -4 -14   62.09    2.88
   3  -4 -14   52.99    2.72
   2   6 -15   93.45    3.94
   1   6 -15    4.03    1.56
  -1  -6  15    3.48    2.37
   0   6 -15   97.29    3.72
  -1   6 -15   33.35    2.44
  -2  -5  15    7.54    2.11
   1   5 -15   69.70    2.93
  -1  -5  15   63.50    3.91
   0   5 -15   32.26    2.13
   0  -5  15   29.34    3.31
  -1   5 -15   31.95    2.13
  -2   5 -15   40.94    2.49
  -2  -4  15   91.01    4.04
  -1  -4  15   43.09    3.20
   0   4 -15   65.95    2.62
   0  -4  15   56.58    3.72
  -1   4 -15   68.49    2.61
   1  -4  15   63.01    3.92
  -2   4 -15   41.86    2.31
  -3   4 -15   85.07    3.26
  -3  -3  15   61.98    3.19
  -2  -3  15   19.98    2.19
  -1  -3  15   87.77    4.00
   0  -3  15   24.90    2.80
   1  -3  15   26.97    2.90
   2  -3  15   52.63    3.62
  -3  -2  15   46.58    2.87
  -2  -2  15   56.30    3.13
  -1  -2  15   41.25    2.87
   0  -2  15   24.89    2.35
   1  -2  15   73.88    3.81
   2  -2  15    5.48    1.96
   4   1 -15   40.81    2.26
  -4  -1  15   44.18    2.73
  -3  -1  15   60.24    3.13
  -2  -1  15   34.11    2.56
  -1  -1  15   47.45    3.02
   0  -1  15   80.04    3.65
   1  -1  15    0.47    1.51
   2  -1  15  137.02    5.37
   4   0 -15  105.63    3.61
  -4   0  15  107.80    3.95
   3   0 -15   26.48    1.86
  -3   0  15   23.26    2.35
  -2   0  15   74.98    3.46
  -1   0  15   65.10    3.28
   0   0  15    0.31    1.44
   1   0  15  100.53    4.36
   2   0  15    0.04    1.83
   4  -1 -15   15.69    1.76
  -4   1  15   15.08    1.84
   3  -1 -15   71.15    2.94
  -3   1  15   72.39    3.32
   2  -1 -15   62.60    2.76
  -2   1  15   61.49    3.16
  -1   1  15    6.50    1.64
   0   1  15  108.44    4.43
   1   1  15    8.60    1.82
   5  -2 -15   39.05    2.30
   4  -2 -15   49.68    2.54
   3  -2 -15  125.38    4.18
  -3   2  15  119.44    4.53
   2  -2 -15   29.37    2.14
  -2   2  15   32.11    2.56
   1  -2 -15   56.53    2.78
  -1   2  15   60.15    3.30
   0  -2 -15    1.90    1.26
   0   2  15    3.09    1.74
   5  -3 -15   58.78    2.88
   4  -3 -15   28.74    2.21
   3  -3 -15   73.89    3.22
   2  -3 -15   40.54    2.48
  -2   3  15   39.78    2.97
  -1  -5  16   47.59    3.82
  -2  -4  16   43.79    3.37
  -1  -4  16   67.87    3.90
   0  -4  16    5.49    2.08
  -2  -3  16   68.86    3.73
  -1  -3  16   51.03    3.44
   0  -3  16   34.44    3.34
  -3  -2  16   78.89    3.75
  -2  -2  16   26.25    2.85
  -1  -2  16   75.53    3.82
   0  -2  16   12.49    2.09
   1  -2  16   66.20    4.55
  -3  -1  16   43.24    3.03
  -2  -1  16   73.55    3.63
  -1  -1  16   32.95    2.98
   0  -1  16  128.75    5.02
   4   0 -16   30.72    2.18
  -4   0  16   27.53    2.69
   3   0 -16   72.43    3.06
  -3   0  16   72.01    3.54
  -2   0  16   10.50    1.89
  -1   0  16   87.56    4.00
   0   0  16    0.11    1.72
   4  -1 -16   46.75    2.56
  -4   1  16   43.56    3.00
   3  -1 -16   41.49    2.42
  -3   1  16   39.87    2.96
   2  -1 -16  143.92    4.80
  -2   1  16  148.85    5.28
   1  -1 -16    4.64    1.25
  -1   1  16    3.29    1.72
   4  -2 -16    7.23    1.49
   3  -2 -16  130.10    4.51
  -3   2  16  131.93    4.99
   2  -2 -16    4.27    1.55
  -2   2  16   11.24    2.30
  -2  -4  17    7.77    2.47
  -2  -3  17   65.62    3.98
  -1  -3  17    7.03    3.36
  -3  -2  17   51.62    3.50
  -2  -2  17    3.13    2.05
  -1  -2  17   58.25    3.92
  -3  -1  17   17.08    2.39
  -2  -1  17  119.61    4.87
  -1  -1  17   -1.30    2.85
   3   0 -17   90.87    3.65
  -3   0  17   87.89    4.21
  -2   0  17   13.82    2.30
   4  -1 -17   51.62    2.98
  -4   1  17   52.93    3.68
   0   0   0    0.00    0.00
;
_shelx_hkl_checksum              69412
loop_
_space_group_symop_operation_xyz
'x, y, z'
'-x, -y, -z'
loop_
_atom_site_label
_atom_site_type_symbol
_atom_site_fract_x
_atom_site_fract_y
_atom_site_fract_z
_atom_site_U_iso_or_equiv
_atom_site_adp_type
_atom_site_occupancy
_atom_site_site_symmetry_order
_atom_site_calc_flag
_atom_site_refinement_flags_posn
_atom_site_refinement_flags_adp
_atom_site_refinement_flags_occupancy
_atom_site_disorder_assembly
_atom_site_disorder_group
Eu1 Eu 0.22585(3) 0.73702(3) 0.95490(2) 0.00750(8) Uani 1 1 d . . . . .
B1 B 0.7370(7) 0.7396(6) 0.9585(4) 0.0065(9) Uani 1 1 d . . . . .
B2 B 0.6554(7) 0.8888(6) 1.1305(4) 0.0066(9) Uani 1 1 d . . . . .
B3 B 0.2846(9) 1.1610(9) 0.5200(4) 0.0204(11) Uani 1 1 d . . . . .
B4 B 0.4229(8) 0.8812(7) 0.7312(4) 0.0110(9) Uani 1 1 d . . . . .
B5 B -0.1153(8) 0.4734(7) 0.7307(4) 0.0113(10) Uani 1 1 d . . . . .
B6 B -0.0684(7) 0.6809(6) 1.1332(4) 0.0065(9) Uani 1 1 d . . . . .
B7 B 0.3175(7) 0.8057(7) 1.2001(4) 0.0093(9) Uani 1 1 d . . . . .
O1 O -0.1094(4) 0.7980(4) 0.8919(2) 0.0108(6) Uani 1 1 d . . . . .
O2 O 0.5326(4) 0.6462(4) 0.8988(2) 0.0105(6) Uani 1 1 d . . . . .
O3 O 0.3146(4) 0.9156(4) 0.8121(2) 0.0089(6) Uani 1 1 d . . . . .
O4 O 0.4522(4) 0.7747(4) 1.1233(2) 0.0095(6) Uani 1 1 d . . . . .
O5 O 0.1262(4) 0.8044(4) 1.1296(2) 0.0094(6) Uani 1 1 d . . . . .
O6 O 0.2909(4) 1.0892(4) 0.9735(2) 0.0081(6) Uani 1 1 d . . . . .
O7 O 0.1776(4) 0.3951(4) 0.9750(2) 0.0080(6) Uani 1 1 d . . . . .
O8 O 0.0516(4) 0.4837(4) 0.8099(2) 0.0079(6) Uani 1 1 d . . . . .
O9 O 0.1950(4) 1.2076(4) 0.8092(2) 0.0097(6) Uani 1 1 d . . . . .
O10 O 0.1873(6) 1.1738(6) 0.6058(3) 0.0324(10) Uani 1 1 d . . . . .
O11 O 0.4801(5) 1.2585(6) 0.5242(3) 0.0289(9) Uani 1 1 d . . . . .
O12 O -0.1002(5) 0.5824(5) 0.6503(3) 0.0255(8) Uani 1 1 d . . . . .
O13 O 0.3389(5) 0.7268(5) 0.6561(3) 0.0219(8) Uani 1 1 d . . . . .
O14 O 0.6031(5) 1.0074(4) 0.7291(2) 0.0127(6) Uani 1 1 d . . . . .
O15 O -0.2938(5) 0.3468(4) 0.7309(2) 0.0137(7) Uani 1 1 d . . . . .
O16 O 0.1830(5) 1.0419(5) 0.4285(3) 0.0244(8) Uani 1 1 d . . . . .
loop_
_atom_site_aniso_label
_atom_site_aniso_U_11
_atom_site_aniso_U_22
_atom_site_aniso_U_33
_atom_site_aniso_U_23
_atom_site_aniso_U_13
_atom_site_aniso_U_12
Eu1 0.00819(12) 0.00560(12) 0.00818(12) 0.00055(7) 0.00110(8) 0.00076(8)
B1 0.007(2) 0.004(2) 0.008(2) 0.0006(17) 0.0001(17) 0.0006(16)
B2 0.005(2) 0.005(2) 0.010(2) 0.0003(17) 0.0009(17) 0.0005(16)
B3 0.020(3) 0.027(3) 0.014(3) 0.002(2) 0.003(2) 0.005(2)
B4 0.012(2) 0.011(2) 0.010(2) 0.0007(18) 0.0034(19) 0.0018(18)
B5 0.011(2) 0.011(2) 0.011(2) 0.0009(18) -0.0005(19) 0.0010(18)
B6 0.004(2) 0.005(2) 0.010(2) -0.0002(16) 0.0017(17) 0.0004(16)
B7 0.008(2) 0.010(2) 0.009(2) 0.0008(18) 0.0030(18) 0.0017(18)
O1 0.0092(15) 0.0122(14) 0.0119(15) 0.0023(12) 0.0045(12) 0.0022(12)
O2 0.0060(14) 0.0114(14) 0.0124(15) -0.0014(12) -0.0005(12) 0.0009(11)
O3 0.0096(15) 0.0068(14) 0.0098(15) 0.0001(11) 0.0028(12) 0.0005(11)
O4 0.0062(14) 0.0089(14) 0.0117(15) -0.0025(11) 0.0024(11) -0.0008(11)
O5 0.0057(14) 0.0092(14) 0.0128(15) 0.0037(11) 0.0006(12) 0.0003(11)
O6 0.0104(15) 0.0055(13) 0.0092(15) 0.0010(11) 0.0037(11) 0.0024(11)
O7 0.0081(14) 0.0065(14) 0.0090(14) 0.0013(11) 0.0001(11) 0.0012(11)
O8 0.0068(14) 0.0066(14) 0.0094(14) 0.0028(11) 0.0005(11) -0.0004(11)
O9 0.0083(14) 0.0153(15) 0.0086(15) 0.0018(12) 0.0034(12) 0.0083(12)
O10 0.023(2) 0.054(3) 0.0133(18) -0.0064(17) 0.0074(15) -0.0036(18)
O11 0.0170(19) 0.046(2) 0.0164(18) -0.0021(16) 0.0030(14) -0.0053(16)
O12 0.0188(18) 0.031(2) 0.0232(19) 0.0181(16) -0.0031(14) -0.0052(15)
O13 0.0196(18) 0.0180(17) 0.0218(19) -0.0096(14) 0.0093(15) -0.0079(14)
O14 0.0100(15) 0.0133(15) 0.0127(15) -0.0037(12) 0.0068(12) -0.0027(12)
O15 0.0089(15) 0.0156(16) 0.0142(16) 0.0062(12) -0.0020(12) -0.0016(12)
O16 0.0174(18) 0.032(2) 0.0190(18) -0.0050(15) 0.0062(14) -0.0027(15)
loop_
_atom_type_symbol
_atom_type_description
_atom_type_scat_dispersion_real
_atom_type_scat_dispersion_imag
_atom_type_scat_source
Eu Eu -0.1578 3.6682 'International Tables Vol C Tables 4.2.6.8 and 6.1.1.4'
B B 0.0013 0.0007 'International Tables Vol C Tables 4.2.6.8 and 6.1.1.4'
O O 0.0106 0.0060 'International Tables Vol C Tables 4.2.6.8 and 6.1.1.4'
loop_
_geom_angle_atom_site_label_1
_geom_angle_atom_site_label_2
_geom_angle_atom_site_label_3
_geom_angle
_geom_angle_site_symmetry_1
_geom_angle_site_symmetry_3
O4 Eu1 O3 121.97(10) . .
O4 Eu1 O8 138.81(10) . .
O3 Eu1 O8 84.09(10) . .
O4 Eu1 O6 87.25(10) . .
O3 Eu1 O6 57.35(9) . .
O8 Eu1 O6 133.17(10) . .
O4 Eu1 O7 82.56(10) . .
O3 Eu1 O7 132.97(10) . .
O8 Eu1 O7 57.74(9) . .
O6 Eu1 O7 168.67(10) . .
O4 Eu1 O5 56.28(10) . .
O3 Eu1 O5 136.98(9) . .
O8 Eu1 O5 127.09(10) . .
O6 Eu1 O5 80.24(9) . .
O7 Eu1 O5 89.94(10) . .
O4 Eu1 O1 137.08(10) . .
O3 Eu1 O1 82.01(10) . .
O8 Eu1 O1 71.97(10) . .
O6 Eu1 O1 76.85(10) . .
O7 Eu1 O1 107.49(10) . .
O5 Eu1 O1 81.61(10) . .
O4 Eu1 O2 77.64(10) . .
O3 Eu1 O2 71.84(10) . .
O8 Eu1 O2 82.35(10) . .
O6 Eu1 O2 106.29(10) . .
O7 Eu1 O2 76.40(10) . .
O5 Eu1 O2 133.38(10) . .
O1 Eu1 O2 145.00(10) . .
O4 Eu1 B6 110.84(11) . 2_567
O3 Eu1 B6 109.37(11) . 2_567
O8 Eu1 B6 28.90(11) . 2_567
O6 Eu1 B6 161.89(11) . 2_567
O7 Eu1 B6 28.84(11) . 2_567
O5 Eu1 B6 110.01(11) . 2_567
O1 Eu1 B6 89.64(11) . 2_567
O2 Eu1 B6 77.96(11) . 2_567
O4 Eu1 B2 104.71(11) . 2_677
O3 Eu1 B2 28.95(11) . 2_677
O8 Eu1 B2 110.22(11) . 2_677
O6 Eu1 B2 28.46(11) . 2_677
O7 Eu1 B2 161.17(11) . 2_677
O5 Eu1 B2 108.60(11) . 2_677
O1 Eu1 B2 79.27(11) . 2_677
O2 Eu1 B2 88.07(11) . 2_677
B6 Eu1 B2 137.61(13) 2_567 2_677
O4 Eu1 O7 100.19(9) . 2_567
O3 Eu1 O7 131.17(9) . 2_567
O8 Eu1 O7 78.31(9) . 2_567
O6 Eu1 O7 106.27(9) . 2_567
O7 Eu1 O7 70.91(10) . 2_567
O5 Eu1 O7 50.36(9) . 2_567
O1 Eu1 O7 49.29(9) . 2_567
O2 Eu1 O7 147.21(9) . 2_567
B6 Eu1 O7 72.28(10) 2_567 2_567
B2 Eu1 O7 123.41(10) 2_677 2_567
O4 Eu1 B7 28.05(11) . .
O3 Eu1 B7 136.36(12) . .
O8 Eu1 B7 139.48(11) . .
O6 Eu1 B7 83.73(11) . .
O7 Eu1 B7 84.94(11) . .
O5 Eu1 B7 28.25(11) . .
O1 Eu1 B7 109.65(11) . .
O2 Eu1 B7 105.34(11) . .
B6 Eu1 B7 112.51(13) 2_567 .
B2 Eu1 B7 109.76(13) 2_677 .
O7 Eu1 B7 74.58(11) 2_567 .
O1 B1 O2 115.2(3) 1_655 .
O1 B1 O6 110.3(3) 1_655 2_677
O2 B1 O6 105.1(3) . 2_677
O1 B1 O7 104.2(3) 1_655 2_667
O2 B1 O7 110.8(3) . 2_667
O6 B1 O7 111.4(3) 2_677 2_667
O6 B2 O4 112.3(3) 2_677 .
O6 B2 O3 106.4(3) 2_677 2_677
O4 B2 O3 113.2(3) . 2_677
O6 B2 O9 108.4(3) 2_677 2_677
O4 B2 O9 109.2(3) . 2_677
O3 B2 O9 107.1(3) 2_677 2_677
O6 B2 Eu1 53.93(18) 2_677 2_677
O4 B2 Eu1 126.9(3) . 2_677
O3 B2 Eu1 52.63(18) 2_677 2_677
O9 B2 Eu1 123.9(3) 2_677 2_677
O6 B2 Eu1 73.9(2) 2_677 .
O4 B2 Eu1 40.18(18) . .
O3 B2 Eu1 115.1(2) 2_677 .
O9 B2 Eu1 135.2(3) 2_677 .
Eu1 B2 Eu1 94.40(12) 2_677 .
O11 B3 O10 122.0(5) . .
O11 B3 O16 119.7(5) . .
O10 B3 O16 118.3(5) . .
O13 B4 O14 123.9(4) . .
O13 B4 O3 116.8(4) . .
O14 B4 O3 119.2(4) . .
O12 B5 O15 119.3(4) . .
O12 B5 O8 120.6(4) . .
O15 B5 O8 120.0(4) . .
O5 B6 O7 110.4(3) . 2_567
O5 B6 O8 113.3(3) . 2_567
O7 B6 O8 107.4(3) 2_567 2_567
O5 B6 O9 110.2(3) . 2_577
O7 B6 O9 109.0(3) 2_567 2_577
O8 B6 O9 106.4(3) 2_567 2_577
O5 B6 Eu1 128.7(3) . 2_567
O7 B6 Eu1 54.17(18) 2_567 2_567
O8 B6 Eu1 53.23(18) 2_567 2_567
O9 B6 Eu1 121.1(3) 2_577 2_567
O5 B6 Eu1 44.94(18) . .
O7 B6 Eu1 67.8(2) 2_567 .
O8 B6 Eu1 113.7(2) 2_567 .
O9 B6 Eu1 138.9(3) 2_577 .
Eu1 B6 Eu1 91.17(12) 2_567 .
O4 B7 O5 102.5(3) . .
O4 B7 O15 111.9(4) . 2_567
O5 B7 O15 112.1(4) . 2_567
O4 B7 O14 111.3(3) . 2_677
O5 B7 O14 111.5(4) . 2_677
O15 B7 O14 107.6(4) 2_567 2_677
O4 B7 Eu1 50.40(19) . .
O5 B7 Eu1 52.18(19) . .
O15 B7 Eu1 124.9(3) 2_567 .
O14 B7 Eu1 127.6(3) 2_677 .
B1 O1 Eu1 115.0(2) 1_455 .
B1 O2 Eu1 120.4(2) . .
B4 O3 B2 120.2(3) . 2_677
B4 O3 Eu1 132.0(3) . .
B2 O3 Eu1 98.4(2) 2_677 .
B2 O4 B7 124.1(3) . .
B2 O4 Eu1 117.0(2) . .
B7 O4 Eu1 101.5(2) . .
B6 O5 B7 124.8(3) . .
B6 O5 Eu1 110.4(2) . .
B7 O5 Eu1 99.6(2) . .
B2 O6 B1 119.0(3) 2_677 2_677
B2 O6 Eu1 97.6(2) 2_677 .
B1 O6 Eu1 142.4(2) 2_677 .
B6 O7 B1 118.5(3) 2_567 2_667
B6 O7 Eu1 97.0(2) 2_567 .
B1 O7 Eu1 141.6(2) 2_667 .
B6 O7 Eu1 85.6(2) 2_567 2_567
B1 O7 Eu1 89.0(2) 2_667 2_567
Eu1 O7 Eu1 109.09(10) . 2_567
B5 O8 B6 120.4(3) . 2_567
B5 O8 Eu1 131.2(3) . .
B6 O8 Eu1 97.9(2) 2_567 .
B6 O9 B2 121.3(3) 2_577 2_677
B4 O14 B7 125.0(3) . 2_677
B5 O15 B7 124.3(4) . 2_567
loop_
_geom_bond_atom_site_label_1
_geom_bond_atom_site_label_2
_geom_bond_distance
_geom_bond_site_symmetry_2
Eu1 O4 2.402(3) .
Eu1 O3 2.407(3) .
Eu1 O8 2.419(3) .
Eu1 O6 2.443(3) .
Eu1 O7 2.444(3) .
Eu1 O5 2.447(3) .
Eu1 O1 2.448(3) .
Eu1 O2 2.489(3) .
Eu1 B6 2.992(5) 2_567
Eu1 B2 2.996(5) 2_677
Eu1 O7 3.015(3) 2_567
Eu1 B7 3.054(5) .
B1 O1 1.465(5) 1_655
B1 O2 1.471(5) .
B1 O6 1.483(5) 2_677
B1 O7 1.496(5) 2_667
B2 O6 1.440(5) 2_677
B2 O4 1.441(5) .
B2 O3 1.466(5) 2_677
B2 O9 1.506(5) 2_677
B2 Eu1 2.996(4) 2_677
B3 O11 1.362(7) .
B3 O10 1.362(7) .
B3 O16 1.367(7) .
B4 O13 1.347(6) .
B4 O14 1.373(6) .
B4 O3 1.382(6) .
B5 O12 1.353(6) .
B5 O15 1.360(6) .
B5 O8 1.387(6) .
B6 O5 1.445(5) .
B6 O7 1.454(5) 2_567
B6 O8 1.459(5) 2_567
B6 O9 1.503(5) 2_577
B6 Eu1 2.992(4) 2_567
B7 O4 1.466(6) .
B7 O5 1.466(5) .
B7 O15 1.469(6) 2_567
B7 O14 1.481(5) 2_677
O1 B1 1.465(5) 1_455
O3 B2 1.466(5) 2_677
O6 B2 1.440(5) 2_677
O6 B1 1.483(5) 2_677
O7 B6 1.454(5) 2_567
O7 B1 1.496(5) 2_667
O7 Eu1 3.015(3) 2_567
O8 B6 1.460(5) 2_567
O9 B6 1.503(5) 2_577
O9 B2 1.506(5) 2_677
O14 B7 1.481(5) 2_677
O15 B7 1.470(6) 2_567
