#------------------------------------------------------------------------------
#$Date: 2017-11-07 11:35:03 +0200 (Tue, 07 Nov 2017) $
#$Revision: 202894 $
#$URL: file:///home/coder/svn-repositories/cod/cif/1/54/78/1547890.cif $
#------------------------------------------------------------------------------
#
# This file is available in the Crystallography Open Database (COD),
# http://www.crystallography.net/
#
# All data on this site have been placed in the public domain by the
# contributors.
#
data_1547890
loop_
_publ_author_name
'Xuemiao Yin'
'Yaxing Wang'
'Xiaojing Bai'
'Yumin Wang'
'Lanhua Chen'
'Chengliang Xiao'
'Juan Diwu'
'Shiyu Du'
'Zhifang Chai'
'Thomas E. Albrecht-Schmitt'
'Shuao Wang'
_publ_section_title
;
 Rare earth separations by selective borate crystallization
;
_journal_name_full               'Nature Communications'
_journal_page_first              14438
_journal_paper_doi               10.1038/ncomms14438
_journal_volume                  8
_journal_year                    2017
_chemical_formula_moiety         'B7 O17 Sm'
_chemical_formula_sum            'B7 O17 Sm'
_chemical_formula_weight         498.02
_chemical_name_common            'Samarium borate'
_space_group_crystal_system      monoclinic
_space_group_IT_number           12
_space_group_name_Hall           '-C 2y'
_space_group_name_H-M_alt        'C 1 2/m 1'
_symmetry_space_group_name_Hall  '-C 2y'
_symmetry_space_group_name_H-M   'C 1 2/m 1'
_atom_sites_solution_hydrogens   .
_cell_angle_alpha                90
_cell_angle_beta                 127.524(5)
_cell_angle_gamma                90
_cell_formula_units_Z            4
_cell_length_a                   8.7754(17)
_cell_length_b                   27.454(5)
_cell_length_c                   6.8312(12)
_cell_measurement_reflns_used    1309
_cell_measurement_temperature    298(2)
_cell_measurement_theta_max      28.82
_cell_measurement_theta_min      3.02
_cell_volume                     1305.3(4)
_computing_cell_refinement       'Bruker SMART'
_computing_data_collection       'Bruker SMART'
_computing_data_reduction        'Bruker SAINT'
_computing_molecular_graphics    'SHELXL-2014/7 (Sheldrick, 2014)'
_computing_publication_material  'SHELXL-2014/7 (Sheldrick, 2014)'
_computing_structure_refinement  'SHELXL-2014/7 (Sheldrick, 2014)'
_computing_structure_solution    'SHELXL-2014/7 (Sheldrick, 2014)'
_diffrn_ambient_temperature      298(2)
_diffrn_measured_fraction_theta_full 0.996
_diffrn_measured_fraction_theta_max 0.996
_diffrn_measurement_device_type  'BRUKER aperx II'
_diffrn_radiation_type           MoK\a
_diffrn_radiation_wavelength     0.71073
_diffrn_reflns_av_R_equivalents  0.0358
_diffrn_reflns_av_unetI/netI     0.0449
_diffrn_reflns_Laue_measured_fraction_full 0.996
_diffrn_reflns_Laue_measured_fraction_max 0.996
_diffrn_reflns_limit_h_max       9
_diffrn_reflns_limit_h_min       -10
_diffrn_reflns_limit_k_max       32
_diffrn_reflns_limit_k_min       -33
_diffrn_reflns_limit_l_max       8
_diffrn_reflns_limit_l_min       -4
_diffrn_reflns_number            3697
_diffrn_reflns_point_group_measured_fraction_full 0.996
_diffrn_reflns_point_group_measured_fraction_max 0.996
_diffrn_reflns_theta_full        25.242
_diffrn_reflns_theta_max         25.997
_diffrn_reflns_theta_min         3.019
_diffrn_source                   'fine-focus sealed tube'
_exptl_absorpt_coefficient_mu    4.596
_exptl_absorpt_correction_T_max  0.959
_exptl_absorpt_correction_T_min  0.876
_exptl_absorpt_correction_type   multi-scan
_exptl_absorpt_process_details   'SADABS, Bruker'
_exptl_crystal_colour            colorless
_exptl_crystal_density_diffrn    2.534
_exptl_crystal_description       tablet
_exptl_crystal_F_000             932
_exptl_crystal_size_max          0.068
_exptl_crystal_size_mid          0.024
_exptl_crystal_size_min          0.009
_refine_diff_density_max         1.988
_refine_diff_density_min         -0.951
_refine_diff_density_rms         0.196
_refine_ls_extinction_coef       .
_refine_ls_extinction_method     none
_refine_ls_goodness_of_fit_ref   1.089
_refine_ls_hydrogen_treatment    undef
_refine_ls_matrix_type           full
_refine_ls_number_parameters     120
_refine_ls_number_reflns         1309
_refine_ls_number_restraints     24
_refine_ls_restrained_S_all      1.080
_refine_ls_R_factor_all          0.0403
_refine_ls_R_factor_gt           0.0318
_refine_ls_shift/su_max          0.000
_refine_ls_shift/su_mean         0.000
_refine_ls_structure_factor_coef Fsqd
_refine_ls_weighting_details
'w=1/[\s^2^(Fo^2^)+(0.0302P)^2^+14.0502P] where P=(Fo^2^+2Fc^2^)/3'
_refine_ls_weighting_scheme      calc
_refine_ls_wR_factor_gt          0.0700
_refine_ls_wR_factor_ref         0.0726
_reflns_Friedel_coverage         0.000
_reflns_Friedel_fraction_full    .
_reflns_Friedel_fraction_max     .
_reflns_number_gt                1176
_reflns_number_total             1309
_reflns_threshold_expression     'I > 2\s(I)'
_cod_data_source_file            ncomms14438-3.cif
_cod_data_source_block           SmBOCl-3
_cod_depositor_comments
;
The following automatic conversions were performed:

'_exptl_absorpt_correction_type' value 'Multi-scan' changed to
'multi-scan' according to the built-in table from CIF Core dictionary
named 'cif_core.dic' version 2.4.1 from 2010-06-29.

Automatic conversion script
Id: cif_fix_values 5376 2017-05-30 11:51:03Z andrius 
;
_cod_database_code               1547890
_shelx_space_group_comment
;
The symmetry employed for this shelxl refinement is uniquely defined
by the following loop, which should always be used as a source of
symmetry information in preference to the above space-group names.
They are only intended as comments.
;
_shelxl_version_number           2014-3
_shelx_res_file
;
TITL save in C2/m
CELL 0.71073   8.77538  27.45420   6.83120  90.0000 127.5244  90.0000
ZERR   4.00   0.00170   0.00472   0.00120   0.0000   0.0049   0.0000
LATT  7
SYMM -X, Y, -Z
SFAC Sm B O
UNIT 4 28 68
TEMP 25

L.S. 70
BOND
acta
isor 0.0005 0.0001 O9 O6 O4 O1w
isor 0.001 O4 B4
omit -0 52
FMAP 2
PLAN 20

WGHT    0.030200   14.050200
FVAR       0.10672
SM1   1   -1.000000    0.230524   -0.500000    10.50000    0.00199    0.00636 =
         0.00326    0.00000    0.00159    0.00000
B1    2    0.231258    0.500000    0.780592    10.50000    0.01643    0.01367 =
         0.01143    0.00000    0.01094    0.00000
B2    2   -1.000000    0.342176   -0.500000    10.50000    0.00925    0.00455 =
         0.01040    0.00000    0.00881    0.00000
B3    2   -0.795131    0.127437   -0.557812    11.00000    0.00432    0.00815 =
         0.00878    0.00292    0.00373    0.00314
B4    2   -0.599993    0.190133   -0.236664    11.00000    0.00434    0.00447 =
         0.00393    0.00023    0.00271   -0.00010
B5    2   -0.500000    0.269060    0.000000    10.50000    0.00224    0.00789 =
         0.00476    0.00000    0.00007    0.00000
O1    3    0.173296    0.457705    0.824962    11.00000    0.03203    0.01143 =
         0.03337   -0.00377    0.02941   -0.00400
O2    3   -0.931576    0.091867   -0.638058    11.00000    0.00957    0.00807 =
         0.01940   -0.00441    0.00942   -0.00544
O3    3    0.339230    0.500000    0.699175    10.50000    0.01652    0.01724 =
         0.02324    0.00000    0.01761    0.00000
O4    3   -0.500000    0.163555    0.000000    10.50000    0.00591    0.00599 =
         0.00571    0.00000    0.00358    0.00000
O5    3   -0.919000    0.202270   -0.098720    11.00000    0.00483    0.01154 =
         0.00522   -0.00037    0.00422    0.00150
O6    3   -0.785447    0.164551   -0.415239    11.00000    0.00525    0.00563 =
         0.00528   -0.00045    0.00339    0.00017
O7    3   -0.830393    0.374425   -0.387734    11.00000    0.00783    0.01362 =
         0.00715   -0.00512    0.00525   -0.00468
O8    3   -0.650319    0.238366   -0.211544    11.00000    0.00394    0.01053 =
         0.00557   -0.00074    0.00286   -0.00009
O9    3   -0.982409    0.308817   -0.320076    11.00000    0.00519    0.00575 =
         0.00557   -0.00007    0.00344    0.00021
O1WA  3   -0.500000    0.074752    0.000000    10.15000    0.01955
O1WB  3   -0.555949    0.075223   -0.072562    10.35000    0.00798
HKLF 4

REM  save in C2/m
REM R1 =  0.0318 for    1176 Fo > 4sig(Fo)  and  0.0403 for all    1309 data
REM    120 parameters refined using     24 restraints

END

WGHT      0.0301     14.5143

REM Highest difference peak  1.988,  deepest hole -0.951,  1-sigma level  0.196
Q1    1  -1.0000  0.2664 -0.5000  10.50000  0.05    1.99
Q2    1  -1.0000  0.1940 -0.5000  10.50000  0.05    1.97
Q3    1  -0.5000  0.1357  0.0000  10.50000  0.05    1.13
Q4    1  -0.8202  0.1848  0.0394  11.00000  0.05    0.82
Q5    1  -1.0127  0.3252 -0.4178  11.00000  0.05    0.78
Q6    1   0.1891  0.4337  0.7400  11.00000  0.05    0.74
Q7    1  -0.5596  0.0561  0.0421  11.00000  0.05    0.73
Q8    1   0.3679  0.5000  0.8402  10.50000  0.05    0.70
Q9    1  -0.9154  0.0565 -0.6674  11.00000  0.05    0.70
Q10   1  -0.8052  0.1874 -0.4472  11.00000  0.05    0.69
Q11   1  -1.0000  0.1582 -0.5000  10.50000  0.05    0.67
Q12   1  -0.7636  0.2364  0.0863  11.00000  0.05    0.65
Q13   1   0.0119  0.5000  0.6011  10.50000  0.05    0.65
Q14   1  -1.0193  0.0996 -0.6028  11.00000  0.05    0.63
Q15   1  -0.8011  0.3025 -0.1821  11.00000  0.05    0.61
Q16   1  -0.9783  0.2883 -0.3280  11.00000  0.05    0.60
Q17   1   0.4699  0.5000  0.6600  10.50000  0.05    0.59
Q18   1  -0.7457  0.2445 -0.2037  11.00000  0.05    0.58
Q19   1   0.1298  0.5000  0.7983  10.50000  0.05    0.57
Q20   1  -0.9547  0.3881 -0.2590  11.00000  0.05    0.57
;
_shelx_res_checksum              27635
_shelx_hkl_file
;
   2   2  -2  628.68   14.45
  -2  -2   2  630.82   14.63
   3   3  -3   28.82    2.81
  -3  -3   3   28.48    2.99
  -4  -4   4  114.51    5.80
  -5  -5   5    8.75    3.04
  -6  -6   6   47.26    5.92
  -7  -7   7   41.78    6.90
  -8  -8   8    1.25    7.73
  -7  -7   8   55.30    9.10
  -6  -6   7  128.18   10.45
  -5  -5   6   83.73    7.84
  -4  -4   5  160.99    7.75
  -3  -3   4    8.18    2.55
  -2  -2   3  752.73   18.27
   2   2  -3  751.46   18.01
  -1  -1   2    1.84    1.20
   1   1  -2    3.75    1.25
   0   0   1  832.45   18.73
   0   0  -1  879.28   18.78
   1   1   0    3.49    0.61
  -1  -1   0    3.15    0.59
   2   2  -1  229.93    5.80
  -2  -2   1  234.67    5.82
  -2  -2   1  237.86    5.90
   3   3  -2   13.71    1.68
   4   4  -3  328.01    9.09
  -5  -5   4   81.41    5.14
  -6  -6   5   58.98    5.83
  -7  -7   6   71.60   11.62
  -8  -8   7   32.54    7.09
  -9  -9   8  194.36   15.67
  -6  -6   8   91.46   10.70
  -5  -5   7   55.73    7.93
  -4  -4   6   79.89    7.58
  -3  -3   5   54.89    5.84
  -2  -2   4  135.56    6.61
  -1  -1   3    1.31    1.87
   1   1  -3   -0.53    1.84
   0   0   2  377.80   10.18
   0   0  -2  372.06   10.09
   1   1   1  353.88    8.94
  -1  -1  -1  338.22    8.92
   2   2   0  970.37   21.02
  -2  -2   0  954.38   21.05
  -2  -2   0  936.69   20.33
   3   3  -1   74.66    3.06
  -3  -3   1   69.42    3.01
  -3  -3   1   72.91    2.89
   4   4  -2  700.82   16.30
  -4  -4   2  690.94   16.49
  -4  -4   2  700.11   16.52
  -5  -5   3  117.29    5.20
  -6  -6   4  229.20    8.39
  -7  -7   5   61.08    6.33
  -8  -8   6   43.38    6.27
  -9  -9   7  128.79   12.27
 -10 -10   8   24.44   12.01
  -5  -5   8   89.62   10.70
  -4  -4   7   81.29   10.25
  -3  -3   6    7.66    5.00
  -2  -2   5  308.44   11.59
  -1  -1   4   13.08    3.25
   0   0   3  196.49    7.54
   1   1   2   13.14    2.44
  -1  -1  -2   21.10    2.81
   2   2   1  341.18   10.40
  -2  -2  -1  359.35    9.76
  -3  -3   0    1.20    1.46
  -3  -3   0    1.85    0.95
   4   4  -1  709.12   16.95
  -4  -4   1  713.49   16.75
  -4  -4   1  708.20   17.00
  -5  -5   2  105.82    4.60
  -6  -6   3  232.60    8.05
  -7  -7   4  200.55    8.45
  -8  -8   5   74.79    7.52
  -9  -9   6  136.44   10.53
 -10 -10   7   -0.08    7.63
  -4  -4   8  108.53   11.55
  -3  -3   7   27.18    7.21
  -2  -2   6  414.92   15.55
  -1  -1   5   27.63    4.91
   0   0   4  201.73    8.88
   1   1   3   -0.75    2.56
   2   2   2  170.56    6.80
   3   3   1   37.70    3.46
  -3  -3  -1   37.85    2.03
  -3  -3  -1   29.64    4.43
   4   4   0  141.70    5.62
  -4  -4   0  135.92    4.60
   5   5  -1  200.33    7.10
  -5  -5   1  194.24    6.73
  -5  -5   1  196.13    6.43
  -6  -6   2   42.22    3.80
  -7  -7   3  209.40    8.29
  -8  -8   4   80.96    6.75
  -9  -9   5  131.54    9.66
 -10 -10   6   62.76    8.20
 -11 -11   7   89.26   13.62
  -3  -3   8   40.36    9.46
  -2  -2   7  112.17   12.11
  -1  -1   6    3.58    5.46
   0   0   5  105.21    8.38
   1   1   4   -3.68    3.56
   2   2   3   89.51    6.48
   3   3   2   58.51    4.96
   4   4   1  116.01    5.80
  -4  -4  -1  103.58    3.78
   5   5   0   77.38    5.06
  -5  -5   0   78.02    3.89
   6   6  -1   43.94    4.63
  -6  -6   1   39.87    3.72
  -6  -6   1   48.93    4.12
   7   7  -2  337.26   11.44
  -7  -7   2  356.77   10.88
  -7  -7   2  330.55   11.04
  -8  -8   3  316.12   11.55
  -8  -8   3  332.49   11.51
  -9  -9   4  253.49   11.08
  -9  -9   4  256.32   11.53
 -10 -10   5   47.33    7.05
 -10 -10   5   37.97    6.71
 -11 -11   6   94.65   10.54
  -1  -1   7   -2.41    7.42
   0   0   6  136.24   10.87
   1   1   5    5.12    5.26
   2   2   4  380.65   16.29
   3   3   3   31.76    4.76
   4   4   2  115.00    7.15
   5   5   1  100.99    6.62
  -5  -5  -1  106.62    4.35
   6   6   0  102.66    6.71
  -6  -6   0   97.62    4.77
   7   7  -1  135.88    7.60
  -7  -7   1  150.01    6.50
  -7  -7   1  141.97    7.23
  -8  -8   2   74.52    6.11
  -8  -8   2   72.51    7.00
  -9  -9   3  121.62    8.70
  -9  -9   3  131.01    8.20
 -10 -10   4   14.17    5.61
 -10 -10   4   15.58    6.01
 -11 -11   5   74.88    8.73
 -11 -11   5   69.16    9.13
   0   0   7  100.32   11.58
   1   1   6    3.00    7.27
   2   2   5  218.25   12.94
   3   3   4   13.11    5.45
   4   4   3   70.24    8.12
   5   5   2   64.44    7.14
   6   6   1  104.51    9.24
  -6  -6  -1  104.78    5.74
   7   7   0   86.36    7.89
  -7  -7   0   91.76    5.51
   8   8  -1    8.63    4.51
  -8  -8   1    1.97    4.00
  -8  -8   1    4.38    3.65
  -9  -9   2  217.23   10.83
 -10 -10   3   28.72    6.49
 -10 -10   3   20.82    5.99
 -11 -11   4  107.72   10.60
 -11 -11   4   96.32   11.41
   2   2   6  106.33   11.63
   3   3   5   11.31    7.30
   4   4   4  109.21   10.97
   5   5   3   24.03    6.07
   6   6   2   79.66    8.95
   7   7   1  139.15    9.91
   8   8   0   40.34    6.82
  -8  -8   0   33.01    5.69
   9   9  -1  107.48   10.33
  -9  -9   1  131.88    9.68
 -10 -10   2   28.31    6.62
   5   5   4   57.94    9.11
   6   6   3  125.92   12.60
   7   7   2   98.10   11.20
   8   8   1   40.23    7.61
   9   9   0  110.69   11.34
  -9  -9   0  105.44   10.84
  -9  -7   0   43.04    6.73
   9   7   0   49.00    7.47
   8   6   1   98.07   11.33
   7   5   2   30.04    7.25
   6   4   3  126.82   12.13
   5   3   4    0.42    7.20
 -10  -8   2   30.62    6.51
  -9  -7   1   27.34    5.89
   9   7  -1   36.27    6.37
  -8  -6   0   64.61    7.77
   8   6   0   58.76    7.00
   7   5   1  122.85    9.30
   6   4   2   73.59    9.20
   5   3   3   24.01    5.92
   4   2   4  140.20   11.64
   3   1   5    2.37    6.91
   2   0   6  145.97   14.38
 -11  -9   4   85.78    8.75
 -11  -9   4   83.96    9.14
 -10  -8   3   39.98    6.75
 -10  -8   3   21.52    5.96
  -9  -7   2   98.52    8.05
  -8  -6   1   60.46    5.93
  -8  -6   1   69.78    6.90
   8   6  -1   69.53    7.51
  -7  -5   0   44.84    4.69
   7   5   0   47.24    5.52
  -6  -4  -1   91.74    4.92
   6   4   1   93.00    7.45
   5   3   2   22.95    4.84
   4   2   3   80.86    8.24
   3   1   4   -6.16    5.03
   2   0   5  333.05   15.33
   1  -1   6    8.90    7.46
   0  -2   7  118.21   14.15
 -11  -9   5   39.93    8.14
 -11  -9   5   37.95    7.63
 -10  -8   4   37.28    6.22
 -10  -8   4   33.18    6.16
  -9  -7   3   74.31    7.76
  -9  -7   3   86.20    7.36
  -8  -6   2  162.57    7.86
  -8  -6   2  159.74    8.06
  -7  -5   1   89.73    5.32
  -7  -5   1   84.01    5.69
   7   5  -1   82.40    6.03
  -6  -4   0  198.16    6.83
   6   4   0  205.95    8.44
  -5  -3  -1   67.98    3.83
   5   3   1   64.14    5.68
   4   2   2  437.30   13.84
   3   1   3   18.05    4.35
   2   0   4  285.19   12.34
   1  -1   5    7.29    5.33
   0  -2   6  121.90   11.42
  -1  -3   7   16.76    7.54
 -11  -9   6  117.21   11.08
 -11  -9   6  102.47   10.66
 -10  -8   5   81.82    9.64
 -10  -8   5   81.50    8.69
  -9  -7   4  235.07   10.35
  -9  -7   4  228.03   11.04
  -8  -6   3  253.73    9.81
  -8  -6   3  269.92   10.00
  -7  -5   2   99.01    5.62
  -7  -5   2   85.20    5.56
  -6  -4   1  260.75    8.63
  -6  -4   1  257.66    8.16
   6   4  -1  259.04    8.94
  -5  -3   0   32.04    2.93
   5   3   0   27.14    3.46
  -4  -2  -1  206.88    7.98
   4   2   1  220.12    7.86
   3   1   2   22.39    3.39
   3   1   2   20.52    1.93
   2   0   3   19.20    2.35
   2   0   3   22.91    4.05
   1  -1   4   -0.44    3.76
   1  -1   4    4.02    1.97
   0  -2   5  196.63   10.36
  -1  -3   6    1.48    5.47
  -2  -4   7  113.31   11.86
  -3  -5   8   88.70   10.75
 -11  -9   7   66.09   10.13
 -10  -8   6   54.87    7.81
  -9  -7   5  117.42    8.50
  -8  -6   4  136.46    7.56
  -7  -5   3   84.09    5.40
  -6  -4   2   94.10    4.78
  -6  -4   2   86.46    4.76
  -5  -3   1   50.29    5.33
  -5  -3   1   52.82    3.31
  -5  -3   1   57.36    3.55
   5   3  -1   51.86    3.84
  -4  -2   0  418.06   10.03
  -4  -2   0  397.57   11.12
   4   2   0  391.28   10.84
  -3  -1  -1    7.17    1.22
  -3  -1  -1    3.19    2.31
   3   1   1    7.00    2.08
   3   1   1    4.48    1.30
   2   0   2  546.69   12.09
   2   0   2  521.56   14.39
   1  -1   3    3.86    2.61
   1  -1   3    1.54    1.35
   0  -2   4  327.47   11.81
  -1  -3   5   50.20    6.03
  -2  -4   6  122.27    9.55
  -3  -5   7   42.03    7.71
  -4  -6   8   80.27   10.87
 -10  -8   7   30.51    8.18
  -9  -7   6   93.12    9.48
  -8  -6   5   93.91    7.42
  -7  -5   4  173.13    7.65
  -6  -4   3  203.09    7.19
  -5  -3   2   36.78    3.21
  -5  -3   2   36.93    2.89
  -4  -2   1  913.95   22.18
  -4  -2   1  984.06   21.66
  -3  -1   0    7.09    1.18
  -3  -1   0    9.16    1.68
   3   1   0    8.90    1.56
  -2   0  -1  214.20    6.91
  -2   0  -1  220.11    5.57
   2   0   1  231.85    5.63
   2   0   1  227.85    6.80
  -1   1  -2   14.73    2.45
   1  -1   2   15.16    1.57
   1  -1   2   21.20    2.69
   0  -2   3  324.86   10.26
  -1  -3   4   21.83    3.81
  -2  -4   5  145.13    8.08
  -4  -6   7   64.93    8.32
  -5  -7   8  173.04   14.75
 -10  -8   8   15.14    9.55
  -9  -7   7   92.11    9.34
  -8  -6   6   94.92    8.73
  -7  -5   5   30.51    4.44
  -6  -4   4  307.81    9.99
  -5  -3   3  368.87   10.50
  -5  -3   3  398.07   10.71
   5   3  -3  389.61   10.45
  -4  -2   2  264.46    7.42
  -4  -2   2  268.11    7.42
   4   2  -2  268.82    7.27
  -3  -1   1   -0.05    0.87
  -3  -1   1    0.70    0.71
  -3  -1   1   -0.21    0.86
   3   1  -1    1.89    0.91
  -2   0   0  723.48   15.92
  -2   0   0  739.25   16.29
   2   0   0  727.97   15.93
   2   0   0  738.88   16.21
  -1   1  -1  341.56    8.66
   1  -1   1  334.21    8.57
   1  -1   1  326.60    7.56
   0   2  -2  533.72   13.18
   0  -2   2  522.20   13.25
   1   3  -3  151.94    5.96
  -1  -3   3  155.71    6.23
  -2  -4   4  100.26    5.84
  -3  -5   5   35.24    4.86
  -4  -6   6   65.99    7.01
  -5  -7   7  128.23   10.34
  -6  -8   8  113.61   13.23
  -9  -7   8   48.23    9.17
  -8  -6   7   42.31    7.04
  -7  -5   6   42.60    5.85
  -6  -4   5  197.24    8.75
  -5  -3   4   96.51    5.31
  -4  -2   3  187.55    6.44
   4   2  -3  194.22    6.17
  -3  -1   2  169.66    5.01
   3   1  -2  167.39    4.92
  -2   0   1  129.84    3.54
  -2   0   1  133.32    3.56
   2   0  -1  135.23    3.53
  -1   1   0    2.75    0.49
  -1   1   0    2.92    0.51
   1  -1   0    0.76    0.36
   0   2  -1  464.26   10.67
   0  -2   1  464.17   10.72
   1   3  -2   58.05    2.88
  -1  -3   2   56.19    3.09
   2   4  -3  406.13   10.88
  -2  -4   3  393.87   11.06
  -3  -5   4  169.28    7.16
  -4  -6   5  350.22   12.17
  -5  -7   6  168.07    9.56
  -6  -8   7   62.58    7.70
  -7  -9   8  105.13   10.91
  -8  -6   8   32.32    8.58
  -7  -5   7   41.19    6.98
  -6  -4   6  214.38   10.66
  -5  -3   5    2.92    3.03
  -4  -2   4  311.01    9.83
  -3  -1   3   52.78    3.49
   3   1  -3   51.19    3.22
  -2   0   2  601.53   14.09
   2   0  -2  615.98   13.99
   1   3  -1  177.67    4.62
  -1  -3   1  182.51    4.69
   2   4  -2  448.45   10.81
  -2  -4   2  437.73   10.98
   3   5  -3  496.57   12.82
  -3  -5   3  514.05   13.26
  -4  -6   4  415.48   12.29
  -5  -7   5  117.55    7.24
  -7  -9   7   60.66    7.72
  -8 -10   8   35.90    8.58
  -7  -5   8   40.18    8.23
  -6  -4   7  162.91   10.97
  -5  -3   6   -3.96    3.79
  -4  -2   5  246.58    9.69
  -3  -1   4    3.94    2.30
  -2   0   3  354.48   10.15
   2   0  -3  369.93   10.04
  -1   1   2    2.61    1.20
   1  -1  -2    1.44    1.27
   0   2   1  469.86   11.05
   0  -2  -1  481.08   11.07
   1   3   0    3.86    0.75
  -1  -3   0    3.62    0.75
   2   4  -1  455.61   10.79
  -2  -4   1  461.85   10.86
  -2  -4   1  488.11   11.00
   3   5  -2   95.87    3.61
  -3  -5   2   89.13    4.31
   4   6  -3  132.30    5.71
  -4  -6   3  125.12    5.24
  -5  -7   4  305.47   10.11
  -6  -8   5   39.67    4.95
  -7  -9   6  177.21   10.55
  -8 -10   7   27.15    6.93
  -9 -11   8  146.98   15.34
  -6  -4   8  106.08   12.95
  -5  -3   7    2.10    5.43
  -4  -2   6  271.42   12.05
  -3  -1   5   -1.69    3.09
  -2   0   4  482.45   13.91
  -1   1   3    4.72    2.17
   1  -1  -3    6.41    2.12
   0   2   2  519.35   13.51
   0  -2  -2  559.23   13.68
   1   3   1   39.41    2.46
  -1  -3  -1   35.05    2.50
   2   4   0  379.48    9.46
  -2  -4   0  382.55    9.58
   3   5  -1  110.87    4.01
  -3  -5   1  104.82    4.03
  -3  -5   1  104.20    3.80
   4   6  -2  156.37    5.33
  -4  -6   2  162.27    5.65
  -4  -6   2  157.20    5.64
  -5  -7   3  215.28    7.57
  -6  -8   4   44.21    4.59
  -7  -9   5  118.02    8.00
  -8 -10   6   49.77    6.90
  -9 -11   7  180.94   13.52
  -5  -3   8   23.76    8.45
  -4  -2   7   90.11   10.28
  -3  -1   6    4.58    4.82
  -2   0   5  396.58   13.55
  -1   1   4    9.64    3.14
   0   2   3  327.05   10.43
   1   3   2  189.73    6.79
  -1  -3  -2  195.60    7.00
   2   4   1  734.12   17.66
  -2  -4  -1  735.14   17.76
   3   5   0   24.85    2.71
  -3  -5   0   23.90    2.97
   4   6  -1   97.65    4.47
  -4  -6   1  107.21    4.39
  -4  -6   1  101.64    4.58
  -5  -7   2   46.26    3.49
  -6  -8   3   67.04    4.80
  -7  -9   4  334.07   11.57
  -8 -10   5   24.02    5.03
  -9 -11   6  211.10   12.34
 -10 -12   7   -7.09    7.83
  -4  -2   8  164.70   13.99
  -3  -1   7    7.49    6.36
  -2   0   6  453.30   16.30
  -1   1   5   26.28    4.97
   0   2   4  328.35   11.68
   1   3   3  158.67    7.35
   2   4   2  523.02   14.32
   3   5   1    0.37    1.73
   4   6   0   45.52    3.63
  -4  -6   0   44.84    3.12
   5   7  -1   55.90    4.20
  -5  -7   1   59.39    3.96
  -6  -8   2   32.33    3.97
  -7  -9   3   88.13    5.89
  -8 -10   4   17.36    6.55
  -9 -11   5  122.35    9.59
 -10 -12   6    7.82    7.17
  -3  -1   8   27.15    8.56
  -2   0   7  134.59   12.27
  -1   1   6   -5.24    4.86
   0   2   5  181.95   12.93
   1   3   4    6.41    3.85
   2   4   3  155.21    7.82
   3   5   2  183.37    8.00
   4   6   1  118.69    6.01
  -4  -6  -1  123.36    3.92
   5   7   0   89.44    5.53
  -5  -7   0   84.29    4.08
   6   8  -1   62.71    5.09
  -6  -8   1   59.88    4.14
  -6  -8   1   53.98    4.50
  -7  -9   2  165.61    7.64
  -9 -11   4  182.65   10.37
 -10 -12   5   13.74    6.53
 -11 -13   6  176.48   15.79
  -1   1   7   -3.76    6.93
   0   2   6  112.45   10.88
   1   3   5   18.83    6.03
   2   4   4  136.53   10.04
   3   5   3  174.12    8.97
   4   6   2  135.92    7.34
   5   7   1  151.53    7.57
   6   8   0  167.25    8.28
  -6  -8   0  164.79    6.12
   7   9  -1  175.92    8.79
  -7  -9   1  176.91    8.34
  -7  -9   1  188.00    7.47
  -8 -10   2   13.67    4.12
  -8 -10   2   19.98    4.08
  -9 -11   3  102.15    7.64
  -9 -11   3   80.91    8.47
 -10 -12   4    9.00    5.81
 -10 -12   4   13.07    6.06
 -11 -13   5   55.98    9.33
 -11 -13   5   50.44    8.27
   0   2   7  119.93   15.01
   1   3   6   14.40    7.42
   2   4   5  129.73   10.42
   3   5   4   97.29    9.18
   4   6   3  108.76    9.02
   5   7   2  200.25   10.19
   6   8   1   78.93    7.50
   7   9   0  161.68    9.44
  -7  -9   0  147.14    6.70
   8  10  -1    8.98    4.63
  -8 -10   1    7.85    4.13
  -8 -10   1    4.19    3.80
  -9 -11   2   93.74    8.67
  -9 -11   2  106.43    8.94
 -10 -12   3   22.63    6.14
 -10 -12   3    9.18    6.61
   3   5   5   38.52    8.09
   4   6   4   26.90    6.92
   5   7   3   71.07    7.97
   6   8   2   61.69    7.35
   7   9   1  131.41   10.16
   8  10   0   23.87    6.60
  -8 -10   0   25.93    5.77
   9  11  -1  208.34   12.40
  -9 -11   1  202.65   11.91
 -10 -12   2   27.92    6.93
   6   8   3   41.62    8.54
   7   9   2  141.11   12.81
   8  10   1   31.39    7.73
   9  11   0  242.95   15.20
  -9 -11   0  236.54   14.31
 -10  -6   1   53.54    8.03
  10   6  -1   41.08    8.68
  -9  -5   0   15.22    5.79
   9   5   0   25.52    6.50
   8   4   1  198.69   12.55
   7   3   2   26.40    6.68
   6   2   3   89.21    9.20
   5   1   4    5.26    7.28
 -11  -7   3   60.48    8.45
 -11  -7   3   42.06    7.45
 -10  -6   2   58.31    6.96
 -10  -6   2   56.63    7.04
  -9  -5   1    0.77    5.08
   9   5  -1   13.69    5.66
  -8  -4   0  164.86    9.75
   8   4   0  190.52   10.82
   7   3   1   25.34    5.65
   6   2   2  138.96   10.16
   5   1   3    2.88    5.27
   4   0   4  206.66   12.79
   3  -1   5   15.94    7.76
   2  -2   6   99.06   11.42
 -11  -7   4  105.44   11.29
 -11  -7   4   74.98    8.50
 -10  -6   3   67.18    7.19
 -10  -6   3   71.50    8.66
  -9  -5   2   51.66    9.09
  -9  -5   2   50.17    5.77
  -8  -4   1  113.48    6.82
  -8  -4   1  107.66    7.17
   8   4  -1  113.92    7.85
  -7  -3   0    5.50    3.02
   7   3   0   10.86    4.01
  -6  -2  -1  149.12    6.13
   6   2   1  146.16    8.35
   5   1   2    9.40    4.13
   3  -1   4    5.05    5.18
   2  -2   5  261.21   13.99
   1  -3   6    4.10    7.52
   0  -4   7  144.09   15.08
 -11  -7   5   90.37   11.63
 -11  -7   5   69.31    8.42
 -10  -6   4   74.77    8.79
 -10  -6   4   59.96    6.88
  -9  -5   3   29.62    4.83
  -9  -5   3   51.72    5.92
  -8  -4   2  136.31    7.23
  -8  -4   2  130.48    7.09
  -7  -3   1    5.07    2.65
  -7  -3   1   -0.05    2.44
   7   3  -1    3.05    2.84
  -6  -2   0  261.36    8.18
   6   2   0  268.86    9.66
  -5  -1  -1    7.38    2.11
   5   1   1   10.72    3.20
   4   0   2  660.01   18.32
   3  -1   3   21.82    2.86
   3  -1   3   21.24    4.31
   2  -2   4  415.14   14.98
   1  -3   5   15.40    5.96
   0  -4   6  170.46   12.29
  -1  -5   7    4.43    7.72
 -11  -7   6   52.09    7.88
 -11  -7   6   62.95    8.74
 -10  -6   5  124.08    9.88
 -10  -6   5   87.82    8.68
  -9  -5   4   68.26    6.82
  -9  -5   4   77.00    7.26
  -8  -4   3  147.27    7.28
  -8  -4   3  147.56    7.47
  -7  -3   2    3.27    2.42
  -7  -3   2    1.90    2.60
  -6  -2   1  437.79   11.87
  -6  -2   1  440.96   12.05
   6   2  -1  433.03   12.44
  -5  -1   0    1.88    1.65
   5   1   0    0.64    1.99
   4   0   1  462.19   12.98
   3  -1   2   21.14    2.21
   3  -1   2   17.43    3.16
   2  -2   3   84.81    6.19
   2  -2   3   85.69    3.84
   1  -3   4    5.23    3.83
   1  -3   4    0.39    2.20
   0  -4   5  207.15   11.05
  -1  -5   6   14.73    5.92
  -2  -6   7   71.94    9.53
  -3  -7   8   55.74   10.20
 -11  -7   7   61.82   10.11
 -10  -6   6   82.10    8.81
 -10  -6   6   89.47   10.57
  -9  -5   5   41.15    6.17
  -9  -5   5   42.77    5.54
  -8  -4   4  108.22    6.87
  -8  -4   4  111.93    6.79
  -7  -3   3   39.55    4.25
  -7  -3   3   42.45    4.22
  -6  -2   2  352.13   10.10
  -6  -2   2  370.76   10.54
  -5  -1   1   41.36    3.07
  -5  -1   1   45.34    3.74
  -5  -1   1   41.09    3.08
   5   1  -1   43.97    3.50
  -4   0   0  418.99   11.51
   4   0   0  437.40   11.35
  -3   1  -1    6.63    2.47
  -3   1  -1    5.83    1.34
   3  -1   1    6.01    1.95
   3  -1   1    6.20    1.43
  -2   2  -2  158.74    7.02
   2  -2   2  169.85    4.94
   2  -2   2  166.41    6.63
   1  -3   3  160.66    7.32
   1  -3   3  157.33    5.19
   0  -4   4  402.09   13.31
  -1  -5   5  127.17    8.40
  -2  -6   6   82.65    9.41
  -3  -7   7   20.49    7.45
  -4  -8   8   45.96    9.92
 -10  -6   7   27.84    6.48
 -10  -6   7   20.15    7.57
  -9  -5   6   61.18    6.99
  -8  -4   5   84.48    6.97
  -7  -3   4   79.52    5.53
  -6  -2   3  195.30    7.37
  -6  -2   3  198.27    6.86
  -5  -1   2    3.65    1.43
  -5  -1   2    3.26    1.71
  -5  -1   2    1.84    1.54
  -4   0   1  377.68    9.84
  -4   0   1  349.61    9.44
  -4   0   1  351.50    9.28
   4   0  -1  378.35   10.12
  -3   1   0    8.11    1.48
  -3   1   0    7.69    1.18
   3  -1   0    7.01    1.37
   3  -1   0    5.92    1.32
  -2   2  -1  389.75    9.36
  -2   2  -1  378.91   10.38
   2  -2   1  409.79   12.98
   2  -2   1  400.44    9.32
  -1   3  -2  204.46    6.98
   1  -3   2  198.11    7.01
   1  -3   2  204.28    5.64
   0  -4   3  502.46   14.02
  -1  -5   4  115.90    6.74
  -2  -6   5   77.50    7.02
  -3  -7   6  139.78   10.13
  -4  -8   7   92.38   10.29
  -5  -9   8   81.36   10.75
 -10  -6   8   91.81   11.16
  -9  -5   7   70.08    8.40
  -8  -4   6  148.45    9.71
  -7  -3   5   16.86    3.68
  -6  -2   4  414.79   12.12
  -5  -1   3   38.02    3.15
  -5  -1   3   37.67    3.04
   5   1  -3   42.46    3.04
  -4   0   2  528.26   12.55
  -4   0   2  526.07   13.15
  -4   0   2  527.64   12.67
   4   0  -2  537.86   12.43
  -3   1   1    2.02    0.85
  -3   1   1    1.68    0.71
  -3   1   1    0.43    0.85
   3  -1  -1    2.44    0.86
  -2   2   0  969.37   21.04
  -2   2   0  955.86   20.99
   2  -2   0  979.78   20.97
   2  -2   0  988.90   21.03
  -1   3  -1   40.18    2.39
   1  -3   1   38.80    1.92
   1  -3   1   36.03    2.44
   0   4  -2   30.41    2.72
   0  -4   2   30.88    2.88
   1   5  -3  481.73   13.01
  -1  -5   3  499.94   13.38
  -2  -6   4   44.44    4.43
  -3  -7   5  149.23    8.10
  -5  -9   7   64.15    8.29
  -6 -10   8   61.91    9.33
  -9  -5   8   16.88    8.26
  -8  -4   7  152.42   11.45
  -7  -3   6   76.25    7.73
  -6  -2   5  179.77    8.16
  -5  -1   4   30.97    3.75
  -4   0   3   48.75    3.26
   4   0  -3   53.30    3.06
  -3   1   2  158.08    4.72
   3  -1  -2  163.49    4.62
  -2   2   1  223.26    5.83
  -2   2   1  226.82    5.32
   2  -2  -1  235.16    5.90
   2  -2  -1  228.84    5.25
  -1   3   0    3.27    0.53
  -1   3   0    3.10    0.68
   1  -3   0    3.63    0.67
   0   4  -1   20.42    1.60
   0  -4   1   21.33    1.70
   1   5  -2  667.68   15.59
   2   6  -3   79.53    4.19
  -2  -6   3   78.74    4.25
  -3  -7   4  293.72    9.97
  -4  -8   5  157.67    7.91
  -5  -9   6  359.66   18.14
  -6 -10   7   48.58    7.13
  -7 -11   8  238.21   15.67
  -8  -4   8   77.51    9.60
  -7  -3   7   83.90    9.60
  -6  -2   6  242.09   10.76
  -5  -1   5    6.89    3.16
  -4   0   4  225.83    7.91
  -3   1   3   53.45    5.51
   3  -1  -3   57.94    3.24
  -2   2   2  644.25   14.76
   2  -2  -2  640.07   14.65
  -1   3   1  184.26    4.67
   1  -3  -1  189.61    4.64
   1   5  -1   89.09    2.92
  -1  -5   1   87.66    2.98
   2   6  -2  303.55    8.00
  -2  -6   2  301.19    8.15
   3   7  -3  425.11   11.44
  -3  -7   3  447.10   11.93
  -4  -8   4  239.34    8.80
  -5  -9   5  188.42    9.00
  -6 -10   6   10.68    4.44
  -7 -11   7  116.64   11.38
  -8 -12   8    9.97    8.76
  -7  -3   8    6.32    7.20
  -6  -2   7  225.05   12.24
  -5  -1   6    1.12    3.99
  -4   0   5  406.68   12.92
  -3   1   4    5.09    2.20
  -2   2   3  760.67   18.70
   2  -2  -3  786.72   18.56
  -1   3   2   56.87    3.08
   1  -3  -2   56.24    3.00
   0   4   1   21.86    0.91
   0   4   1   23.19    1.83
   0  -4  -1   22.08    1.88
   1   5   0   72.57    2.76
   2   6  -1  222.54    5.92
  -2  -6   1  209.04    5.89
  -2  -6   1  219.53    6.04
   3   7  -2   61.70    3.09
  -3  -7   2   63.84    3.34
  -3  -7   2   62.45    3.28
  -4  -8   3  125.34    5.51
  -5  -9   4  224.07    8.61
  -6 -10   5    8.01    3.77
  -7 -11   6  253.08   11.92
  -8 -12   7    5.61    6.47
  -6  -2   8  168.63   13.67
  -5  -1   7   -3.19    5.00
  -4   0   6  661.38   19.93
  -3   1   5    3.40    3.43
  -2   2   4  116.88    6.20
  -1   3   3  161.86    6.45
   1  -3  -3  154.78    6.33
   0  -4  -2   29.31    2.92
  -1  -5  -1    2.73    1.26
   2   6   0  433.12   10.68
  -2  -6   0  417.59   10.63
   3   7  -1  274.19    7.83
  -3  -7   1  277.33    7.84
  -3  -7   1  270.44    7.63
   4   8  -2  111.22    5.45
  -4  -8   2  116.92    4.83
  -4  -8   2  117.75    5.73
  -5  -9   3  277.77    9.11
  -6 -10   4   66.87    5.37
  -7 -11   5  225.44   13.22
  -8 -12   6   20.32    5.92
  -9 -13   7  108.80   12.81
  -5  -1   8   11.23    7.74
  -4   0   7  118.03   10.85
  -3   1   6    7.52    4.54
  -2   2   5  273.37   10.97
  -1   3   4   12.60    3.24
   0   4   3  517.16   14.41
   1   5   2  197.70    7.04
  -1  -5  -2  198.71    7.33
   2   6   1  584.17   14.51
  -2  -6  -1  564.96   14.65
   3   7   0  410.69   10.88
  -3  -7   0  385.58   10.88
   4   8  -1   90.36    4.56
  -4  -8   1   92.68    4.39
  -5  -9   2  350.49   10.29
  -6 -10   3  173.49    7.49
  -7 -11   4   64.49    6.31
  -8 -12   5    5.81    4.34
  -9 -13   6   78.77    8.82
 -10 -14   7    1.11    8.59
  -4   0   8  163.92   13.98
  -3   1   7    5.90    5.95
  -2   2   6  408.55   15.36
  -1   3   5   50.70    6.00
   0   4   4  364.59   12.44
   1   5   3   65.46    5.08
   2   6   2  239.37    8.50
   3   7   1  122.99    5.61
   4   8   0   38.87    3.79
   5   9  -1  100.11    5.26
  -5  -9   1   99.41    5.06
  -6 -10   2   41.70    4.48
  -7 -11   3   41.20    4.72
  -8 -12   4    2.00    3.96
  -9 -13   5  154.31   10.75
 -10 -14   6   11.09    7.49
  -3   1   8   23.41    8.63
  -2   2   7  105.14   10.73
  -1   3   6    3.80    5.48
   1   5   4   25.62    4.82
   2   6   3  188.83    8.64
   3   7   2  302.71   10.54
   4   8   1   31.78    3.90
   5   9   0  189.90    8.00
  -5  -9   0  187.86    6.14
   6  10  -1    8.81    2.98
  -6 -10   1    2.16    2.50
  -7 -11   2  297.17   10.84
  -8 -12   3   16.65    4.40
  -9 -13   4   97.25    9.19
 -10 -14   5   -0.80    6.66
  -1   3   7   12.57    7.35
   0   4   6  179.41   12.27
   1   5   5   65.70    7.82
   2   6   4   76.77    8.05
   3   7   3  133.93    8.53
   4   8   2   96.34    6.77
   5   9   1  153.84    8.13
   6  10   0  117.16    7.52
  -6 -10   0  111.10    5.11
   7  11  -1  211.69    9.97
  -7 -11   1  212.72    8.10
  -7 -11   1  208.31    9.28
  -8 -12   2    1.68    3.76
  -8 -12   2   -5.50    3.90
  -9 -13   3  114.67    8.65
  -9 -13   3  105.27    9.12
 -10 -14   4    6.04    6.55
 -10 -14   4    3.37    6.27
   1   5   6   22.57    7.85
   2   6   5   48.72    7.48
   3   7   4  178.34   10.85
   4   8   3  107.48    8.94
   5   9   2  153.64    9.34
   6  10   1    9.07    4.61
   7  11   0  151.85    9.76
  -7 -11   0  170.62    9.39
   8  12  -1   14.02    5.25
  -8 -12   1   17.52    4.28
  -8 -12   1    6.59    4.39
  -9 -13   2  108.45    9.78
  -9 -13   2  115.96    8.76
 -10 -14   3    1.85    6.08
 -10 -14   3    9.47    6.88
   3   7   5   50.59    8.76
   4   8   4   27.80    6.96
   5   9   3   97.02   10.27
   6  10   2   16.05    5.92
   7  11   1  126.79   10.52
   8  12   0   16.47    5.97
  -8 -12   0   16.09    5.55
   9  13  -1  170.88   12.69
  -9 -13   1  143.02   11.52
 -10 -14   2  -15.80    6.71
   7  11   2  135.68   13.17
 -10  -4   1   79.10    9.67
  10   4  -1   62.66   10.12
  -9  -3   0   14.57    5.78
   9   3   0   23.19    6.47
   8   2   1  138.88   11.59
   7   1   2  -15.18    5.70
   6   0   3  124.61   11.85
   5  -1   4    0.93    7.34
   4  -2   5  136.18   15.71
 -11  -5   3   16.04    6.92
 -10  -4   2  144.20    9.79
 -10  -4   2  134.13    9.66
  -9  -3   1   30.42    6.07
  -9  -3   1   23.76    5.28
   9   3  -1   28.55    5.93
   8   2   0  201.19   10.90
   7   1   1    4.29    4.65
   6   0   2  149.49   10.18
   5  -1   3    2.82    5.27
   4  -2   4  144.61   12.02
   3  -3   5    4.44    7.43
   2  -4   6    8.48    8.96
 -11  -5   4   65.68    7.94
 -11  -5   4   61.78    7.71
 -10  -4   3   62.45    7.00
 -10  -4   3   76.11    8.31
  -9  -3   2   38.06    5.23
  -9  -3   2   30.85    5.03
  -8  -2   1  155.84    7.94
  -8  -2   1  176.72    7.70
   8   2  -1  150.52    8.50
  -7  -1   0    9.96    3.29
   7   1   0   10.47    3.97
  -6   0  -1  138.31    6.18
   6   0   1  135.51    7.88
   5  -1   2    9.58    4.12
   4  -2   3   90.08    8.52
   3  -3   4   22.83    6.18
   2  -4   5  114.89   10.86
   1  -5   6   39.72    8.48
   0  -6   7  110.79   12.94
 -11  -5   5   94.44   10.34
 -11  -5   5   91.52   10.85
 -10  -4   4   77.34    8.41
 -10  -4   4   79.73    8.45
  -9  -3   3   13.07    3.93
  -9  -3   3   17.84    4.39
  -8  -2   2  242.86    8.99
  -8  -2   2  241.42    9.28
  -7  -1   1   15.46    2.97
  -7  -1   1   18.29    3.28
   7   1  -1   13.64    3.18
  -6   0   0  407.24   11.31
   6   0   0  409.20   12.35
  -5   1  -1    5.04    2.35
   5  -1   1    3.98    2.86
   4  -2   2  436.47   11.43
   4  -2   2  437.80   13.74
   3  -3   3   32.64    3.94
   3  -3   3   37.91    5.15
   2  -4   4  125.48    8.99
   1  -5   5   69.80    8.10
   0  -6   6   93.18   11.32
  -1  -7   7   73.88   10.11
 -11  -5   6   57.35    8.10
 -11  -5   6   63.89    8.66
 -10  -4   5  155.65   10.39
 -10  -4   5  169.87   10.19
  -9  -3   4   23.80    4.47
  -9  -3   4   19.32    4.22
  -8  -2   3  111.51    6.70
  -8  -2   3  103.52    6.21
  -7  -1   2    5.90    2.63
  -7  -1   2    5.94    2.29
  -6   0   1  517.20   13.30
  -6   0   1  513.87   13.40
   6   0  -1  495.65   13.57
  -5   1   0    0.08    1.69
   5  -1   0    4.06    2.12
  -4   2  -1  215.98    6.71
   4  -2   1  217.00    7.71
   4  -2   1  226.74    6.91
   3  -3   2   62.74    3.61
   3  -3   2   63.22    5.02
   2  -4   3  147.06    7.55
   2  -4   3  134.87    5.29
   1  -5   4   28.25    4.96
   1  -5   4   20.40    3.02
   0  -6   5  100.84    8.80
  -1  -7   6   88.16   10.27
  -2  -8   7    1.96    7.32
 -11  -5   7   58.91    9.51
 -10  -4   6  124.78    9.15
 -10  -4   6  108.18   10.43
  -9  -3   5    7.66    4.34
  -9  -3   5   17.92    4.64
  -8  -2   4  156.24    7.87
  -8  -2   4  151.31    7.43
  -7  -1   3   14.42    2.98
  -7  -1   3    9.27    2.46
  -6   0   2  271.33    8.50
  -6   0   2  284.20    8.86
  -6   0   2  278.81    8.13
  -5   1   1   42.77    3.44
  -5   1   1   45.64    3.20
  -5   1   1   45.37    3.02
   5  -1  -1   48.95    3.37
  -4   2   0  409.13   10.90
  -4   2   0  402.94   10.37
   4  -2   0  421.07   10.56
   4  -2   0  396.28   10.79
  -3   3  -1   35.32    2.54
  -3   3  -1   31.01    3.75
   3  -3   1   37.35    3.46
   3  -3   1   41.17    2.79
  -2   4  -2  506.39   14.14
   2  -4   2  528.69   12.50
   2  -4   2  523.04   14.05
   1  -5   3   59.31    3.74
   1  -5   3   63.31    5.21
   0  -6   4  113.89    7.23
  -1  -7   5  159.45    9.60
  -2  -8   6   38.26    6.89
  -3  -9   7  121.74   12.61
  -4 -10   8   46.93   10.38
 -10  -4   7  116.68   12.33
 -10  -4   7  134.15   10.11
  -9  -3   6   10.48    5.63
  -9  -3   6    0.27    4.14
  -8  -2   5  149.27    8.35
  -8  -2   5  158.62    8.60
  -7  -1   4   12.78    2.91
  -7  -1   4   16.51    3.31
  -6   0   3  176.84    6.65
  -6   0   3  157.09    6.14
  -6   0   3  174.11    6.15
   6   0  -3  167.93    5.92
  -5   1   2    4.68    1.35
  -5   1   2    6.06    1.75
  -5   1   2    3.71    1.62
  -4   2   1  983.14   21.60
  -4   2   1 1000.00   21.86
  -4   2   1  977.74   22.31
   4  -2  -1  985.29   21.76
  -3   3   0    2.04    1.06
  -3   3   0   -0.76    1.24
   3  -3   0    0.25    1.18
   3  -3   0    2.15    1.09
  -2   4  -1  757.09   17.02
  -2   4  -1  749.51   17.68
   2  -4   1  767.85   16.97
   2  -4   1  741.18   17.50
  -1   5  -2  208.50    7.00
   1  -5   2  204.25    7.09
   1  -5   2  212.60    6.13
   0  -6   3  238.62    8.57
  -1  -7   4   97.73    6.36
  -2  -8   5   47.96    6.14
  -3  -9   6  155.85   10.33
  -4 -10   7   10.01    6.70
  -5 -11   8   84.06   10.75
 -10  -4   8  150.38   15.09
 -10  -4   8  118.33   11.32
  -9  -3   7    7.76    5.19
  -9  -3   7   16.43    6.86
  -8  -2   6  355.49   13.41
  -7  -1   5   44.62    5.53
  -6   0   4  630.21   16.42
  -5   1   3   40.89    3.31
  -5   1   3   43.26    3.11
   5  -1  -3   41.67    2.89
  -4   2   2  261.92    6.88
  -4   2   2  267.92    6.85
  -4   2   2  251.09    7.53
   4  -2  -2  270.28    6.76
  -3   3   1   72.57    3.27
  -3   3   1   75.31    2.40
  -3   3   1   74.62    2.49
   3  -3  -1   75.00    3.19
   3  -3  -1   80.62    2.49
  -2   4   0  377.72    9.14
   2  -4   0  385.81    9.16
  -1   5  -1    0.79    1.09
   1  -5   1    3.50    1.33
   1  -5   1    3.33    1.09
   0   6  -2  159.22    5.46
   0  -6   2  159.76    5.58
   1   7  -3  158.97    6.24
  -1  -7   3  161.91    6.49
  -2  -8   4   85.22    5.67
  -3  -9   5  116.74    7.53
  -4 -10   6   17.18    5.05
  -5 -11   7  128.00   10.94
  -6 -12   8    1.29    7.92
  -9  -3   8   -1.09    5.92
  -9  -3   8    6.34    7.88
  -8  -2   7  183.74   11.31
  -7  -1   6    0.79    4.02
  -6   0   5  141.77    7.19
  -5   1   4   32.17    3.80
   5  -1  -4   33.88    4.01
  -4   2   3  184.62    6.23
  -4   2   3  188.79    6.10
   4  -2  -3  190.26    5.80
  -3   3   2   15.40    1.56
  -3   3   2   17.42    1.84
   3  -3  -2   15.75    1.52
  -2   4   1  461.83    9.99
  -2   4   1  453.34   10.78
   2  -4  -1  482.86   10.86
   2  -4  -1  464.81    9.90
  -1   5   0   72.61    2.63
  -1   5   0   69.65    1.92
   1  -5   0   73.92    2.58
   1  -5   0   70.24    1.99
   0   6  -1  116.86    3.61
   0  -6   1  117.76    3.78
   1   7  -2  476.64   11.69
  -1  -7   2  470.07   11.89
   2   8  -3  278.29    8.50
  -2  -8   3  286.94    8.98
  -3  -9   4  358.95   11.51
  -4 -10   5   44.72    5.28
  -5 -11   6  165.72   10.31
  -6 -12   7    3.10    6.19
  -7 -13   8   73.42   10.39
  -9  -3   9   46.10   13.56
  -8  -2   8  115.24   12.82
  -7  -1   7    4.56    5.28
  -6   0   6  449.18   15.02
  -5   1   5   12.00    3.19
  -4   2   4  292.14    9.32
  -3   3   3   31.01    2.88
   3  -3  -3   28.67    2.64
  -2   4   2  438.94   10.50
  -2   4   2  446.56   10.80
   2  -4  -2  454.01   10.68
  -1   5   1   83.60    2.71
  -1   5   1   90.28    2.75
   1  -5  -1   92.40    2.75
   1  -5  -1   88.13    2.77
   0   6   0  126.88    3.82
   0  -6   0  128.90    3.54
   1   7  -1  490.36   11.33
  -1  -7   1  493.45   11.47
   2   8  -2  400.78   10.28
  -2  -8   2  410.10   10.59
  -3  -9   3  232.65    7.88
  -4 -10   4   57.33    4.83
  -5 -11   5  139.90    8.14
  -6 -12   6   -4.93    4.69
  -7 -13   7  125.34   11.75
  -8 -14   8   21.18   14.26
  -8  -2   9  139.19   16.09
  -8  -2   9  140.32   12.02
  -7  -1   8    3.41    7.15
  -6   0   7   96.51    9.65
  -5   1   6    2.52    3.94
  -4   2   5  238.53    9.49
  -3   3   4    8.88    2.62
  -2   4   3  403.91   11.23
  -2   4   3  414.51    9.97
   2  -4  -3  408.96   11.10
  -1   5   2  725.16   15.63
  -1   5   2  704.28   16.81
   1  -5  -2  724.59   16.84
   0   6   1  120.49    4.01
   0  -6  -1  122.66    4.11
   0  -6  -1  123.71    3.26
   1   7   0  345.83    8.73
  -1  -7   0  365.30    8.86
   2   8  -1   17.98    1.89
  -2  -8   1   16.35    1.99
  -2  -8   1   19.51    1.89
   3   9  -2  538.95   13.50
  -3  -9   2  554.84   13.75
  -3  -9   2  552.29   13.77
  -4 -10   3    1.10    1.75
  -5 -11   4  260.07    9.53
  -6 -12   5   77.75    6.94
  -7 -13   6  101.78    9.69
  -8 -14   7   -5.65    7.14
  -7  -1   9    9.36    9.82
  -7  -1   9    6.48    6.97
  -6   0   8  104.37   12.81
  -5   1   7    6.19    5.65
  -4   2   6  284.89   11.96
  -3   3   5   51.59    5.85
  -2   4   4  112.75    6.09
  -1   5   3  508.82   11.28
  -1   5   3  503.92   13.57
   1  -5  -3  474.68   13.36
   0   6   2  165.25    5.97
   0  -6  -2  161.33    5.94
   1   7   1   88.00    3.86
  -1  -7  -1   88.98    3.94
   2   8   0    5.16    1.44
  -2  -8   0    4.57    1.55
   3   9  -1  479.37   12.04
  -3  -9   1  436.18   11.83
  -3  -9   1  465.03   11.80
  -4 -10   2  256.72    8.09
  -5 -11   3  194.69    7.65
  -6 -12   4  137.64    7.30
  -7 -13   5  316.44   12.70
  -8 -14   6    5.17    5.51
  -9 -15   7   68.63   10.04
  -5   1   8   11.28    6.99
  -4   2   7   85.20    8.76
  -3   3   6   12.29    4.92
  -2   4   5  165.82    8.70
  -1   5   4  131.05    6.96
  -1   5   4  122.79    3.89
   0   6   3  259.81    9.01
   1   7   2  468.58   12.84
   2   8   1  184.70    6.32
  -2  -8  -1  164.79    6.49
   3   9   0  598.10   15.10
   4  10  -1   12.98    2.46
  -4 -10   1   14.02    2.32
  -5 -11   2  498.33   13.69
  -6 -12   3    6.51    2.89
  -7 -13   4  189.83    9.82
  -8 -14   5    7.21    5.04
  -9 -15   6   92.66   10.85
  -4   2   8  149.61   14.01
  -3   3   7   29.82    6.90
  -2   4   6  132.47    5.67
  -2   4   6  148.78    9.87
  -1   5   5  133.70    8.68
   0   6   4  102.53    6.65
   1   7   3  167.78    7.71
   2   8   2   65.99    4.76
   3   9   1  213.87    7.81
   4  10   0   49.91    4.16
   5  11  -1  357.26   11.29
  -5 -11   1  355.90   10.97
  -6 -12   2   28.21    3.85
  -7 -13   3  154.94    8.24
  -8 -14   4   16.73    4.93
  -9 -15   5   86.19   10.19
 -10 -16   6    2.70    7.77
  -3   3   8   58.23    9.71
  -2   4   7   84.83    9.59
  -1   5   6   22.23    5.72
   0   6   5  100.26    8.61
   1   7   4   84.23    7.16
   2   8   3  104.57    7.05
   3   9   2  296.85   10.60
   4  10   1   37.58    4.80
   5  11   0  259.24    9.65
   6  12  -1    4.08    3.27
  -6 -12   1    1.84    2.89
  -8 -14   3   20.16    4.91
  -9 -15   4  120.50   10.31
 -10 -16   5    7.98    7.64
  -1   5   7   -1.98    7.25
   0   6   6   93.65   10.42
   1   7   5   68.18    7.66
   2   8   4   65.71    8.05
   3   9   3   67.78    8.70
   4  10   2   41.53    5.14
   5  11   1  168.65    8.97
   6  12   0    7.92    4.17
  -6 -12   0    4.71    2.69
   7  13  -1  274.01   11.37
  -7 -13   1  265.36   10.86
  -7 -13   1  271.06    9.44
  -8 -14   2    7.26    4.30
  -9 -15   3  126.59   10.42
 -10 -16   4   19.94    7.38
   1   7   6   72.46    9.41
   2   8   5   28.27    7.10
   3   9   4  108.27    9.55
   4  10   3   47.32    6.54
   5  11   2  154.67    9.67
   6  12   1   -0.67    4.47
   7  13   0  163.76   10.21
  -7 -13   0  159.68    9.49
   8  14  -1   10.75    5.39
  -8 -14   1   -2.25    4.58
  -9 -15   2   46.80    7.12
  -9 -15   2   41.54    7.51
 -10 -16   3   51.51    7.83
 -10 -16   3   55.01    8.55
   3   9   5   26.11    7.91
   4  10   4   11.73    6.56
   5  11   3   91.43   10.91
   6  12   2   -7.24    5.73
   7  13   1   45.61    7.43
   8  14   0    2.29    5.80
  -8 -14   0    6.92    5.71
   9  15  -1  137.61   13.17
  -9 -15   1  141.50   12.41
  -9  -1   0    4.24    5.24
   9   1   0    0.31    6.01
   8   0   1  102.37   10.76
   7  -1   2   -5.19    5.97
   6  -2   3   97.38   11.78
   5  -3   4   21.23    7.98
 -11  -3   3   47.73    7.39
 -10  -2   2  166.56   10.29
 -10  -2   2  198.24   10.42
  -9  -1   1   -0.05    4.85
  -9  -1   1   -0.74    4.39
   9   1  -1   10.02    5.30
  -8   0   0  125.22    7.73
   7  -1   1    4.71    7.89
   6  -2   2  146.72    9.35
   5  -3   3   23.69    6.11
   4  -4   4  112.43   10.86
   3  -5   5   21.14    7.92
   2  -6   6   32.61    9.81
 -11  -3   4   25.89    6.67
 -10  -2   3   66.34    8.09
 -10  -2   3   87.66    8.33
  -9  -1   2   14.21    4.50
  -9  -1   2   10.09    3.98
  -8   0   1  152.21    7.35
  -8   0   1  133.94    7.30
   8   0  -1  134.41    7.83
  -7   1   0    5.24    3.23
   7  -1   0   12.02    3.90
  -6   2  -1  152.15    6.85
   6  -2   1  143.75    8.04
   5  -3   2   24.71    4.66
   4  -4   3   77.54    8.30
   3  -5   4  113.04    9.80
   2  -6   5   33.64    7.51
   1  -7   6   91.89   10.51
   0  -8   7   48.68   11.28
 -11  -3   5   51.25    7.34
 -11  -3   5   46.47    7.20
 -10  -2   4  208.94   10.26
 -10  -2   4  198.60   10.34
  -9  -1   3   26.86    4.27
  -9  -1   3   27.94    4.71
  -8   0   2  290.84   10.35
  -8   0   2  300.81    9.90
  -7   1   1   22.20    3.51
  -7   1   1   21.33    3.08
   7  -1  -1   23.02    3.54
  -6   2   0  254.84    8.40
   6  -2   0  247.74    8.86
  -5   3  -1   63.46    4.43
   5  -3   1   79.91    5.40
   4  -4   2  130.52    7.22
   3  -5   3  173.66    9.02
   2  -6   4   90.61    8.37
   1  -7   5   60.74    7.58
   0  -8   6   50.22    8.39
  -1  -9   7  131.29   14.51
 -11  -3   6   20.83    7.25
 -11  -3   6    6.14    6.46
 -10  -2   5  159.99    9.88
 -10  -2   5  200.77   17.26
  -9  -1   4    1.98    3.62
  -9  -1   4   -0.76    3.60
  -8   0   3  168.64    7.04
  -8   0   3  168.99    7.80
  -7   1   2    5.31    2.15
  -7   1   2    7.98    2.61
  -6   2   1  449.73   12.11
  -6   2   1  425.13   12.11
  -6   2   1  436.95   11.45
   6  -2  -1  427.20   11.78
  -5   3   0   25.66    3.42
  -5   3   0   30.71    3.02
   5  -3   0   28.18    3.36
  -4   4  -1  109.73    7.27
  -4   4  -1   99.83    4.59
   4  -4   1  105.97    5.36
   4  -4   1  104.53    4.85
   3  -5   2  161.33    5.81
   3  -5   2  163.68    7.30
   2  -6   3  174.47    8.24
   2  -6   3  159.09    6.21
   1  -7   4   92.32    7.68
   0  -8   5   13.56    6.62
  -1  -9   6  190.41   12.57
  -2 -10   7    5.10    7.70
 -11  -3   7    4.58    7.97
 -10  -2   6  148.31    9.97
 -10  -2   6  167.78   11.12
  -9  -1   5    3.63    3.89
  -9  -1   5    3.48    4.02
  -8   0   4  503.41   15.01
  -8   0   4  488.16   13.98
  -7   1   3   15.15    3.13
  -7   1   3    9.28    2.26
  -6   2   2  351.02    9.73
  -6   2   2  361.64   10.51
  -6   2   2  352.44    9.53
  -5   3   1   56.55    3.52
  -5   3   1   55.20    3.55
  -5   3   1   56.46    2.91
   5  -3  -1   56.37    3.22
  -4   4   0  135.43    5.03
  -4   4   0  138.67    5.23
   4  -4   0  139.12    5.19
   4  -4   0  135.30    4.73
  -3   5  -1    1.96    1.45
  -3   5  -1    0.80    2.15
   3  -5   1   -0.80    1.53
   3  -5   1    2.44    1.78
  -2   6  -2  245.72    8.43
   2  -6   2  247.73    8.49
   2  -6   2  260.70    7.38
   1  -7   3  148.47    7.13
   1  -7   3  142.78    5.77
   0  -8   4   93.05    7.03
  -1  -9   5  157.36    9.74
  -2 -10   6   34.07    6.84
  -3 -11   7  115.16   12.83
  -4 -12   8  -10.66    9.43
 -10  -2   7  171.24   10.98
 -10  -2   7  158.47   12.60
  -9  -1   6   -2.10    4.07
  -9  -1   6    6.54    5.09
  -8   0   5  138.43    7.75
  -8   0   5  140.84    8.93
  -7   1   4   18.95    3.13
  -7   1   4   11.56    2.88
  -6   2   3  195.43    6.54
  -6   2   3  191.25    6.55
  -6   2   3  195.64    7.27
   6  -2  -3  202.91    6.29
  -5   3   2   41.29    2.67
  -5   3   2   41.17    2.48
  -5   3   2   43.13    3.23
  -4   4   1  712.16   15.70
  -4   4   1  704.11   16.77
  -4   4   1  702.42   15.92
   4  -4  -1  733.41   15.87
   4  -4  -1  696.33   16.80
  -3   5   0   26.04    2.22
  -3   5   0   22.63    2.72
   3  -5   0   26.73    2.35
   3  -5   0   23.48    1.90
  -2   6  -1  605.01   14.57
   2  -6   1  605.80   14.56
   2  -6   1  617.69   14.34
  -1   7  -2  456.71   12.01
   1  -7   2  459.77   11.46
   1  -7   2  438.54   12.14
   0  -8   3  128.07    6.26
  -1  -9   4  218.14    9.14
  -2 -10   5   13.19    4.34
  -3 -11   6  249.09   12.63
  -4 -12   7    7.54    7.09
  -5 -13   8   51.74   10.10
 -10  -2   8   66.11   10.31
 -10  -2   8   86.25   10.21
  -9  -1   7  -15.06    5.89
  -9  -1   7    3.03    4.99
  -8   0   6  293.55   12.14
  -8   0   6  287.42   11.42
  -7   1   5   48.47    5.70
  -7   1   5   48.62    4.91
  -6   2   4  400.34   11.82
  -6   2   4  410.93   11.60
  -5   3   3  390.38   10.95
  -5   3   3  405.01   10.37
   5  -3  -3  387.22    9.89
  -4   4   2  668.52   16.43
  -4   4   2  700.60   15.51
  -4   4   2  703.69   15.38
   4  -4  -2  698.68   15.29
  -3   5   1  107.19    2.82
  -3   5   1  110.40    2.93
  -3   5   1  103.98    3.97
   3  -5  -1  115.97    4.05
  -2   6   0  412.84    9.33
  -2   6   0  410.06   10.80
   2  -6   0  418.55    9.32
   2  -6   0  421.12   10.07
  -1   7  -1   84.54    3.31
   1  -7   1   91.34    3.50
   1  -7   1   93.61    3.64
   0   8  -2   92.98    4.06
  -1  -9   3   43.61    4.13
  -2 -10   4  152.90    7.28
  -3 -11   5   78.01    7.13
  -4 -12   6   -5.94    4.76
  -5 -13   7  140.69   12.16
  -6 -14   8   -0.25    8.75
  -9  -1   8   11.21    7.68
  -9  -1   8    2.13    5.58
  -8   0   7  200.72   10.11
  -8   0   7  192.92   11.80
  -7   1   6   -1.30    3.36
  -7   1   6    1.46    3.97
  -6   2   5  186.91    8.26
  -6   2   5  177.68    7.51
  -5   3   4   96.15    4.85
  -5   3   4   96.05    5.00
   5  -3  -4   92.69    4.63
  -4   4   3  329.69    9.27
   4  -4  -3  342.81    8.83
  -3   5   2   96.07    3.20
  -3   5   2   89.24    4.11
   3  -5  -2   96.56    3.06
   3  -5  -2   95.53    3.76
  -2   6   1  226.95    6.14
   2  -6  -1  232.83    6.14
  -1   7   0  339.09    7.50
   1  -7   0  346.67    8.38
   1  -7   0  338.88    7.62
   0   8  -1  415.34    9.81
   0  -8   1  413.90    9.98
   1   9  -2   71.18    3.40
  -1  -9   2   69.66    4.33
  -2 -10   3   42.37    3.67
  -3 -11   4  242.64    9.36
  -4 -12   5   17.28    4.33
  -5 -13   6  312.06   13.32
  -6 -14   7   13.18    6.82
  -9  -1   9   12.85    7.50
  -9  -1   9   33.18   11.04
  -8   0   8  160.20   13.83
  -8   0   8  153.20   10.41
  -7   1   7    2.45    4.34
  -7   1   7   13.66    5.96
  -6   2   6  256.51    9.76
  -6   2   6  256.47   10.96
  -5   3   5    5.54    2.50
  -5   3   5   -2.14    2.72
  -4   4   4  118.62    4.89
  -4   4   4  111.47    5.54
   4  -4  -4  112.95    5.35
  -3   5   3  534.67   12.91
  -3   5   3  527.14   13.33
   3  -5  -3  528.03   13.11
  -2   6   2  308.86    8.04
  -2   6   2  310.85    7.85
   2  -6  -2  315.31    7.98
   2  -6  -2  315.32    7.87
  -1   7   1  504.88   11.39
  -1   7   1  510.35   11.58
   1  -7  -1  509.90   11.46
   1  -7  -1  511.12   11.57
   0   8   0   61.64    2.47
   0  -8   0   61.87    2.37
   0  -8   0   63.09    2.51
   1   9  -1  119.77    3.86
  -1  -9   1  108.93    3.83
  -1  -9   1  116.60    3.94
   2  10  -2  294.82    8.06
  -2 -10   2  284.38    8.31
  -3 -11   3  330.10   10.07
  -4 -12   4    8.94    2.90
  -5 -13   5  271.78   11.36
  -6 -14   6    3.38    5.05
  -7 -15   7   93.42   10.98
  -8   0   9  157.77   11.93
  -8   0   9  124.12   13.73
  -7   1   8   11.95    7.55
  -7   1   8    4.18    5.03
  -6   2   7  203.83    9.37
  -6   2   7  198.16   11.62
  -5   3   6    1.11    2.75
  -5   3   6   -5.96    3.64
  -4   4   5  157.45    6.26
  -4   4   5  166.67    7.94
  -3   5   4  157.85    6.81
  -3   5   4  171.85    5.63
  -2   6   3   85.93    4.52
  -2   6   3   84.00    3.21
   2  -6  -3   78.75    4.34
  -1   7   2  482.34   10.98
  -1   7   2  481.17   12.08
   1  -7  -2  484.04   10.98
   1  -7  -2  490.00   12.15
   0   8   1  406.16   10.33
   0  -8  -1  427.42    9.68
   0  -8  -1  446.54   10.59
   1   9   0  857.78   19.27
  -1  -9   0  856.44   19.35
   2  10  -1   39.70    2.62
  -2 -10   1   36.28    2.69
  -2 -10   1   36.48    2.57
  -3 -11   2  394.21   10.80
  -4 -12   3   29.53    3.80
  -5 -13   4   24.93    3.75
  -6 -14   5    7.38    4.83
  -7 -15   6  137.65   10.17
  -8 -16   7   12.17    8.03
  -7   1   9   10.39   10.01
  -7   1   9    0.97    6.60
  -6   2   8  162.42   13.46
  -6   2   8  173.09    9.77
  -5   3   7   -0.13    3.49
  -5   3   7   13.88    5.84
  -4   4   6   96.86    7.63
  -4   4   6  105.40    5.69
  -3   5   5   38.42    4.63
  -3   5   5   39.20    3.38
  -2   6   4   41.82    2.61
  -2   6   4   40.21    4.64
  -1   7   3  170.08    6.68
  -1   7   3  169.23    4.57
   1  -7  -3  163.11    6.88
   0   8   2   92.75    4.56
   0  -8  -2  103.07    4.83
   1   9   1  247.14    7.46
  -1  -9  -1  267.38    7.87
   2  10   0   11.73    1.98
  -2 -10   0    9.91    1.87
   3  11  -1  422.64   11.46
  -3 -11   1  420.75   11.31
  -3 -11   1  431.15   12.65
  -4 -12   2   22.33    2.81
  -5 -13   3  204.44    8.17
  -6 -14   4    8.94    3.58
  -7 -15   5  318.83   13.15
  -8 -16   6    7.28    6.23
  -9 -17   7   77.97   11.54
  -5   3   8   13.19    5.30
  -5   3   8   16.65    7.48
  -4   4   7   74.26    6.31
  -4   4   7   77.90    9.52
  -3   5   6   20.47    5.27
  -3   5   6   22.61    3.21
  -2   6   5   74.80    6.89
  -1   7   4   94.06    3.22
  -1   7   4   96.60    6.31
   0   8   3  148.29    6.73
   1   9   2  880.33   21.54
   2  10   1   -0.31    1.66
   3  11   0  870.61   21.02
   4  12  -1    2.28    1.91
  -4 -12   1    0.34    1.72
  -5 -13   2  331.97   10.55
  -6 -14   3    8.44    3.13
  -7 -15   4  101.98    8.08
  -8 -16   5   15.83    5.87
  -9 -17   6   90.85   10.37
  -4   4   8  149.18   13.81
  -3   5   7   22.28    6.63
  -2   6   6  108.25    9.20
  -2   6   6   91.85    4.70
  -1   7   5  158.92    8.91
   0   8   4  109.86    7.25
   1   9   3  280.70   10.10
   2  10   2   17.14    3.17
   3  11   1  178.60    7.24
   4  12   0   37.12    4.31
   5  13  -1  179.61    7.66
  -5 -13   1  167.62    7.20
  -6 -14   2   11.03    3.31
  -7 -15   3  169.97    9.06
  -8 -16   4   33.16    5.71
  -9 -17   5   98.76   11.15
  -3   5   8   79.75   11.07
  -2   6   7   73.46    8.91
  -1   7   6   97.25    9.76
   0   8   5   12.39    5.19
   1   9   4  232.31   10.50
   2  10   3   58.64    6.46
   3  11   2   75.48    5.91
   4  12   1    2.94    3.11
   5  13   0  329.69   11.58
   6  14  -1   10.39    3.70
  -6 -14   1    7.70    3.39
  -7 -15   2  275.37   11.21
  -8 -16   3   14.08    5.13
  -9 -17   4   81.67   10.29
 -10 -18   5   64.90   12.38
  -1   7   7   52.59    9.52
   0   8   6   35.04    7.55
   1   9   5  195.35   11.83
   2  10   4   46.03    6.46
   3  11   3   80.70    7.78
   4  12   2   26.13    5.07
   5  13   1  254.24   10.62
   6  14   0   -1.18    3.82
  -6 -14   0   -0.55    2.79
  -6 -14   0    2.86    3.78
   7  15  -1  198.32   10.24
  -7 -15   1  162.27    9.27
  -8 -16   2   26.25    5.54
  -9 -17   3  102.05   10.43
 -10 -18   4   41.59   11.50
   1   9   6  159.13   12.97
   2  10   5   26.82    6.87
   3  11   4  125.29   10.77
   4  12   3   26.74    5.79
   5  13   2  120.82    9.23
   6  14   1   32.19    5.94
   7  15   0   97.69    9.58
  -7 -15   0   92.79    8.55
   8  16  -1   -3.96    5.76
  -8 -16   1    0.58    5.24
  -9 -17   2   80.62   10.15
   3  11   5  130.07   16.38
   4  12   4   10.94    6.98
   5  13   3  105.40   11.13
   6  14   2    5.15    6.00
   7  15   1   66.66    8.57
   8  16   0    9.36    6.76
  -8 -16   0    7.09    6.09
   8  -2   1  129.05   11.36
   7  -3   2   12.58    6.52
   6  -4   3  108.85   11.71
   5  -5   4   71.15    9.36
 -11  -1   3   11.31    6.34
 -10   0   2  303.95   12.59
  -9   1   1    3.24    4.35
  -9   1   1    0.41    4.76
   9  -1  -1    4.33    5.03
  -8   2   0  226.97    9.60
   8  -2   0  212.45   10.72
   7  -3   1   19.86    5.09
   6  -4   2   75.53    9.26
   5  -5   3   31.08    6.38
   4  -6   4   18.47    6.94
   3  -7   5   40.59    8.82
   2  -8   6   45.89   10.44
 -11  -1   4   14.51    6.28
 -10   0   3   96.78    8.13
 -10   0   3  108.45    8.58
  -9   1   2   15.18    4.46
  -9   1   2   18.71    3.90
  -8   2   1  170.40    7.56
  -8   2   1  161.47    7.90
   8  -2  -1  167.56    8.13
  -7   3   0    9.22    3.45
   7  -3   0   14.05    3.82
  -6   4  -1   86.47    5.92
   6  -4   1   83.47    6.96
   5  -5   2   71.66    7.22
   4  -6   3  128.65    9.30
   3  -7   4  174.00   11.10
   2  -8   5   28.11    7.43
   1  -9   6  179.43   14.61
 -11  -1   5  -16.10    5.57
 -10   0   4  156.65    9.58
 -10   0   4  164.41    9.26
  -9   1   3   23.93    3.81
  -9   1   3   28.83    4.74
  -8   2   2  245.57    8.34
  -8   2   2  229.27    9.29
  -7   3   1    4.58    2.19
  -7   3   1    4.20    2.67
   7  -3  -1    4.83    2.57
  -6   4   0  193.75    7.30
   6  -4   0  189.38    7.57
  -5   5  -1  106.35    5.58
   5  -5   1  109.57    6.05
   4  -6   2  141.75    7.47
   3  -7   3  131.14    8.22
   2  -8   4   71.69    8.31
   1  -9   5  184.89   11.83
   0 -10   6   21.72    7.72
  -1 -11   7   97.16   11.54
 -11  -1   6   10.20    5.99
 -11  -1   6   13.61    9.06
 -10   0   5  153.71    9.68
 -10   0   5  173.20    9.86
  -9   1   4    1.96    3.50
  -9   1   4    6.34    4.01
  -8   2   3  106.52    6.61
  -8   2   3   99.95    5.56
  -7   3   2    2.79    2.83
  -7   3   2    2.92    1.94
  -7   3   2    3.86    2.44
  -6   4   1  274.25    8.78
  -6   4   1  266.94    7.83
  -6   4   1  265.95    8.67
   6  -4  -1  267.54    8.10
  -5   5   0   72.19    4.26
  -5   5   0   84.94    5.25
   5  -5   0   70.52    4.26
  -4   6  -1  113.66    6.12
  -4   6  -1  120.84    5.17
   4  -6   1  118.03    5.48
   3  -7   2  302.27   10.14
   2  -8   3  107.15    7.06
   1  -9   4  243.91   11.06
  -1 -11   6  123.12   11.85
  -2 -12   7  -16.23    8.34
 -11  -1   7    3.08    8.00
 -11  -1   7    2.05    9.95
 -10   0   6  142.16    9.86
  -9   1   5   -1.09    3.91
  -9   1   5    5.41    3.95
  -8   2   4  131.39    6.75
  -8   2   4  146.35    7.43
  -7   3   3   38.15    3.59
  -7   3   3   36.75    4.01
  -7   3   3   44.78    4.66
  -6   4   2   81.26    4.71
  -6   4   2   78.94    4.12
  -5   5   1  194.69    6.02
  -5   5   1  187.92    6.56
  -5   5   1  185.89    5.46
   5  -5  -1  194.46    5.69
  -4   6   0   40.04    3.46
  -4   6   0   46.65    3.26
   4  -6   0   47.25    2.77
   4  -6   0   41.12    3.52
  -3   7  -1  129.96    4.98
  -3   7  -1  129.51    5.44
   3  -7   1  126.50    5.03
  -2   8  -2   62.48    4.72
   2  -8   2   65.04    4.82
   2  -8   2   60.63    3.93
   1  -9   3  281.13   10.06
   0 -10   4   64.48    6.89
  -1 -11   5  215.81   11.08
  -2 -12   6   47.07    7.47
  -3 -13   7  218.38   14.74
 -11  -1   8   -3.48    9.41
 -10   0   7  116.14   12.04
 -10   0   7   92.93    9.67
  -9   1   6    7.32    4.58
  -9   1   6   11.83    4.94
  -8   2   5  164.65    8.14
  -8   2   5  158.43    8.25
  -7   3   4   73.41    5.15
  -7   3   4   74.84    5.43
  -6   4   3  202.43    6.35
  -6   4   3  200.90    7.42
   6  -4  -3  206.21    6.22
  -5   5   2   98.89    4.61
  -5   5   2  102.97    3.60
  -5   5   2  108.31    3.65
  -4   6   1   99.45    3.32
  -4   6   1  100.03    4.28
  -4   6   1  100.15    3.02
   4  -6  -1  103.11    4.46
   4  -6  -1  100.93    3.09
  -3   7   0  391.96   10.27
  -3   7   0  405.24    9.59
   3  -7   0  391.64   10.28
   3  -7   0  403.39    9.39
  -2   8  -1  189.05    5.87
   2  -8   1  194.96    6.03
   2  -8   1  190.92    6.06
  -1   9  -2  871.12   20.28
   1  -9   2  842.38   20.02
   1  -9   2  855.36   20.59
   0 -10   3  170.93    7.38
  -1 -11   4  247.37    9.92
  -2 -12   5    9.96    4.59
  -3 -13   6  186.16   11.25
  -4 -14   7    6.58    7.01
 -10   0   8  176.36   11.93
 -10   0   8  176.69   15.13
  -9   1   7    3.44    5.01
  -9   1   7   -1.99    5.87
  -8   2   6  370.17   13.02
  -8   2   6  385.08   13.87
  -7   3   5   22.17    3.85
  -7   3   5   18.91    3.97
  -6   4   4  318.53   10.08
  -6   4   4  314.96    9.62
   6  -4  -4  306.51    8.92
  -5   5   3  122.25    4.91
  -5   5   3  118.14    5.15
   5  -5  -3  121.84    4.16
  -4   6   2  165.35    4.50
  -4   6   2  160.14    5.57
  -4   6   2  167.16    4.32
   4  -6  -2  148.10    5.54
   4  -6  -2  166.69    4.23
  -3   7   1  281.80    7.83
   3  -7  -1  280.75    7.74
  -2   8   0    4.50    0.78
   2  -8   0    4.78    1.39
   2  -8   0    6.48    1.01
  -1   9  -1  266.79    6.97
   1  -9   1  263.49    7.19
   1  -9   1  264.74    7.55
   0  10  -2  111.00    4.45
   0 -10   2  110.97    4.88
  -1 -11   3   88.82    5.21
  -2 -12   4   10.23    3.31
  -3 -13   5  238.09   10.99
  -4 -14   6   34.18    6.00
  -5 -15   7  147.54   12.24
  -9   1   8    3.08    5.80
  -9   1   8   -9.80    7.33
  -8   2   7  198.27   11.66
  -8   2   7  203.58   10.25
  -7   3   6   54.71    5.52
  -7   3   6   62.11    6.90
  -6   4   5  218.57    8.84
  -6   4   5  211.98    8.09
  -5   5   4   81.19    4.85
  -5   5   4   88.52    4.69
   5  -5  -4   85.73    4.44
  -4   6   3  137.34    4.91
  -4   6   3  138.99    5.20
   4  -6  -3  143.34    4.65
  -3   7   2   70.02    2.65
  -3   7   2   64.70    3.17
   3  -7  -2   64.23    2.45
   3  -7  -2   59.30    3.13
  -2   8   1   22.33    1.98
   2  -8  -1   18.79    1.89
  -1   9   0  794.66   17.79
   1  -9   0  823.69   17.82
   1  -9   0  836.26   18.47
   0  10  -1   28.58    1.99
   0 -10   1   23.20    2.01
   1  11  -2  416.58   10.59
  -1 -11   2  399.35   10.90
  -2 -12   3    2.64    2.07
  -3 -13   4  291.41   10.58
  -4 -14   5    3.79    4.06
  -5 -15   6  136.99   10.43
  -6 -16   7   13.81    7.08
  -9   1   9   19.23    7.52
  -9   1   9   26.32   10.52
  -8   2   8  112.94   12.44
  -8   2   8   93.23    9.29
  -7   3   7   91.08    7.35
  -7   3   7   73.03   11.11
  -6   4   6  227.90    9.02
  -6   4   6  226.53   10.38
  -5   5   5    9.24    3.21
  -5   5   5    8.76    2.47
  -4   6   4  416.87   11.30
  -4   6   4  427.73   12.02
   4  -6  -4  415.32   11.58
  -3   7   3  480.10   11.92
  -3   7   3  489.02   12.37
   3  -7  -3  466.32   12.05
  -2   8   2  437.51   10.68
   2  -8  -2  435.64   10.76
   2  -8  -2  454.09   10.73
  -1   9   1  114.93    3.80
  -1   9   1  112.63    3.51
   1  -9  -1  118.60    3.72
   1  -9  -1  122.67    3.89
   0  10   0    9.51    1.27
   0 -10   0   10.00    1.18
   0 -10   0   13.04    1.71
   0 -10   0    8.34    1.32
   1  11  -1  233.15    6.49
  -1 -11   1  236.68    6.65
  -1 -11   1  229.80    6.62
   2  12  -2   69.13    3.61
  -2 -12   2   72.10    3.87
  -3 -13   3  126.89    5.89
  -4 -14   4   34.08    4.52
  -5 -15   5  165.74   12.26
  -6 -16   6   41.81    7.00
  -7 -17   7  100.47   10.35
  -8   2   9  133.97   16.61
  -8   2   9  130.91   11.91
  -7   3   8    5.38    5.06
  -7   3   8   13.78    7.79
  -6   4   7  183.74    8.82
  -6   4   7  175.54   11.39
  -5   5   6   83.65    5.61
  -5   5   6   84.84    7.53
  -4   6   5  371.22   12.08
  -4   6   5  347.39   10.28
  -3   7   4  294.62    9.63
  -3   7   4  281.19    8.15
  -2   8   3  301.94    9.29
  -2   8   3  325.20    9.15
   2  -8  -3  307.51    9.32
  -1   9   2   69.72    3.47
  -1   9   2   75.55    2.82
   1  -9  -2   74.90    2.85
   1  -9  -2   69.90    3.76
   0  10   1   25.27    2.50
   0 -10  -1   25.02    2.45
   0 -10  -1   24.46    1.87
   1  11   0  249.32    7.07
  -1 -11   0  252.90    7.24
  -1 -11   0  250.01    6.93
  -2 -12   1  109.71    4.32
  -2 -12   1  103.99    4.47
  -3 -13   2  190.36    6.82
  -4 -14   3   50.47    4.41
  -5 -15   4  149.41    7.63
  -6 -16   5   41.90    5.78
  -7 -17   6  132.02   11.44
  -8 -18   7   49.15    9.49
  -7   3   9   11.92    9.67
  -7   3   9   32.94    7.77
  -6   4   8  124.14    8.92
  -6   4   8   95.24   12.18
  -5   5   7   59.28    6.24
  -5   5   7   54.41    7.29
  -4   6   6   75.15    7.49
  -4   6   6   69.55    5.07
  -3   7   5  152.57    5.85
  -3   7   5  171.63    8.43
  -2   8   4   93.27    5.82
  -2   8   4   93.39    3.67
  -1   9   3   52.21    4.20
  -1   9   3   53.41    2.44
   1  -9  -3   54.57    5.16
   0  10   2  119.31    5.22
   0 -10  -2  122.91    3.49
   0 -10  -2  111.16    5.33
   1  11   1  260.51    7.95
  -1 -11  -1  261.84    8.21
  -1 -11  -1  272.73    6.78
   2  12   0   21.09    2.51
  -2 -12   0   14.72    2.44
   3  13  -1  254.96    8.34
  -3 -13   1  260.00    8.11
  -4 -14   2   -2.01    1.80
  -5 -15   3  148.69    7.25
  -6 -16   4  165.12    9.97
  -7 -17   5  207.14   11.21
  -8 -18   6   46.09    8.07
  -6   4   9   60.51   19.55
  -5   5   8  102.64   12.42
  -4   6   7   53.95    5.94
  -4   6   7   57.49    7.74
  -3   7   6  145.00    6.12
  -3   7   6  159.66    9.74
  -2   8   5   57.61    6.53
  -2   8   5   41.42    3.36
  -1   9   4  231.57    9.36
   0  10   3  167.20    7.27
   1  11   2  368.09   11.06
   2  12   1   99.81    4.92
   3  13   0  200.99    7.40
   4  14  -1    9.24    2.59
  -4 -14   1   10.93    2.43
  -5 -15   2  231.11    8.66
  -6 -16   3  219.56    9.59
  -7 -17   4  104.47    8.80
  -8 -18   5   38.78    6.95
  -9 -19   6   47.31    9.03
  -4   6   8   81.72   10.35
  -3   7   7   28.49    6.99
  -2   8   6   28.25    5.98
  -1   9   5  163.98    9.30
   0  10   4   59.31    6.37
   1  11   3  351.59   12.01
   2  12   2    9.32    2.90
   3  13   1  342.44   11.04
   4  14   0    9.67    3.03
   5  15  -1  142.79    7.31
  -5 -15   1  146.58    6.95
  -6 -16   2   54.91    5.92
  -7 -17   3   73.03    7.52
  -8 -18   4   49.44    6.97
  -9 -19   5   73.92    9.07
  -3   7   8   60.48   10.00
  -2   8   7    7.16    7.01
  -1   9   6  164.96   11.10
   0  10   5   -0.75    4.76
   1  11   4  372.51   15.22
   2  12   3    1.58    3.46
   3  13   2  168.46    8.23
   4  14   1   -1.73    3.11
   5  15   0  233.97   10.06
  -5 -15   0  248.15    9.70
   6  16  -1    8.50    3.80
  -6 -16   1    5.14    3.48
  -7 -17   2   83.18    7.81
  -8 -18   3   73.41    8.97
  -9 -19   4  126.26   11.87
  -1   9   7  115.42   13.00
   0  10   6   32.37    7.33
   1  11   5  192.96   11.77
   2  12   4   -2.63    4.54
   3  13   3  218.36   10.61
   4  14   2   -0.65    3.95
   5  15   1  219.54   10.45
   6  16   0   11.04    4.47
  -6 -16   0    8.10    3.19
  -6 -16   0   -1.60    3.93
   7  17  -1   79.88    8.78
  -7 -17   1  111.74    8.24
  -8 -18   2   38.41    6.42
  -9 -19   3   96.82   11.19
   1  11   6  130.69   12.68
   2  12   5   14.28    6.61
   3  13   4  190.32   11.87
   4  14   3    2.66    5.63
   5  15   2  130.93   10.18
   6  16   1    4.77    5.14
   7  17   0  143.87   10.36
  -7 -17   0  121.85    9.54
   8  18  -1    0.31    6.27
  -8 -18   1   13.85    6.12
  -9 -19   2   59.97    8.58
   4  14   4    8.34    7.37
   5  15   3  109.97   11.65
   6  16   2   19.89    6.81
   7  17   1   43.76    7.96
  -7 -17  -1   64.47    8.35
   6  -6   3  148.94   12.34
   5  -7   4  124.36   13.90
 -11   1   3    8.25    6.41
 -10   2   2  183.64   10.71
  -9   3   1   24.45    5.47
  -8   4   0  182.53    9.23
   8  -4   0  172.54    9.87
  -7   5  -1  118.01    7.78
   7  -5   1   94.47    8.46
   6  -6   2  106.82    9.03
   5  -7   3   79.01    8.26
   4  -8   4   20.83    7.26
   3  -9   5   33.76    8.53
   2 -10   6    3.99    9.89
 -11   1   4    5.44    5.87
 -10   2   3   77.27    8.30
  -9   3   2   42.24    4.66
  -9   3   2   37.92    5.36
  -8   4   1  118.02    7.45
  -8   4   1  118.31    6.37
   8  -4  -1  111.94    6.88
  -7   5   0   54.31    5.49
   7  -5   0   52.19    5.95
  -6   6  -1  112.93    6.73
   6  -6   1  111.16    7.25
   5  -7   2  192.34    9.51
   4  -8   3  141.16    9.34
   3  -9   4  107.51   10.51
   2 -10   5   27.23    7.40
   1 -11   6  136.13   14.05
 -11   1   5   10.34    6.06
 -10   2   4  202.24   10.35
  -9   3   3   15.66    4.13
  -9   3   3    9.59    3.43
  -8   4   2  134.00    5.96
  -8   4   2  128.83    7.14
  -7   5   1   86.76    4.73
  -7   5   1   86.72    5.92
   7  -5  -1   87.07    5.28
  -6   6   0  103.13    5.69
   6  -6   0   96.87    5.49
  -5   7  -1  143.05    6.49
   5  -7   1  135.72    6.62
   4  -8   2  101.71    6.66
   3  -9   3   81.31    7.34
   2 -10   4   79.91    9.02
   1 -11   5  222.88   13.00
   0 -12   6   -0.81    7.49
  -1 -13   7  118.08   15.26
 -11   1   6   21.40    6.71
 -10   2   5  158.48    9.96
 -10   2   5  157.22    9.51
  -9   3   4   21.71    4.00
  -9   3   4   22.70    4.74
  -8   4   3  133.76    5.90
  -8   4   3  127.09    7.03
  -7   5   2   81.15    5.30
  -7   5   2   97.56    4.52
  -7   5   2   98.09    5.72
  -6   6   1   43.85    4.10
  -6   6   1   39.69    4.30
  -6   6   1   45.49    4.98
   6  -6  -1   35.32    4.17
  -5   7   0   80.55    4.58
  -5   7   0   70.16    4.98
   5  -7   0   77.12    4.29
  -4   8  -1   32.54    3.78
  -4   8  -1   32.76    3.61
   4  -8   1   30.95    3.86
   3  -9   2  294.15   10.01
   2 -10   3   46.89    5.32
   1 -11   4  378.11   13.79
   0 -12   5    4.97    5.68
  -1 -13   6  146.00   12.70
  -2 -14   7   17.62    9.05
 -11   1   7    6.54    9.91
 -10   2   6  139.93    9.60
 -10   2   6  169.81   10.90
  -9   3   5    7.76    4.11
  -9   3   5   11.75    3.95
  -8   4   4  118.55    6.22
  -8   4   4  111.45    7.37
  -7   5   3   74.93    5.23
  -7   5   3   88.07    4.58
  -7   5   3   85.41    4.46
  -6   6   2   41.43    3.15
  -6   6   2   38.42    2.59
  -6   6   2   36.66    3.92
  -5   7   1   58.39    3.32
  -5   7   1   58.96    3.99
  -5   7   1   63.89    2.60
   5  -7  -1   63.28    2.81
  -4   8   0   28.93    3.04
  -4   8   0   36.44    3.17
   4  -8   0   33.80    2.50
  -3   9  -1  216.80    7.06
   3  -9   1  221.27    6.99
  -2  10  -2   22.59    3.17
   2 -10   2   22.32    3.34
   1 -11   3  339.46   11.45
   0 -12   4   47.22    5.70
  -1 -13   5  155.38   10.39
  -2 -14   6   -5.53    6.61
  -3 -15   7  197.52   15.46
 -10   2   7  178.24   12.85
 -10   2   7  158.85   10.81
  -9   3   6   -6.13    3.98
  -9   3   6   10.25    5.13
  -8   4   5   91.62    6.72
  -8   4   5   92.53    6.77
  -7   5   4  174.27    7.10
  -7   5   4  178.23    6.70
  -7   5   4  190.65    7.82
   7  -5  -4  176.67    6.36
  -6   6   3  223.38    8.05
  -6   6   3  231.71    6.60
  -5   7   2   46.61    3.65
  -5   7   2   41.76    2.16
  -5   7   2   42.75    2.25
  -4   8   1   85.47    4.22
  -3   9   0  607.87   13.37
  -3   9   0  598.65   14.72
   3  -9   0  614.53   13.35
   3  -9   0  571.13   14.55
  -2  10  -1    0.66    1.45
   2 -10   1    1.82    1.67
   2 -10   1    1.89    1.78
  -1  11  -2  383.75   10.40
   1 -11   2  369.09   10.86
   0 -12   3    3.46    2.88
  -1 -13   4  364.78   12.72
  -2 -14   5    5.81    4.82
  -3 -15   6  205.30   12.00
  -4 -16   7   18.03    8.02
 -10   2   8   90.31   10.60
 -10   2   8   95.14   10.54
  -9   3   7    6.65    6.39
  -9   3   7    3.29    4.85
  -8   4   6  144.14    9.04
  -8   4   6  155.80    8.56
  -7   5   5   32.55    4.49
  -7   5   5   36.45    4.18
  -6   6   4  237.63    8.43
  -6   6   4  241.10    8.10
   6  -6  -4  237.26    7.31
  -5   7   3  215.57    6.34
  -5   7   3  214.93    7.38
   5  -7  -3  214.62    5.89
  -4   8   2  124.40    3.26
  -4   8   2  126.78    3.49
  -4   8   2  123.75    4.93
  -3   9   1  467.85   11.69
   3  -9  -1  444.00   11.49
  -2  10   0   11.36    1.09
  -2  10   0   13.00    1.96
   2 -10   0    9.38    1.78
   2 -10   0   11.78    1.21
  -1  11  -1  273.60    7.14
   1 -11   1  277.53    7.45
   1 -11   1  261.58    7.98
   0  12  -2    5.93    1.89
   0 -12   2    7.62    2.17
  -1 -13   3  259.48    9.07
  -2 -14   4    3.97    3.29
  -3 -15   5  184.54   10.30
  -4 -16   6    8.36    6.05
  -5 -17   7  106.16   12.74
  -9   3   8   11.95    6.24
  -9   3   8    6.92    7.93
  -8   4   7  176.60   13.69
  -8   4   7  158.86    9.50
  -7   5   6   66.01    6.34
  -7   5   6   60.85    7.09
  -6   6   5   49.91    5.40
  -6   6   5   59.07    4.83
  -5   7   4  311.61    9.37
  -5   7   4  291.38    9.23
   5  -7  -4  299.40    8.74
  -4   8   3  139.52    5.33
  -4   8   3  136.67    4.91
   4  -8  -3  135.70    4.63
  -3   9   2  606.90   13.58
  -3   9   2  579.54   14.30
   3  -9  -2  591.38   13.09
   3  -9  -2  574.09   14.18
  -2  10   1   35.85    2.59
  -2  10   1   35.50    1.38
   2 -10  -1   36.91    1.32
   2 -10  -1   39.60    2.61
   2 -10  -1   37.77    1.64
  -1  11   0  246.29    6.13
   1 -11   0  252.16    7.22
   1 -11   0  253.21    6.24
   1 -11   0  255.48    6.28
   0  12  -1   20.42    1.92
   0 -12   1   17.36    2.05
   1  13  -2  167.60    5.78
  -1 -13   2  167.81    6.20
  -2 -14   3   26.98    3.51
  -3 -15   4  248.22    9.89
  -4 -16   5   13.62    5.73
  -5 -17   6  110.39   10.42
  -6 -18   7   34.97    8.51
  -9   3   9   38.45    8.13
  -9   3   9   65.77   11.73
  -8   4   8   65.97    9.31
  -8   4   8   71.17    7.56
  -7   5   7   45.61    5.72
  -7   5   7   39.76    7.76
  -6   6   6   47.13    5.39
  -6   6   6   54.73    6.86
  -5   7   5  122.96    5.99
  -5   7   5  119.01    7.06
  -4   8   4  236.56    8.18
  -4   8   4  238.63    7.63
   4  -8  -4  236.27    8.00
  -3   9   3  249.46    7.39
  -3   9   3  257.96    7.72
   3  -9  -3  256.52    7.59
   3  -9  -3  247.51    7.50
  -2  10   2  305.66    7.91
  -2  10   2  278.26    8.77
   2 -10  -2  325.84    8.21
   2 -10  -2  311.24    8.06
  -1  11   1  238.83    6.65
  -1  11   1  241.05    6.26
   1 -11  -1  236.91    6.46
   1 -11  -1  242.06    6.67
   0  12   0   24.73    2.07
   0 -12   0   24.73    2.26
   0 -12   0   24.11    1.89
   0 -12   0   25.23    2.56
   1  13  -1  962.57   21.56
  -1 -13   1  978.99   21.83
  -1 -13   1  930.07   21.73
  -2 -14   2   16.19    2.45
  -3 -15   3  108.63    5.67
  -4 -16   4   60.50    6.23
  -5 -17   5  127.36    9.17
  -6 -18   6   22.34    6.80
  -7 -19   7   72.99    9.88
  -8   4   9   85.57    9.08
  -8   4   9  124.80   15.86
  -7   5   8   52.39    8.79
  -7   5   8   56.30    6.84
  -6   6   7  133.52   11.58
  -6   6   7  135.69    8.07
  -5   7   6  206.95    8.06
  -5   7   6  185.54   10.04
  -4   8   5  152.15    6.05
  -4   8   5  149.25    7.65
  -3   9   4  365.15   11.29
  -3   9   4  374.07    9.95
  -2  10   3   34.31    3.61
  -2  10   3   35.57    2.44
   2 -10  -3   34.25    2.81
   2 -10  -3   37.22    3.98
  -1  11   2  399.60   11.54
  -1  11   2  424.91   10.17
   1 -11  -2  432.39   10.13
   1 -11  -2  422.13   11.19
   0  12   1   16.18    1.88
   0 -12  -1   21.33    2.17
   0 -12  -1   17.41    2.25
   1  13   0  493.17   12.39
  -1 -13   0  490.68   12.61
  -1 -13   0  505.95   12.25
  -2 -14   1    2.61    1.92
  -2 -14   1   -1.36    1.27
  -3 -15   2   81.00    4.73
  -4 -16   3   24.97    3.68
  -5 -17   4   75.71    6.49
  -6 -18   5   92.90    8.51
  -7 -19   6   79.94    9.13
  -7   5   9   68.46   11.05
  -6   6   8   91.17    8.79
  -6   6   8   91.92   10.26
  -5   7   7  121.21    7.51
  -5   7   7  128.03   10.20
  -4   8   6   27.82    5.25
  -4   8   6   40.18    4.65
  -3   9   5  128.18    7.46
  -3   9   5  125.42    5.25
  -2  10   4  163.38    5.26
  -2  10   4  169.45    7.41
  -1  11   3   91.02    3.34
  -1  11   3   95.94    5.22
   0  12   2    9.07    2.06
   0 -12  -2    5.05    2.55
   0 -12  -2    7.99    1.36
   1  13   1  406.05   11.07
  -1 -13  -1  385.68   11.39
  -1 -13  -1  426.19   10.03
   2  14   0   10.06    2.12
  -2 -14   0   12.20    2.10
   3  15  -1   90.62    4.94
  -3 -15   1   79.86    4.57
  -4 -16   2   30.18    3.89
  -5 -17   3  222.35    9.28
  -6 -18   4  114.62    8.15
  -7 -19   5   95.26    9.92
  -8 -20   6  101.99   12.40
  -5   7   8  169.13   13.59
  -4   8   7   94.47   10.17
  -4   8   7   92.21    6.48
  -3   9   6  155.13    6.27
  -3   9   6  150.46    9.83
  -2  10   5   10.24    3.93
  -2  10   5    8.98    1.97
  -1  11   4  285.86   10.62
   0  12   3    3.66    2.71
   1  13   2  106.20    5.58
   2  14   1   -0.16    2.00
   3  15   0  394.11   11.75
  -3 -15   0  400.20   11.59
   4  16  -1    6.66    2.79
  -4 -16   1    6.64    2.47
  -5 -17   2  445.27   13.60
  -6 -18   3  129.88    8.13
  -7 -19   4   57.70    6.82
  -8 -20   5   91.04   10.51
  -4   8   8   63.82   10.17
  -3   9   7  128.40   11.29
  -2  10   6   24.27    5.96
  -1  11   5  242.20   11.01
   0  12   4   35.45    4.86
   1  13   3   84.86    6.43
   2  14   2   34.06    4.26
   3  15   1  315.77   10.70
   4  16   0   56.18    5.60
  -4 -16   0   64.17    5.39
   5  17  -1  155.17    8.13
  -5 -17   1  133.92    7.22
  -6 -18   2  119.85    7.65
  -7 -19   3   79.46    8.24
  -8 -20   4   65.47    7.67
  -9 -21   5   17.92    7.90
  -3   9   8  146.15   14.67
  -2  10   7    7.88    7.31
  -1  11   6  139.17   11.03
   0  12   5   -0.18    4.87
   1  13   4   91.64    8.20
   2  14   3   25.45    4.73
   3  15   2  129.87    7.64
   4  16   1   65.35    6.23
   5  17   0  256.44   10.70
  -5 -17   0  260.73   10.33
   6  18  -1   39.70    5.40
  -6 -18   1   35.15    5.16
  -7 -19   2  110.68    8.54
  -8 -20   3  100.24   10.00
  -9 -21   4  116.71   12.68
  -1  11   7   87.23   10.75
   0  12   6   11.94    6.94
   1  13   5  134.12   10.58
   2  14   4    2.21    5.21
   3  15   3  248.07   11.68
   4  16   2   50.81    6.36
   5  17   1  124.47    8.50
   6  18   0  101.00    8.07
  -6 -18   0   89.90    7.88
   7  19  -1   53.89    7.12
  -7 -19   1   56.16    6.74
  -8 -20   2   98.10    9.84
  -9 -21   3   78.02    9.84
   1  13   6  175.74   14.50
   2  14   5   10.14    7.14
   3  15   4  178.75   12.45
   4  16   3   43.48    6.95
   5  17   2   57.74    7.36
   6  18   1   34.82    6.73
   7  19   0   69.91    7.97
  -7 -19   0   59.61    7.49
   8  20  -1   41.26    7.96
  -8 -20   1   61.66    7.99
   6  18   2   44.85   13.75
 -11   3   3   39.71    7.24
 -10   4   2  139.59   10.38
  -9   5   1   15.34    5.41
  -8   6   0   60.95    7.41
   7  -7   1  116.84    8.83
   6  -8   2   69.23    8.73
   5  -9   3   81.85   10.53
   4 -10   4   15.00    7.14
   3 -11   5  128.99   14.42
 -11   3   4   39.05    6.96
 -10   4   3   65.29    7.00
  -9   5   2   45.80    5.79
  -8   6   1   62.74    5.26
   8  -6  -1   65.71    5.95
  -7   7   0   87.88    6.63
   7  -7   0   98.20    6.56
  -6   8  -1   72.99    6.18
   6  -8   1   61.40    6.36
   5  -9   2  146.74    8.89
   4 -10   3   41.86    6.21
   3 -11   4  129.68   11.44
   2 -12   5   -3.76    7.25
   1 -13   6  168.20   16.09
 -11   3   5   43.02    7.09
 -10   4   4   81.71    8.15
  -9   5   3   37.70    5.30
  -9   5   3   35.85    4.86
  -8   6   2  159.14    6.28
  -8   6   2  161.12    8.90
  -7   7   1  152.16    7.34
  -7   7   1  140.46    5.63
   7  -7  -1  145.84    5.99
  -6   8   0  183.92   10.71
  -6   8   0  157.72    7.19
   6  -8   0  154.66    6.53
  -5   9  -1  150.71    6.95
   5  -9   1  152.50    6.92
   4 -10   2   40.87    4.76
   3 -11   3   90.75    8.26
   2 -12   4   -7.03    5.14
   1 -13   5  149.65   12.16
   0 -14   6   -6.60    7.93
  -1 -15   7   81.96   12.21
 -11   3   6    0.21    5.82
 -10   4   5  155.25    9.86
  -9   5   4   75.20    7.11
  -9   5   4   74.25    6.04
  -8   6   3  258.04    8.25
  -8   6   3  266.38   11.17
  -7   7   2  352.39    9.86
  -7   7   2  356.24   11.33
  -7   7   2  335.43    9.11
  -6   8   1   68.10    4.44
  -6   8   1   57.09    3.64
  -6   8   1   67.52    4.93
   6  -8  -1   62.54    4.71
  -5   9   0  193.73    7.25
  -5   9   0  191.92    6.85
   5  -9   0  184.48    6.09
  -4  10  -1   36.74    4.58
   4 -10   1   36.97    4.24
   3 -11   2   71.34    5.87
   2 -12   3   -0.93    3.77
   1 -13   4   77.12    8.38
   0 -14   5   17.52    6.31
  -1 -15   6  108.77   10.87
  -2 -16   7   27.93   10.16
 -10   4   6  116.88    9.52
  -9   5   5   42.43    5.49
  -9   5   5   40.06    4.86
  -8   6   4  111.31   10.42
  -8   6   4  119.36    6.12
  -7   7   3  199.07    6.45
  -7   7   3  203.29    8.19
  -7   7   3  202.72    6.35
  -6   8   2   38.84    2.87
  -6   8   2   42.53    4.22
  -6   8   2   36.53    2.40
  -5   9   1   94.69    5.03
  -5   9   1   97.53    2.97
  -4  10   0   41.19    2.96
  -4  10   0   50.37    3.85
   4 -10   0   48.76    2.75
  -3  11  -1  182.52    6.12
   3 -11   1  176.74    6.23
  -2  12  -2    8.98    2.79
   2 -12   2   13.62    2.95
   1 -13   3   79.76    6.35
   0 -14   4    5.57    4.56
  -2 -16   6   41.63    8.06
  -3 -17   7  153.29   15.34
 -10   4   7  100.28    9.49
 -10   4   7   79.87   12.99
  -9   5   6   64.58    6.75
  -9   5   6   59.15    6.50
  -8   6   5   89.42    6.96
  -8   6   5   83.88    6.66
  -7   7   4  193.38    7.28
  -7   7   4  195.26    6.64
  -7   7   4  200.34    8.34
   7  -7  -4  196.19    6.43
  -6   8   3   62.48    3.02
  -6   8   3   60.58    4.60
  -6   8   3   55.12    3.28
  -5   9   2  359.58   10.55
  -4  10   1   13.50    2.36
  -3  11   0  970.37   20.03
  -3  11   0  876.76   21.48
   3 -11   0  896.68   20.12
  -2  12  -1  103.64    4.07
   2 -12   1  106.57    4.46
  -1  13  -2  101.72    4.75
   1 -13   2   97.49    5.33
   0 -14   3    5.41    3.27
  -1 -15   4  278.44   11.27
  -2 -16   5   44.09    7.36
  -3 -17   6   65.14    8.65
  -4 -18   7   29.14    9.10
 -10   4   8  147.49   11.44
  -9   5   7   57.46    8.04
  -9   5   7   52.13    6.62
  -8   6   6   96.90    7.27
  -8   6   6   84.42    7.94
  -7   7   5   69.40    5.93
  -7   7   5   71.49    6.00
  -6   8   4   49.95    4.24
  -6   8   4   38.61    4.43
   6  -8  -4   44.64    3.57
  -5   9   3  277.85    8.89
  -5   9   3  282.23    7.49
   5  -9  -3  274.38    6.98
  -4  10   2  276.15    8.38
  -3  11   1  414.17   10.85
   3 -11  -1  392.58   12.12
  -2  12   0   21.08    1.35
  -2  12   0   23.26    2.55
   2 -12   0   21.85    1.95
   2 -12   0   18.60    1.49
   2 -12   0   20.87    2.53
  -1  13  -1  422.14   10.30
   1 -13   1  418.58   10.63
   0  14  -2   45.49    3.39
   0 -14   2   40.17    3.90
  -1 -15   3  122.42    6.56
  -2 -16   4   75.71    6.81
  -4 -18   6   14.02    6.82
  -5 -19   7   36.83    9.01
  -9   5   8   16.86    8.02
  -9   5   8   35.99    6.67
  -8   6   7   43.04    6.04
  -8   6   7   27.13    6.67
  -7   7   6   91.68    7.91
  -7   7   6   77.75    6.74
  -6   8   5   47.57    4.87
  -6   8   5   39.45    4.40
  -5   9   4  234.21    7.88
  -5   9   4  237.08    8.04
   5  -9  -4  225.67    7.29
  -4  10   3    3.47    1.60
  -4  10   3    1.95    1.81
   4 -10  -3    2.06    1.51
  -3  11   2  425.93   11.06
  -3  11   2  405.92    9.59
   3 -11  -2  399.42   10.78
   3 -11  -2  426.36    9.63
  -2  12   1  112.07    4.47
   2 -12  -1  110.84    4.37
   2 -12  -1  112.67    3.54
   1 -13   0  504.13   11.58
   1 -13   0  486.89   12.62
   1 -13   0  511.85   11.63
   0  14  -1    3.02    1.28
   0 -14   1    0.86    1.30
   0 -14   1    1.99    1.41
   1  15  -2  478.97   12.75
  -1 -15   2  517.69   13.37
  -2 -16   3    3.64    2.70
  -3 -17   4  244.63   10.25
  -4 -18   5   16.72    5.39
  -5 -19   6   49.79    7.79
  -6 -20   7   64.17   10.16
  -8   6   8   17.35    8.18
  -8   6   8   11.09    5.81
  -7   7   7   50.35    5.75
  -7   7   7   35.70    6.72
  -6   8   6   -3.55    4.13
  -6   8   6    0.42    3.14
  -5   9   5  194.31    7.56
  -5   9   5  206.24    8.49
  -4  10   4   51.33    4.73
  -4  10   4   52.53    3.82
   4 -10  -4   58.70    4.55
  -3  11   3  367.36    9.75
  -3  11   3  352.21    9.69
   3 -11  -3  364.30    9.84
   3 -11  -3  342.05    9.64
  -2  12   2   69.36    3.13
  -2  12   2   65.15    3.44
   2 -12  -2   69.32    3.48
   2 -12  -2   72.45    3.69
  -1  13   1  968.32   21.30
   1 -13  -1  957.01   21.86
   1 -13  -1  977.47   21.62
   0 -14   0    2.79    1.14
   0 -14   0   -0.90    1.77
   0 -14   0    2.69    1.57
   1  15  -1  786.64   18.26
  -1 -15   1  788.93   18.53
  -1 -15   1  764.60   18.40
  -2 -16   2   21.60    2.86
  -3 -17   3  151.12    6.97
  -4 -18   4   70.15    6.95
  -5 -19   5  113.18    9.45
  -6 -20   6   30.89    7.30
  -7 -21   7   -4.76   11.30
  -8   6   9   47.33   11.11
  -8   6   9   49.70    7.78
  -7   7   8   86.18    9.84
  -7   7   8   75.29    7.25
  -6   8   7   62.90    6.78
  -5   9   6  436.57   12.85
  -5   9   6  439.20   14.72
  -4  10   5   54.57    5.61
  -4  10   5   46.91    4.26
  -3  11   4  258.43    7.67
  -3  11   4  247.53    8.85
  -2  12   3    1.00    1.61
  -2  12   3    1.72    1.91
   2 -12  -3    5.62    1.76
   2 -12  -3    0.79    2.54
  -1  13   2  167.73    5.89
  -1  13   2  166.13    5.34
   1 -13  -2  186.63    6.51
   1 -13  -2  171.12    5.35
   0  14   1    3.59    1.52
   0 -14  -1    1.52    1.58
   0 -14  -1   -1.82    1.76
   1  15   0  308.32    8.83
  -1 -15   0  315.38    9.23
  -1 -15   0  315.48    8.74
  -2 -16   1   82.99    4.29
  -3 -17   2  316.18   10.10
  -4 -18   3   76.64    5.96
  -5 -19   4  159.72   12.84
  -6 -20   5   30.18    6.05
  -7 -21   6   12.18    7.42
  -7   7   9   79.28   11.68
  -6   8   8   76.84    8.87
  -6   8   8  102.86   13.12
  -5   9   7   95.68    9.98
  -5   9   7   78.66    6.72
  -4  10   6   -3.85    4.15
  -4  10   6   -1.96    2.89
  -3  11   5   79.91    6.72
  -3  11   5   81.98    4.53
  -2  12   4   12.41    2.23
  -2  12   4   11.59    3.24
  -1  13   3  266.06    8.95
   1 -13  -3  268.03    7.12
   0  14   2   38.67    3.63
   0 -14  -2   43.43    2.71
   1  15   1  327.40    9.81
  -1 -15  -1  344.92    9.00
   2  16   0   75.31    4.49
  -2 -16   0   76.99    4.28
   3  17  -1  220.53    8.14
  -3 -17   1  230.67    8.01
  -4 -18   2  140.90    6.84
  -5 -19   3  231.27    9.91
  -6 -20   4   61.26    6.94
  -7 -21   5   36.35    6.41
  -8 -22   6   39.53    9.15
  -5   9   8   80.25    9.97
  -4  10   7    7.19    6.27
  -3  11   6  232.84    7.73
  -2  12   5    8.60    4.28
  -1  13   4  377.75   12.63
   0  14   3   -0.21    2.83
   1  15   2   81.27    5.31
  -1 -15  -2   79.04    3.28
   2  16   1   32.52    4.19
   3  17   0  238.88    8.80
  -3 -17   0  246.56    8.64
   4  18  -1   50.58    5.42
  -4 -18   1   51.25    4.78
  -5 -19   2  151.62    7.99
  -6 -20   3   88.56    7.38
  -7 -21   4   99.79    9.91
  -8 -22   5  129.76   12.51
  -4  10   8   51.61    9.57
  -3  11   7  143.33   11.90
  -2  12   6   33.43    6.48
   0  14   4   -2.39    3.83
   1  15   3   84.15    6.68
   2  16   2  120.49    6.91
   3  17   1  118.09    6.95
   4  18   0  133.30    7.56
  -4 -18   0  138.95    7.12
  -6 -20   2  165.72    9.23
  -7 -21   3   72.15    8.25
  -8 -22   4  156.40   12.21
  -2  12   7   -4.30    7.22
  -1  13   6  129.00   10.95
   0  14   5   21.04    5.91
   1  15   4   81.49    8.32
   2  16   3   59.15    7.19
   3  17   2   72.39    6.76
   4  18   1   50.11    6.39
   5  19   0  120.10    8.31
  -5 -19   0  124.42    7.57
   6  20  -1   64.86    8.12
  -6 -20   1   67.72    7.74
  -7 -21   2  107.16    9.35
  -8 -22   3  171.98   12.24
  -1  13   7  115.78   12.72
   0  14   6   -3.85    6.88
   1  15   5   92.75   10.67
   2  16   4   19.11    5.97
   3  17   3  170.16   10.88
   4  18   2   82.32    8.25
   5  19   1   77.17    8.57
   6  20   0  135.13    9.51
  -6 -20   0  128.75    9.30
   7  21  -1   39.04    7.13
  -7 -21   1   25.46    6.29
  -8 -22   2  102.30   10.85
   2  16   5   18.34    7.35
   3  17   4   92.12   11.60
   4  18   3   88.25   10.75
   5  19   2   79.90    9.98
   6  20   1   80.13    8.90
  -6 -20  -1   75.31    8.19
   7  21   0   43.28    7.64
  -7 -21   0   43.08    7.51
 -10   6   1   55.06   12.55
 -11   5   3   41.61    7.81
 -10   6   2   66.13    7.64
  -9   7   1   30.26    5.87
  -8   8   0   37.09    5.96
   5 -11   3   89.91    8.86
   4 -12   4   11.42    7.45
   3 -13   5  143.96   14.97
 -11   5   4   61.69    7.96
 -10   6   3   89.72    8.60
  -9   7   2  103.57    8.49
  -8   8   1    3.45    4.10
  -7   9   0  164.82    8.43
   7  -9   0  149.46    9.23
   6 -10   1    7.30    3.68
   5 -11   2  135.76    8.66
   4 -12   3   23.47    5.87
   3 -13   4  213.14   13.04
   2 -14   5    1.72    7.80
   1 -15   6  127.32   12.82
 -11   5   5  108.22   10.49
 -10   6   4   65.04    7.16
  -9   7   3   80.24    7.40
  -8   8   2   73.06    6.82
  -7   9   1  172.70    7.88
  -7   9   1  180.66    8.11
   7  -9  -1  147.68    7.52
  -6  10   0  108.45    6.51
   6 -10   0  107.24    5.50
   5 -11   1  161.06    7.11
   4 -12   2   23.77    4.36
   3 -13   3  207.02   10.47
   2 -14   4    5.16    5.75
   1 -15   5   91.78   11.67
   0 -16   6   58.43   10.20
 -11   5   6   60.09    8.18
 -10   6   5  104.57    8.85
  -9   7   4  220.60   10.23
  -8   8   3  321.99   11.53
  -8   8   3  332.33   10.38
  -7   9   2  168.13    7.63
  -7   9   2  159.07    5.02
  -6  10   1    3.94    2.24
  -6  10   1    1.04    2.65
  -6  10   1    5.62    1.31
  -5  11   0  257.41    8.88
  -5  11   0  244.01    7.47
   5 -11   0  252.01    7.12
  -4  12  -1    4.89    2.79
   4 -12   1    0.15    2.40
   3 -13   2  184.98    8.08
   2 -14   3   16.22    4.58
   1 -15   4   67.58    7.51
   0 -16   5   14.98    6.76
  -1 -17   6   97.72   10.86
  -2 -18   7   18.30   11.15
 -10   6   6   78.02    7.97
  -9   7   5  106.79   10.69
  -9   7   5  127.42    8.37
  -8   8   4   78.51    6.44
  -8   8   4   86.54    5.51
  -7   9   3   81.42    3.82
  -7   9   3   79.86    3.81
  -7   9   3   77.85    5.80
  -6  10   2   39.31    4.37
  -5  11   1  333.41   10.25
  -4  12   0   33.08    3.66
  -4  12   0   33.26    2.50
   4 -12   0   35.03    2.38
  -3  13  -1  321.83    8.74
   3 -13   1  315.35    9.10
  -2  14  -2   29.78    3.46
   2 -14   2   28.72    3.85
   1 -15   3   80.94    6.86
   0 -16   4   15.47    5.15
  -1 -17   5  133.95   10.82
  -2 -18   6   50.82    8.74
  -3 -19   7   60.16   10.86
 -10   6   7   35.30    6.44
  -9   7   6  100.14    8.34
  -9   7   6   96.91    7.90
  -8   8   5   61.61    6.54
  -8   8   5   73.36    6.25
  -7   9   4  347.32    9.15
  -7   9   4  328.15   11.15
  -7   9   4  341.15    9.71
   7  -9  -4  333.07    8.86
  -6  10   3  164.01    4.84
  -6  10   3  152.45    6.92
  -5  11   2  500.06   13.74
  -4  12   1   -2.77    1.79
  -3  13   0  200.97    7.05
  -2  14  -1    3.32    1.57
   2 -14   1   -0.08    1.95
  -1  15  -2   74.77    4.36
   1 -15   2   78.30    5.09
   0 -16   3   45.68    5.07
  -1 -17   4  325.68   12.60
  -2 -18   5   61.15    7.61
  -3 -19   6   43.02    8.38
  -4 -20   7   81.66   10.89
 -10   6   8   95.98   11.33
  -9   7   7  113.95   10.96
  -9   7   7  122.93    9.58
  -8   8   6   66.87    7.01
  -8   8   6   58.24    6.08
  -7   9   5  140.97    7.26
  -7   9   5  138.52    7.40
  -6  10   4   66.03    4.34
  -6  10   4   60.67    4.85
   6 -10  -4   65.44    3.82
  -5  11   3  189.57    5.47
  -5  11   3  209.25    7.39
   5 -11  -3  187.49    5.04
  -4  12   2   28.98    3.25
  -3  13   1  247.92    7.88
  -2  14   0   12.33    1.49
   2 -14   0    8.37    1.42
   2 -14   0   13.48    1.39
  -1  15  -1  308.11    8.12
   1 -15   1  317.06    8.71
   0  16  -2  153.83    5.76
   0 -16   2  139.29    6.35
  -1 -17   3  127.53    7.23
  -2 -18   4  204.43    9.89
  -3 -19   5   69.31    7.76
  -4 -20   6   72.25    9.25
  -5 -21   7   51.98    9.90
  -9   7   8   49.63    8.94
  -9   7   8   51.81    7.48
  -8   8   7   33.73    5.85
  -8   8   7   29.58    6.42
  -7   9   6  164.90    9.41
  -6  10   5    5.59    3.21
  -6  10   5    2.48    2.77
  -5  11   4  285.90    9.07
  -5  11   4  245.34    9.75
   5 -11  -4  268.30    8.09
  -4  12   3   31.74    3.34
  -4  12   3   29.53    2.62
   4 -12  -3   29.04    2.82
  -3  13   2  175.39    6.19
  -3  13   2  171.14    4.61
   3 -13  -2  187.39    5.08
  -2  14   1    0.43    1.49
   2 -14  -1    1.64    1.19
   2 -14  -1    1.02    0.81
   1 -15   0  330.61    8.43
   1 -15   0  327.60    8.31
   0  16  -1   30.38    2.53
   0 -16   1   22.84    2.88
   0 -16   1   24.69    2.92
  -1 -17   2  213.33    7.66
  -2 -18   3  109.05    6.56
  -3 -19   4  208.81    9.95
  -4 -20   5   90.54    9.54
  -5 -21   6   91.71   11.37
  -6 -22   7   54.35   13.38
  -8   8   8   13.22    7.87
  -8   8   8   17.46    5.78
  -7   9   7   95.74    9.98
  -7   9   7   95.94    7.70
  -6  10   6    2.75    4.56
  -6  10   6    6.17    3.55
  -5  11   5  150.11    7.55
  -5  11   5  153.04    6.71
  -4  12   4   13.04    2.84
  -4  12   4   14.75    2.59
   4 -12  -4    8.35    2.89
  -3  13   3  147.30    5.64
  -3  13   3  132.25    5.17
   3 -13  -3  143.70    5.80
  -2  14   2   19.40    2.37
  -2  14   2   23.64    2.26
   2 -14  -2   22.07    2.49
   2 -14  -2   16.98    2.34
  -1  15   1  728.99   19.32
   1 -15  -1  732.10   19.09
   1 -15  -1  787.60   17.49
   1 -15  -1  736.64   17.69
   0 -16   0    5.86    1.89
   0 -16   0    2.26    1.36
  -1 -17   1  245.87    7.70
  -1 -17   1  232.90    7.82
  -2 -18   2  199.63    7.59
  -3 -19   3  137.26    7.18
  -4 -20   4  205.05   10.20
  -5 -21   5   27.66    6.28
  -6 -22   6   90.34   10.14
  -7   9   8  114.63   13.42
  -7   9   8  142.49    9.87
  -6  10   7   57.18    6.06
  -5  11   6  190.32    7.98
  -5  11   6  177.94    9.74
  -4  12   5   18.89    3.01
  -4  12   5   20.87    4.04
  -3  13   4  272.00    9.38
  -3  13   4  271.38    8.33
  -2  14   3   28.27    3.11
  -2  14   3   30.49    3.01
   2 -14  -3   26.78    3.18
   2 -14  -3   30.05    3.64
  -1  15   2  509.65   13.08
   1 -15  -2  494.53   13.55
   1 -15  -2  536.22   12.71
   0  16   1   24.97    2.65
   0 -16  -1   29.12    3.20
   0 -16  -1   26.05    3.07
   1  17   0   81.79    4.30
  -1 -17   0   81.36    4.15
  -2 -18   1   50.99    3.94
  -3 -19   2  171.00    7.31
  -4 -20   3   72.87    6.23
  -5 -21   4  117.02    8.33
  -6 -22   5  156.92   11.55
  -7 -23   6   27.51    8.59
  -6  10   8   43.62    8.41
  -6  10   8   25.40    8.33
  -5  11   7  135.38   11.44
  -5  11   7  137.81    7.90
  -4  12   6    5.56    3.20
  -4  12   6    6.35    4.60
  -3  13   5  228.96    7.54
  -3  13   5  227.64    9.96
  -2  14   4    4.37    2.95
  -2  14   4   -0.75    1.96
  -1  15   3  127.08    6.37
   1 -15  -3  127.52    4.68
   0  16   2  140.43    6.12
   0 -16  -2  139.93    4.91
   1  17   1  214.85    7.64
  -1 -17  -1  229.71    7.12
   2  18   0   16.66    2.74
  -2 -18   0   10.57    2.48
  -3 -19   1  191.88    7.60
  -4 -20   2  166.41    7.73
  -5 -21   3   38.11    5.40
  -6 -22   4   71.95    8.68
  -7 -23   5    9.57    6.68
  -5  11   8   88.85   10.28
  -4  12   7    4.45    6.17
  -3  13   6  171.40   10.89
  -3  13   6  169.97    6.91
  -2  14   5    2.29    2.45
  -2  14   5    3.70    4.29
  -1  15   4  276.34   10.67
   0  16   3   40.40    5.21
   0 -16  -3   46.90    2.95
   1  17   2  252.09    9.07
  -1 -17  -2  232.60    6.85
   2  18   1   27.81    3.72
  -2 -18  -1   32.52    3.93
   3  19   0  233.14    8.91
  -3 -19   0  243.17    8.80
   4  20  -1   58.46    5.92
  -4 -20   1   61.03    5.61
  -5 -21   2   31.52    4.70
  -6 -22   3  120.90    8.86
  -7 -23   4   19.08    6.45
  -8 -24   5  130.00   13.31
  -4  12   8   -6.52    8.31
  -3  13   7  225.14   14.51
  -2  14   6   -1.37    5.41
  -1  15   5  176.42   10.19
   0  16   4   15.57    4.66
   1  17   3  221.41    9.86
   2  18   2   94.28    6.58
   3  19   1  100.21    7.10
   4  20   0  149.61    8.13
  -4 -20   0  146.08    7.92
   5  21  -1    3.49    3.98
  -5 -21   1   -1.43    3.55
  -6 -22   2   57.17    7.33
  -7 -23   3   23.27    5.94
  -8 -24   4   50.35    8.54
  -2  14   7    3.41    7.60
  -1  15   6  100.87   11.01
   0  16   5   12.73    5.92
   1  17   4  167.90   10.34
   2  18   3   75.37    8.23
   3  19   2   67.71    7.19
   4  20   1   78.82    7.68
   5  21   0   24.44    5.03
  -5 -21   0   28.69    4.95
   6  22  -1   75.08    8.72
  -6 -22   1   83.31    8.06
  -7 -23   2   35.59    6.66
  -8 -24   3   87.60    9.33
   0  16   6   42.86    8.77
   1  17   5  137.02   11.96
   2  18   4   57.32    7.78
   3  19   3   73.81    9.47
   4  20   2  126.27    9.78
   5  21   1   48.96    6.85
  -5 -21  -1   47.11    6.55
   6  22   0  134.43   10.97
  -6 -22   0  155.14   10.43
   7  23  -1   41.13    7.31
  -7 -23   1   26.93    6.57
   2  18   5   13.53   11.69
   3  19   4   62.20    8.57
   4  20   3   97.59   11.66
   5  21   2   50.05    7.77
   6  22   1   79.92    9.09
  -6 -22  -1   56.77    7.72
 -11   7   3   53.93    8.12
 -10   8   2   36.88    6.85
  -9   9   1  108.69    9.06
  -8  10   0   36.89    6.25
 -11   7   4   87.74   10.31
 -10   8   3   30.05    6.29
  -9   9   2  196.23   10.40
  -8  10   1    8.10    4.25
  -7  11   0  174.15    9.43
   5 -13   2  105.33    8.27
   4 -14   3    4.31    5.41
   3 -15   4  175.98   12.77
   2 -16   5   -0.60    8.47
   1 -17   6  166.34   16.87
 -11   7   5   76.18    8.30
 -10   8   4   42.46    6.54
  -9   9   3  112.14    8.18
  -8  10   2   22.95    4.53
  -7  11   1  194.41   10.25
  -6  12   0    3.68    3.55
   6 -12   0    0.07    2.66
   5 -13   1  236.01    8.47
   4 -14   2    7.39    3.77
   3 -15   3  268.71   12.06
   2 -16   4   18.88    6.69
   1 -17   5  101.37   12.55
   0 -18   6   43.84   10.32
 -11   7   6   64.73    8.20
 -10   8   5   80.01    8.62
  -9   9   4  247.31   11.00
  -8  10   3   26.96    4.64
  -7  11   2  310.60   11.13
  -6  12   1    3.58    2.95
  -5  13   0  305.45    8.06
  -5  13   0  309.37   10.52
   5 -13   0  311.38    7.94
  -4  14  -1    6.28    2.75
   4 -14   1   -3.39    2.52
   3 -15   2  113.47    7.01
   2 -16   3   67.18    6.53
   1 -17   4  143.18   10.47
   0 -18   5    9.62    7.19
  -1 -19   6   93.62   11.17
  -2 -20   7   45.90   13.89
 -10   8   6   59.56    7.40
  -9   9   5  138.42    8.87
  -8  10   4   12.39    3.83
  -7  11   3   39.05    4.55
  -6  12   2   32.36    4.12
  -5  13   1  177.19    7.29
  -4  14   0   11.68    2.81
  -3  15  -1  310.54    8.51
   3 -15   1  315.84    9.15
  -2  16  -2  115.39    5.98
   2 -16   2  129.28    6.89
   1 -17   3  203.19    9.67
   0 -18   4   98.57    9.21
  -1 -19   5   66.20    8.39
  -2 -20   6   58.10    9.38
  -3 -21   7   13.03   10.42
 -10   8   7   23.24    6.30
  -9   9   6  119.02    8.88
  -8  10   5   22.52    4.12
  -8  10   5   20.14    4.36
  -7  11   4   61.38    4.21
  -7  11   4   61.42    5.90
  -6  12   3   15.95    3.21
  -5  13   2  342.33   10.70
  -4  14   1   13.95    2.76
  -3  15   0  375.63   11.11
  -2  16  -1   40.80    2.89
   2 -16   1   38.45    3.59
  -1  17  -2  243.87    7.88
   1 -17   2  243.80    8.80
   0 -18   3   86.51    6.95
  -1 -19   4  145.16    9.41
  -2 -20   5   61.78    8.04
  -3 -21   6   23.99    8.42
  -4 -22   7  112.78   12.79
 -10   8   8   35.24    8.34
  -9   9   7  127.31    9.81
  -8  10   6   45.91    5.90
  -8  10   6   43.03    5.63
  -7  11   5  256.30    9.30
  -7  11   5  258.24   10.34
  -6  12   4  136.64    5.47
  -6  12   4  140.01    6.77
   6 -12  -4  133.76    4.90
  -5  13   3  224.49    8.20
  -4  14   2   -1.60    1.89
  -3  15   1   67.14    4.38
   2 -16   0   74.99    3.33
   2 -16   0   80.78    3.20
  -1  17  -1  215.67    6.52
   1 -17   1  233.74   10.00
   1 -17   1  224.81    6.75
   0 -18   2  169.67    7.14
  -1 -19   3   22.80    4.35
  -2 -20   4  177.67    9.80
  -3 -21   5   20.07    6.32
  -4 -22   6  111.48   12.79
  -9   9   8  164.85   11.68
  -8  10   7   30.69    5.57
  -8  10   7   41.52    7.06
  -7  11   6  302.17   11.97
  -7  11   6  303.19   11.38
  -6  12   5   95.51    6.30
  -6  12   5   86.64    6.39
  -5  13   4   15.29    3.30
  -5  13   4   16.02    3.04
   5 -13  -4   20.52    2.79
  -4  14   3   47.72    2.92
  -4  14   3   47.41    4.19
   4 -14  -3   52.52    3.33
  -3  15   2   83.09    4.46
  -3  15   2   79.96    2.88
   3 -15  -2   87.40    3.59
  -2  16   1   81.22    4.36
   2 -16  -1   82.93    2.95
   2 -16  -1   84.61    3.61
   1 -17   0   94.47    5.76
   1 -17   0   91.54    4.12
   0  18  -1  110.93    4.65
   0 -18   1  111.00    5.05
   0 -18   1  115.79    5.11
  -1 -19   2  127.70    6.17
  -2 -20   3  106.84    6.96
  -3 -21   4  180.11    9.96
  -4 -22   5  197.39   12.28
  -5 -23   6   15.60    7.77
  -8  10   8   52.49    8.71
  -8  10   8   41.22    7.11
  -7  11   7  104.02    8.47
  -7  11   7  106.76   10.26
  -6  12   6   18.02    4.77
  -6  12   6    1.69    3.63
  -5  13   5  277.24   10.01
  -5  13   5  279.81    9.51
  -4  14   4   32.01    3.61
  -4  14   4   36.19    4.06
   4 -14  -4   29.84    3.63
  -3  15   3  109.04    5.15
   3 -15  -3  118.79    5.73
  -2  16   2   24.89    2.57
  -2  16   2   25.71    2.93
   2 -16  -2   24.33    2.83
   1 -17  -1  236.56    7.41
   0 -18   0   58.85    3.40
   0 -18   0   54.01    4.06
  -1 -19   1  173.88    6.48
  -2 -20   2  263.21    9.24
  -3 -21   3  109.29    7.28
  -4 -22   4   93.79    8.62
  -5 -23   5   -1.17    5.88
  -6 -24   6  104.55   13.11
  -7  11   8  209.23   11.26
  -7  11   8  188.33   14.25
  -6  12   7    5.88    4.47
  -5  13   6  296.59   12.25
  -5  13   6  314.67   10.53
  -4  14   5    5.22    3.58
  -4  14   5    0.01    2.55
  -3  15   4  255.73    8.20
  -3  15   4  246.25    8.96
  -2  16   3    5.25    2.32
  -2  16   3    6.12    2.30
   2 -16  -3    2.92    3.29
   2 -16  -3    7.41    2.44
  -1  17   2  217.07    7.02
   1 -17  -2  197.85    7.70
   1 -17  -2  203.98    6.81
   0  18   1  115.53    5.10
   0 -18  -1  105.80    6.43
   1  19   0   47.06    3.92
  -1 -19   0   39.63    3.71
  -2 -20   1   66.26    4.74
  -3 -21   2   62.72    5.49
  -4 -22   3  133.54    7.97
  -5 -23   4    7.89    5.11
  -6 -24   5  219.42   13.44
  -6  12   8  -12.62    7.66
  -5  13   7  169.61   11.71
  -5  13   7  131.71    8.10
  -4  14   6   12.61    3.59
  -4  14   6   13.66    4.86
  -3  15   5  183.91    6.94
  -3  15   5  179.55    9.30
  -2  16   4   84.33    4.65
  -2  16   4   88.90    6.20
  -1  17   3  134.51    6.54
   1 -17  -3  127.07    5.12
   0  18   2  178.28    7.03
   0 -18  -2  164.09    6.03
   1  19   1   98.56    5.44
  -1 -19  -1   84.87    5.24
   2  20   0   80.63    5.27
  -2 -20   0   83.58    5.16
  -3 -21   1   36.81    4.68
  -4 -22   2  220.36    9.51
  -5 -23   3   42.31    5.76
  -6 -24   4  104.64   10.06
  -7 -25   5   19.26    7.61
  -5  13   8   47.62    9.35
  -4  14   7   16.79    6.89
  -3  15   6  240.73   12.03
  -2  16   5   41.29    5.79
  -2  16   5   33.24    3.41
  -1  17   4  296.72   11.42
   0  18   3   80.66    6.38
   0 -18  -3   86.29    4.16
   1  19   2  387.19   12.19
  -1 -19  -2  367.22   10.06
   2  20   1   36.02    4.45
  -2 -20  -1   42.74    4.80
   3  21   0  141.61    7.26
  -3 -21   0  139.35    7.10
  -4 -22   1   88.82    6.76
  -5 -23   2    6.47    4.28
  -6 -24   3   79.76    8.95
  -7 -25   4    2.30    6.68
  -4  14   8    9.76    9.18
  -3  15   7  160.99   13.07
  -2  16   6   39.73    7.34
  -1  17   5  126.01    9.61
   1  19   3  287.13   11.63
   2  20   2   29.68    4.97
   3  21   1   13.78    6.31
   4  22   0  113.64    8.05
  -4 -22   0  101.70    7.19
   5  23  -1    1.56    4.41
  -5 -23   1    8.69    4.28
  -6 -24   2  155.66    9.94
  -7 -25   3    6.82    5.67
  -2  16   7   29.45    8.50
  -1  17   6  110.63   11.54
   0  18   5   12.75    6.15
   1  19   4  131.05    9.96
   2  20   3  129.33    8.87
   3  21   2   91.81    8.39
   4  22   1  161.20    9.89
  -4 -22  -1  152.88    9.34
   5  23   0    6.78    5.22
  -5 -23   0   18.40    5.02
   6  24  -1  125.33    9.83
  -6 -24   1  136.81    9.97
  -7 -25   2   15.93    6.26
   0  18   6   22.55    8.40
   1  19   5   51.06    8.07
   2  20   4  116.64   11.48
   3  21   3   93.00    9.80
   4  22   2   81.29    9.83
   5  23   1   15.72    6.17
  -5 -23  -1   35.63    6.41
   6  24   0  108.70   11.36
  -6 -24   0  128.06   10.73
  -7 -25   1   -2.86    6.42
   4  22   3  107.40   12.45
   5  23   2    1.32    8.54
  -9  11   0  213.92   13.46
 -10  10   2   18.45    6.55
  -9  11   1  180.32   11.20
  -8  12   0   20.01    6.17
 -11   9   4   60.73    8.50
 -10  10   3   24.30    6.22
  -9  11   2   87.82    8.54
  -8  12   1   18.05    4.95
  -7  13   0  181.54    9.73
   3 -17   4   92.90    9.93
   2 -18   5   28.81    9.67
 -11   9   5   35.14    7.32
 -10  10   4   10.86    5.47
  -9  11   3  105.03    8.75
  -8  12   2    7.03    4.04
  -7  13   1  259.44   10.55
   5 -15   1  211.74    7.97
   4 -16   2   66.77    6.89
   3 -17   3  186.12   11.15
   2 -18   4   41.38    8.02
   1 -19   5   42.55    8.96
   0 -20   6   31.52   10.60
 -10  10   5   37.06    6.55
  -9  11   4  200.69   10.40
  -8  12   3   19.53    4.50
  -7  13   2  169.93    8.69
  -6  14   1    9.04    3.52
  -5  15   0  244.04    9.56
   3 -17   2   92.59    7.05
   2 -18   3   88.08    8.57
   1 -19   4  119.33   11.30
   0 -20   5   37.47    8.76
  -1 -21   6   43.47   10.36
 -10  10   6   59.97    7.19
  -9  11   5  130.86    8.84
  -8  12   4    2.86    3.75
  -6  14   2    4.19    3.05
  -5  15   1  137.80    6.89
  -4  16   0   60.60    5.23
  -3  17  -1  134.77    4.84
   3 -17   1  107.58    5.54
   2 -18   2   96.50    6.65
   1 -19   3  278.52   11.25
   0 -20   4   96.92    9.42
  -1 -21   5   47.47    8.25
  -2 -22   6   57.35    9.88
 -10  10   7   -4.79    5.88
  -9  11   6  212.12   11.15
  -8  12   5    2.24    3.93
  -6  14   3    2.28    2.97
  -5  15   2  252.93    9.06
  -4  16   1    7.51    2.83
  -2  18  -1   25.11    2.74
   2 -18   1   18.96    2.91
   1 -19   2  374.96   11.68
   0 -20   3  108.60    7.64
  -1 -21   4   66.78    7.00
  -2 -22   5   90.69    9.80
  -3 -23   6  -13.30    8.30
  -9  11   7  166.60   10.62
  -8  12   6   16.34    4.93
  -7  13   5  312.98   10.21
  -7  13   5  320.68   11.49
  -6  14   4    7.51    2.11
  -6  14   4    8.23    3.12
   6 -14  -4    5.21    2.00
  -5  15   3  146.72    6.88
  -4  16   2   28.14    3.52
  -3  17   1  211.28    7.84
   2 -18   0   15.58    1.99
   2 -18   0   11.85    1.95
  -1  19  -1   85.27    4.12
   1 -19   1   88.08    4.55
   1 -19   1   90.28    5.05
   0 -20   2  279.29    9.76
  -1 -21   3    8.89    4.27
  -2 -22   4  152.25    9.97
  -3 -23   5    5.38    6.77
  -4 -24   6   97.37   11.09
  -9  11   8  136.85   11.17
  -8  12   7   12.63    5.09
  -7  13   6  119.98    8.09
  -7  13   6  143.49    8.77
  -6  14   5    5.92    3.26
  -6  14   5    4.15    3.30
  -5  15   4  171.26    7.43
  -5  15   4  160.03    5.95
   5 -15  -4  153.37    6.14
  -4  16   3   26.51    2.47
  -4  16   3   24.03    3.35
   4 -16  -3   29.77    3.40
  -3  17   2  304.19    9.62
  -3  17   2  301.41    7.43
   3 -17  -2  307.48    8.10
   3 -17  -2  298.34    7.31
   2 -18  -1   49.37    3.49
   2 -18  -1   57.98    2.72
   1 -19   0   37.61    3.66
   0 -20   1  211.90    7.39
   0 -20   1  207.23    8.41
  -1 -21   2  152.90    7.24
  -2 -22   3   55.17    6.58
  -3 -23   4   34.15    6.39
  -4 -24   5  133.14   11.95
  -5 -25   6    0.68    8.35
  -8  12   8   28.19    6.64
  -7  13   7  114.53   10.71
  -7  13   7  112.55    9.07
  -6  14   6    6.06    4.51
  -6  14   6    5.22    3.78
  -5  15   5  221.35    8.97
  -5  15   5  233.78    8.87
  -4  16   4   63.27    4.86
  -4  16   4   55.01    4.90
   4 -16  -4   51.26    5.81
  -3  17   3  154.76    5.75
  -3  17   3  158.71    6.61
   3 -17  -3  154.07    6.68
  -2  18   2  184.96    7.03
  -2  18   2  189.24    6.99
   2 -18  -2  199.30    7.15
  -1  19   1  172.18    6.00
   1 -19  -1  178.14    6.72
   1 -19  -1  181.39    5.90
   0 -20   0   88.80    5.29
   0 -20   0   90.94    4.44
  -1 -21   1   37.20    4.16
  -2 -22   2   99.33    6.48
  -3 -23   3   44.51    5.37
  -4 -24   4  130.31    9.68
  -5 -25   5   20.82    7.57
  -6 -26   6  196.74   15.83
  -7  13   8   98.34    8.73
  -7  13   8  102.21   13.01
  -5  15   6  144.42    9.08
  -5  15   6  135.79    7.43
  -4  16   5   16.17    4.22
  -4  16   5   10.18    3.30
  -3  17   4  272.53    9.43
  -3  17   4  250.38    8.53
  -2  18   3  118.16    5.65
  -2  18   3  117.04    5.87
  -1  19   2  123.81    5.57
   0  20   1  205.07    7.29
   0 -20  -1  209.01    7.06
   1  21   0   69.32    4.84
  -1 -21   0   65.44    4.44
  -2 -22   1  217.90    8.32
  -3 -23   2   23.54    4.15
  -4 -24   3  150.89    9.16
  -5 -25   4   10.19    5.58
  -6 -26   5  159.93   13.29
  -6  14   8   -5.88    7.95
  -5  15   7  161.07   12.03
  -5  15   7  150.47    9.19
  -4  16   6    5.61    5.17
  -4  16   6   -1.49    3.71
  -3  17   5   73.08    5.33
  -3  17   5   69.20    7.43
  -2  18   4  188.67    7.15
  -2  18   4  213.63    9.14
  -1  19   3   29.83    3.87
   1 -19  -3   26.11    3.14
   0  20   2  283.24    9.60
   1  21   1   69.92    5.41
  -1 -21  -1   63.27    4.89
   2  22   0  133.95    6.90
  -2 -22   0  139.75    6.81
  -3 -23   1   41.97    5.33
  -4 -24   2  183.58    9.33
  -5 -25   3   13.82    5.22
  -6 -26   4  129.23   11.50
  -5  15   8   39.96   10.02
  -4  16   7   13.05    6.84
  -3  17   6   73.44    7.98
  -2  18   5   82.06    8.13
  -1  19   4  127.94    8.16
   0  20   3   83.12    6.96
   1  21   2  178.32    8.17
  -1 -21  -2  150.00    6.67
   2  22   1  322.35   11.29
  -2 -22  -1  308.07   10.79
   3  23   0   15.60    3.96
  -3 -23   0   14.97    3.88
  -4 -24   1  206.23    9.39
  -5 -25   2    3.17    4.61
  -6 -26   3   84.60    9.70
  -7 -27   4   -4.10    7.18
  -4  16   8   49.05   10.40
  -3  17   7  148.35   13.32
  -2  18   6   45.82    7.27
  -1  19   5   61.67    7.22
   0  20   4  116.79    8.99
   1  21   3   45.74    5.90
   2  22   2  164.30    9.23
   3  23   1   -0.57    4.01
  -3 -23  -1   -3.98    3.62
   4  24   0  165.17    9.17
  -4 -24   0  171.20    9.31
  -5 -25   1   18.86    5.33
  -6 -26   2  145.95   10.61
  -7 -27   3   14.19    6.99
  -2  18   7   35.42    9.11
  -1  19   6   90.64   10.05
   0  20   5   36.05    7.07
   1  21   4   30.70    6.72
   2  22   3   95.68    9.28
   3  23   2   23.67    5.74
   4  24   1   99.62    9.37
  -4 -24  -1  106.10    8.80
   5  25   0    4.88    5.52
  -5 -25   0    2.22    5.07
  -6 -26   1  196.22   11.43
  -7 -27   2   14.07    6.92
   0  20   6   47.35   12.23
   1  21   5   18.00    7.94
   2  22   4   64.55    8.49
   3  23   3    8.55    6.62
   4  24   2   92.05   10.88
   5  25   1    6.77    6.40
  -5 -25  -1   -0.46    5.64
   6  26   0  164.30   13.37
  -6 -26   0  204.50   12.88
 -10  12   2   38.17    7.16
  -9  13   1  147.01   11.16
  -8  14   0    0.08    6.12
 -10  12   3   34.91    6.77
  -9  13   2  105.63    9.30
  -8  14   1   -7.81    4.85
  -7  15   0   86.70    8.40
 -10  12   4    7.97    6.21
  -9  13   3  110.91    9.22
  -8  14   2    9.47    4.44
  -7  15   1  161.00    8.94
  -6  16   0    6.42    4.28
   3 -19   3   81.12    9.74
   1 -21   5   18.74    9.31
 -10  12   5   12.32    5.74
  -9  13   4  102.55    8.77
  -8  14   3   20.43    4.85
  -7  15   2  282.74   11.16
  -6  16   1    1.00    4.26
  -5  17   0  238.32    9.98
   4 -18   1   49.98    4.55
   3 -19   2   65.79    7.19
   2 -20   3  132.42    9.86
   1 -21   4   22.55    7.16
   0 -22   5   79.87   10.51
  -1 -23   6   -8.39   10.09
 -10  12   6    2.87    5.76
  -9  13   5  170.50   10.26
  -8  14   4   15.02    4.44
  -7  15   3  188.73    9.20
  -6  16   2   52.99    5.88
  -5  17   1  138.02    7.36
  -3  19  -1   88.03    6.25
   3 -19   1   89.97    5.50
   2 -20   2   30.95    4.78
   1 -21   3   36.17    5.93
   0 -22   4  114.57   11.03
  -1 -23   5   13.43    7.82
  -2 -24   6  150.26   15.74
 -10  12   7   21.12    6.82
  -9  13   6   85.48    8.60
  -8  14   5    0.92    4.22
  -7  15   4  113.40    7.45
  -6  16   3  206.14    9.04
  -5  17   2  410.05   12.74
  -4  18   1   58.07    5.24
  -2  20  -1   37.46    3.28
   2 -20   1   35.91    3.89
   2 -20   1   41.28    3.78
   1 -21   2  196.38    8.53
   0 -22   3  129.30    8.80
  -1 -23   4   27.23    6.84
  -2 -24   5  107.28   12.95
  -3 -25   6   -1.44    9.72
  -9  13   7  144.67   10.81
  -8  14   6    3.88    4.61
  -7  15   5  322.09   11.95
  -6  16   4  194.62    8.75
  -5  17   3  234.26    9.08
  -4  18   2  134.31    6.69
   2 -20   0   76.19    4.17
   2 -20   0   82.79    4.00
  -1  21  -1   65.98    4.32
   1 -21   1   66.88    5.06
   1 -21   1   60.31    4.63
   0 -22   2   53.77    5.91
  -1 -23   3   31.33    5.59
  -2 -24   4   96.38   10.10
  -3 -25   5   12.26    7.32
  -4 -26   6  164.40   15.55
  -9  13   8  153.79   12.01
  -8  14   7    0.18    5.25
  -7  15   6  154.61    9.07
  -7  15   6  170.09   12.52
  -6  16   5   45.36    4.49
  -6  16   5   57.41    5.67
  -5  17   4   93.42    6.25
  -5  17   4  100.59    4.75
  -4  18   3   74.40    3.43
  -4  18   3   78.83    5.57
   4 -18  -3   71.78    4.36
  -3  19   2  173.94    7.34
  -3  19   2  170.60    5.06
   3 -19  -2  176.13    6.12
   3 -19  -2  172.27    5.00
   2 -20  -1   55.60    5.23
   2 -20  -1   60.55    4.27
   1 -21   0   60.45    4.58
   1 -21   0   61.40    3.99
   0 -22   1  230.25    8.15
  -1 -23   2   46.99    5.88
  -2 -24   3  136.26    8.61
  -3 -25   4    8.54    5.75
  -4 -26   5  121.62   12.47
  -5 -27   6   19.36    9.77
  -8  14   8    6.08    6.14
  -7  15   7   77.39    8.21
  -7  15   7   82.99   10.51
  -6  16   6   47.59    5.58
  -5  17   5  121.35    7.13
  -5  17   5  117.88    7.29
  -4  18   4   69.35    5.19
  -4  18   4   69.90    5.55
   4 -18  -4   71.49    6.72
  -3  19   3  129.10    6.53
  -3  19   3  125.67    5.44
  -2  20   2  269.63    7.93
   2 -20  -2  253.82    8.92
  -1  21   1   39.10    3.64
   1 -21  -1   38.78    3.41
   1 -21  -1   37.95    4.83
   0 -22   0  240.72    7.97
  -1 -23   1   75.65    5.42
  -2 -24   2  181.11    8.44
  -4 -26   4   96.25   10.10
  -5 -27   5    6.64    7.75
  -7  15   8  119.32   11.45
  -6  16   7   22.62    8.97
  -6  16   7   18.90    5.47
  -5  17   6  134.83    9.23
  -5  17   6  119.81    7.98
  -4  18   5    7.70    4.11
  -4  18   5   15.01    3.78
  -3  19   4  198.39    8.22
  -3  19   4  207.52    8.09
  -2  20   3  112.54    5.89
  -1  21   2  151.07    6.45
   0  22   1  238.60    8.41
   0 -22  -1  250.36    8.31
  -1 -23   0   -1.05    2.56
  -2 -24   1  228.26    9.19
  -3 -25   2   25.79    4.62
  -4 -26   3  104.34    9.05
  -5 -27   4   -2.28    5.85
  -6 -28   5   48.35    9.55
  -6  16   8   18.39    9.10
  -5  17   7  115.67   11.69
  -4  18   6   17.98    4.48
  -4  18   6   10.92    5.74
  -3  19   5   67.22    6.06
  -3  19   5   72.62    7.68
  -2  20   4  181.72    8.74
  -1  21   3    6.27    3.49
   0  22   2   63.76    5.77
   1  23   1   15.48    3.56
  -1 -23  -1   28.31    3.81
   2  24   0  403.50   12.66
  -2 -24   0  382.60   12.45
  -3 -25   1    6.27    3.79
  -4 -26   2  301.44   12.25
  -5 -27   3    7.21    5.77
  -6 -28   4  130.38   12.62
  -5  17   8   38.55    9.92
  -4  18   7   62.56    8.78
  -3  19   6   59.97    7.59
  -2  20   5   58.73    9.06
  -1  21   4   49.46    6.11
   0  22   3  107.72    8.15
   1  23   2   43.66    5.20
   2  24   1  382.35   13.01
  -2 -24  -1  389.24   12.72
   3  25   0    6.27    4.15
  -3 -25   0    3.09    3.93
  -4 -26   1  180.96    9.65
  -5 -27   2    2.24    5.25
  -6 -28   3  118.52   11.32
  -3  19   7   54.58    9.61
  -2  20   6   55.92    8.46
  -1  21   5   56.87    7.25
   0  22   4  128.14   10.00
   1  23   3   44.42    6.10
   2  24   2   98.79    8.51
   3  25   1    4.51    4.73
  -3 -25  -1    9.75    4.47
   4  26   0  180.84   10.37
  -4 -26   0  172.41   10.21
  -5 -27   1    8.00    5.06
  -6 -28   2  147.64   11.60
  -2  20   7   28.63   11.87
  -1  21   6   28.26    8.70
   0  22   5  107.40   11.42
   1  23   4    0.19    6.18
   2  24   3  125.14   10.68
   3  25   2   -2.42    5.66
   4  26   1  111.33   10.25
  -4 -26  -1  112.76    9.28
   5  27   0    4.83    6.34
  -5 -27   0   14.46    5.99
  -6 -28   1  125.25   11.25
   1  23   5    0.79    8.56
   2  24   4  111.96   12.90
   3  25   3   18.05    7.19
   4  26   2   91.78   11.82
  -4 -26  -2   82.23    9.00
   5  27   1   15.10    7.64
  -5 -27  -1   13.69    6.75
 -10  14   2    9.94    8.00
  -9  15   1  151.69   12.26
 -10  14   3   -7.12    6.02
  -9  15   2   46.07    6.93
  -8  16   1    6.20    5.62
 -10  14   4    6.51    6.26
  -9  15   3  118.68    9.64
  -8  16   2   23.82    5.22
  -7  17   1   83.15    8.11
 -10  14   5    2.50    6.03
  -9  15   4  135.06    9.72
  -8  16   3   16.75    4.70
  -7  17   2   96.72    7.94
  -6  18   1   40.03    5.38
   3 -21   2   81.96    7.82
   2 -22   3   89.03    9.96
   0 -24   5  155.69   15.51
 -10  14   6   10.06    6.24
  -9  15   5   78.99    8.88
  -8  16   4   24.78    5.35
  -7  17   3   85.39    7.32
  -6  18   2  115.63    7.35
   3 -21   1    9.68    3.72
   2 -22   2  166.39    9.02
   1 -23   3   29.86    6.26
  -1 -25   5   16.93    9.03
  -2 -26   6  108.06   13.39
 -10  14   7   -1.63   10.17
  -9  15   6   87.82    9.46
  -8  16   5   19.60    4.83
  -7  17   4  133.07    8.37
  -6  18   3  122.96    7.92
  -5  19   2  164.51    8.13
  -4  20   1   45.36    5.29
   2 -22   1  295.64    9.71
   1 -23   2   57.63    6.89
   0 -24   3  123.19    9.55
  -1 -25   4   12.99    6.88
  -2 -26   5  139.06   13.53
  -3 -27   6    3.80   10.66
  -9  15   7   70.91    7.96
  -8  16   6   -1.79    4.95
  -7  17   5  209.46   10.44
  -6  18   4  102.35   10.66
  -5  19   3  230.94    9.28
  -4  20   2  154.43    7.59
   2 -22   0  135.80    5.73
   1 -23   1   28.44    3.74
   0 -24   2   96.49    7.42
  -1 -25   3    7.99    5.45
  -2 -26   4  208.50   13.07
  -3 -27   5    8.92    8.08
  -4 -28   6  129.93   15.38
  -9  15   8  122.42   11.69
  -8  16   7    7.20    5.90
  -7  17   6  141.47    9.16
  -6  18   5   87.36    8.05
  -5  19   4  156.55    8.13
  -5  19   4  176.76    6.36
  -4  20   3   71.53    5.99
  -4  20   3   66.85    3.49
   4 -20  -3   76.33    6.37
  -3  21   2   59.71    5.64
   3 -21  -2   63.37    3.14
   3 -21  -2   55.46    4.80
   2 -22  -1  176.38    7.72
   2 -22  -1  196.55    7.11
   1 -23   0    4.73    2.39
   1 -23   0    4.55    2.96
   0 -24   1  142.38    7.09
  -1 -25   2    0.42    3.83
  -2 -26   3  150.63    9.61
  -3 -27   4   27.39    6.94
  -4 -28   5  143.90   15.12
  -8  16   8   36.27    7.52
  -7  17   7  113.40    9.62
  -6  18   6   44.15    5.88
  -6  18   6   39.02    5.72
  -5  19   5  103.69    7.14
  -5  19   5   88.66    6.73
  -4  20   4  208.86    8.84
  -4  20   4  202.28    7.71
  -3  21   3   99.55    5.13
  -3  21   3   91.69    6.28
   3 -21  -3   82.56    6.87
  -2  22   2  115.88    5.08
   2 -22  -2   97.46    4.74
   2 -22  -2   95.43    6.68
   1 -23  -1   71.78    4.45
   0 -24   0   47.20    4.59
  -1 -25   1   -2.82    3.18
  -2 -26   2  241.01   10.23
  -3 -27   3   26.02    5.70
  -4 -28   4  168.44   12.82
  -5 -29   5   23.11    9.10
  -6  18   7   26.77    6.25
  -6  18   7   36.43    8.51
  -5  19   6   58.91    6.62
  -5  19   6   55.16    5.87
  -4  20   5   81.03    7.78
  -4  20   5   91.09    7.04
  -3  21   4  175.33    7.84
  -3  21   4  164.47    7.94
  -2  22   3   56.64    5.58
  -1  23   2   50.72    4.79
   0  24   1  131.78    6.63
   0 -24  -1  143.76    6.49
  -1 -25   0    7.32    3.01
  -2 -26   1  194.40    8.84
  -3 -27   2   53.88    6.46
  -4 -28   3   97.82    9.89
  -5 -29   4   65.07    8.87
  -5  19   7   56.12    8.21
  -3  21   5   18.08    5.17
  -3  21   5   30.85    4.58
  -2  22   4  143.80    8.45
  -1  23   3   31.89    4.72
   0  24   2  103.50    6.98
   1  25   1    8.41    3.55
  -1 -25  -1    6.40    3.47
  -2 -26   0  208.82    9.02
  -3 -27   1    8.53    4.38
  -4 -28   2   91.19    8.87
  -5 -29   3   23.08    6.79
  -6 -30   4  164.59   14.23
  -4  20   7   78.78    9.94
  -3  21   6   28.19    7.24
  -2  22   5   76.68    9.41
   0  24   3  130.12    8.59
   1  25   2    3.52    4.92
   2  26   1  191.33   10.22
  -2 -26  -1  204.04    9.62
   3  27   0    1.77    4.59
  -3 -27   0   -1.91    4.30
  -4 -28   1  126.34    9.28
  -5 -29   2   13.12    6.26
  -6 -30   3   72.69    9.53
  -3  21   7    2.01    9.10
  -2  22   6   85.51    9.65
  -1  23   5   12.47    6.44
   0  24   4  240.51   12.32
   1  25   3    2.18    5.30
   2  26   2  154.96   10.20
   3  27   1    2.91    5.22
  -3 -27  -1    1.73    4.88
   4  28   0  187.90   11.26
  -4 -28   0  164.60   10.76
  -5 -29   1   12.37    5.98
  -6 -30   2   76.18    9.21
  -1  23   6   10.47    8.30
   0  24   5  181.95   14.11
   1  25   4    4.46    7.36
   2  26   3   90.84   10.74
   3  27   2   -2.58    6.23
  -3 -27  -2   -0.73    5.94
   4  28   1  124.24   11.58
  -4 -28  -1  144.65   11.11
   5  29   0    5.07    6.91
  -5 -29   0   22.38    7.30
   3  27   3   21.71   11.97
  -9  17   1  116.61   12.43
  -9  17   2   67.80    8.13
  -8  18   1    0.74    6.04
 -10  16   4   35.37    7.40
  -9  17   3   95.38    9.79
  -8  18   2   41.57    6.42
  -7  19   1   35.35    6.15
 -10  16   5    5.21    6.69
  -9  17   4   95.32    9.73
  -8  18   3   52.07    6.62
  -7  19   2  101.70    8.57
  -6  20   1   55.84    6.38
 -10  16   6   -1.59    7.28
  -9  17   5   69.51    7.89
  -8  18   4   45.04    6.40
  -7  19   3   70.90    7.64
  -6  20   2  165.67    9.40
  -5  21   1    7.16    4.03
   2 -24   2   94.73    8.37
   1 -25   3   -2.01    6.00
   0 -26   4  194.90   13.96
  -1 -27   5   -1.13    9.45
  -9  17   6  105.59   10.23
  -8  18   5   21.21    5.74
  -7  19   4   58.23    6.36
  -6  20   3   81.38    7.16
  -5  21   2   41.27    5.33
   2 -24   1  365.48   11.36
   1 -25   2   -0.38    4.75
   0 -26   3  165.70   11.45
  -1 -27   4   13.44    7.67
  -2 -28   5  135.56   16.27
  -9  17   7  107.62   11.34
  -8  18   6   41.48    6.72
  -7  19   5   83.33    8.33
  -6  20   4   51.40    5.96
  -4  22   2  208.69    9.31
   2 -24   0  375.01   10.95
   1 -25   1    8.65    3.70
   0 -26   2  104.19    8.09
  -1 -27   3   22.43    6.41
  -2 -28   4  148.55   12.14
  -3 -29   5   48.33    9.92
  -8  18   7   44.05    7.33
  -7  19   6   86.13    8.73
  -6  20   5   38.52    5.48
  -5  21   4  116.44    7.76
  -4  22   3  128.06    4.75
  -4  22   3  145.10    8.06
   4 -22  -3  130.31    4.56
   2 -24  -1  213.47    7.06
   1 -25   0    2.80    2.88
   0 -26   1  101.58    6.75
  -1 -27   2   23.71    4.98
  -2 -28   3  149.63   10.97
  -3 -29   4   29.54    7.71
  -4 -30   5   47.57   10.57
  -7  19   7   70.10    7.76
  -6  20   6   27.81    5.58
  -5  21   5   28.81    5.46
  -5  21   5   38.99    5.31
  -4  22   4  128.85    7.83
  -4  22   4  128.16    6.42
  -3  23   3   30.83    3.51
  -2  24   2  153.86    6.36
   2 -24  -2  166.38    6.35
   1 -25  -1    2.15    2.55
   0 -26   0  366.95   11.40
  -1 -27   1    1.45    3.88
  -2 -28   2  133.65    9.45
  -3 -29   3   -0.73    5.95
  -4 -30   4  103.67   12.05
  -6  20   7   52.56    7.99
  -5  21   6   58.62    8.28
  -4  22   5  226.64    9.88
  -4  22   5  213.79   10.26
  -3  23   4   53.99    6.19
  -2  24   3  139.76    7.29
  -1  25   2    4.66    3.24
   1 -25  -2    2.24    2.87
   0  26   1  126.08    7.00
   0 -26  -1  125.16    6.99
  -1 -27   0    4.14    3.62
  -2 -28   1   89.17    7.45
  -3 -29   2   37.46    6.10
  -4 -30   3   66.01    8.33
  -5 -31   4   59.87    9.36
  -4  22   6  104.41   10.92
  -3  23   5    3.02    5.22
  -2  24   4   94.84    8.48
  -1  25   3    7.68    4.08
   0  26   2  107.16    7.36
   0 -26  -2   88.00    6.83
   1  27   1   16.03    4.40
  -1 -27  -1   11.82    4.00
  -2 -28   0  182.66    9.83
  -3 -29   1   10.20    5.17
  -4 -30   2  122.67   10.57
  -5 -31   3   52.86    8.67
  -4  22   7  105.29   11.00
  -3  23   6   16.30    7.11
  -2  24   5   88.31   10.32
  -1  25   4    3.53    5.34
   0  26   3  176.92   10.41
   1  27   2    2.69    4.63
  -1 -27  -2    4.51    4.27
   2  28   1  101.40    9.08
  -2 -28  -1   95.02    8.48
  -3 -29   0   14.46    5.37
  -4 -30   1  114.58   10.38
  -5 -31   2   44.79    7.66
  -2  24   6  160.01   14.07
  -1  25   5   17.23    7.67
   0  26   4  219.21   13.22
   1  27   3    3.00    6.06
   2  28   2   92.04    9.61
  -2 -28  -2   67.25    8.58
   3  29   1   36.79    6.99
  -3 -29  -1   32.45    6.35
  -4 -30   0  142.20   10.94
  -5 -31   1   52.55    8.01
   0  26   5  121.97   14.28
   1  27   4   23.39    8.23
   2  28   3   45.67    8.24
   3  29   2   13.06    7.37
  -3 -29  -2   25.08    6.68
   4  30   1   71.31    9.10
  -4 -30  -1   67.43    8.70
  -9  19   2   83.40    9.27
  -8  20   1   51.59    7.93
  -9  19   3   69.86    7.96
  -8  20   2   75.61    8.52
  -7  21   1   25.44    6.20
  -9  19   4  112.46   10.43
  -8  20   3   92.09    9.52
  -7  21   2  105.90    9.48
  -6  22   1   71.98    8.66
  -9  19   5   72.78    8.66
  -8  20   4   74.21    8.71
  -7  21   3   56.92    6.62
  -6  22   2   73.17    7.87
  -9  19   6   56.59    8.09
  -8  20   5   81.37    9.26
  -7  21   4   91.26    8.54
  -6  22   3   99.25    8.50
  -5  23   2    4.71    4.42
   1 -27   2    4.10    5.42
   0 -28   3   80.39    8.66
  -1 -29   4   20.00    8.95
  -2 -30   5   92.10   12.55
  -9  19   7   30.63    8.14
  -8  20   6  112.32   10.51
  -7  21   5   34.97    6.07
  -6  22   4   65.93    6.79
  -5  23   3   46.85    5.95
   2 -26   0  194.35    7.83
   1 -27   1   18.59    4.56
   0 -28   2  218.03   11.13
  -1 -29   3   18.73    7.62
  -2 -30   4   84.28   10.24
  -3 -31   5   52.63   11.16
  -8  20   7   26.02    7.44
  -7  21   6   14.55    5.85
  -6  22   5  152.90    9.90
  -5  23   4    6.01    4.76
   2 -26  -1  188.41    7.10
   1 -27   0    8.18    3.44
   0 -28   1  233.55    9.83
  -1 -29   2   21.21    5.86
  -2 -30   3   96.53   11.16
  -3 -31   4   45.92    9.25
  -7  21   7   -0.82    6.30
  -6  22   6   87.72    9.42
  -5  23   5   -2.96    4.80
  -4  24   4  111.38    8.43
  -3  25   3   24.91    3.55
   3 -25  -3   34.99    4.41
  -2  26   2  251.98    8.41
   2 -26  -2  235.77    8.37
   1 -27  -1    2.90    3.05
   0 -28   0  384.01   12.34
  -1 -29   1   17.64    4.89
  -2 -30   2  124.34    9.96
  -3 -31   3    2.78    6.70
  -4 -32   4   46.55    9.36
  -5  23   6   11.59    6.27
  -4  24   5  130.46    9.27
  -4  24   5  150.55   11.10
  -3  25   4    3.38    4.31
  -2  26   3  154.65    7.76
  -1  27   2   19.34    3.88
   1 -27  -2   24.74    4.09
   0 -28  -1  241.96    9.51
  -1 -29   0   11.69    4.37
  -2 -30   1   67.68    7.63
  -3 -31   2   36.97    6.79
  -4 -32   3   36.43    8.01
  -4  24   6  114.35   13.40
  -3  25   5    6.08    6.83
  -2  26   4  217.74   11.09
  -1  27   3    5.53    4.71
   0  28   2  215.02   10.22
   0 -28  -2  213.43    9.56
   1  29   1   28.78    7.37
  -2 -30   0   92.07    8.50
  -3 -31   1   28.33    6.37
  -4 -32   2   65.74    8.26
  -5 -33   3   58.32    9.57
  -3  25   6    3.54    7.48
  -2  26   5  119.93   11.53
  -1  27   4   21.68    6.82
   0  28   3   80.69    9.34
   1  29   2   33.69    6.01
  -1 -29  -2   41.76    5.86
   2  30   1   55.87    7.01
  -2 -30  -1   60.72    6.74
  -3 -31   0   32.16    6.17
  -4 -32   1   83.85   10.76
  -5 -33   2   57.75    9.11
  -2  26   6  150.62   15.17
  -1  27   5    0.20    7.80
   0  28   4   82.30    9.10
   1  29   3   53.48    7.86
   2  30   2  124.62   11.32
  -2 -30  -2  145.66   10.69
   3  31   1   36.84    7.42
  -3 -31  -1   39.57    7.31
  -4 -32   0   45.69    7.86
   1  29   4   45.28    9.27
   2  30   3   28.15    8.45
   3  31   2   55.73    9.54
  -3 -31  -2   57.45    8.62
  -8  22   2   98.38   10.93
  -9  21   4  107.24   11.11
  -8  22   3  156.97   11.13
  -7  23   2   46.43    7.09
  -9  21   5   18.18    7.06
  -8  22   4  121.91   10.17
  -7  23   3   19.31    6.24
  -6  24   2  163.42   10.73
  -9  21   6   25.26    8.88
  -8  22   5  139.42   10.97
  -7  23   4   19.34    6.03
  -6  24   3  100.66    9.53
  -8  22   6   55.57    7.92
  -7  23   5    2.43    5.66
  -6  24   4   87.23    9.15
  -5  25   3    4.56    5.11
   1 -29   1   16.01    7.62
   0 -30   2  134.41   10.84
  -1 -31   3   51.84    9.06
  -2 -32   4   45.87    9.95
  -8  22   7   52.24    8.45
  -7  23   6    9.55    6.35
  -6  24   5  226.59   11.70
  -5  25   4    3.58    5.31
   1 -29   0    2.70    4.10
   0 -30   1  103.77    8.56
  -2 -32   3   46.19    8.63
  -3 -33   4   39.81   10.27
  -7  23   7    0.13    7.42
  -6  24   6  140.68   11.05
  -5  25   5    4.87    5.93
   2 -28  -2  123.45    6.73
   1 -29  -1   14.32    3.98
   0 -30   0  265.68   10.72
  -1 -31   1   31.58    5.93
  -2 -32   2   81.95    8.32
  -3 -33   3  127.55   13.67
  -2  28   3  153.25    8.22
   2 -28  -3  146.32    7.93
  -1  29   2   22.67    4.55
   1 -29  -2   24.14    4.67
   0 -30  -1   96.74    7.30
  -1 -31   0   37.60   10.67
  -2 -32   1   75.12    9.62
  -3 -33   2   50.95    7.77
  -4 -34   3   48.85    9.36
  -1  29   3   -7.18    5.78
   1 -29  -3    5.25    6.06
   0  30   2  122.57    9.12
   0 -30  -2  119.76    8.69
  -1 -31  -1   75.75    8.18
  -2 -32   0   62.49    7.04
  -3 -33   1   52.36    7.44
  -4 -34   2   10.06    8.00
  -2  28   5  141.90   12.61
  -1  29   4    6.50    6.56
   0  30   3   83.02   10.36
   0 -30  -3   71.55    9.27
   1  31   2   62.85    7.67
  -1 -31  -2   69.80    8.84
   2  32   1   22.44    7.03
  -2 -32  -1   31.79    6.58
  -3 -33   0   37.90    7.30
  -4 -34   1   30.08    8.25
  -1  29   5   17.56    8.86
   0  30   4   57.38    9.35
   1  31   3   51.24    8.56
  -1 -31  -3   52.61    7.82
   2  32   2   78.23    9.54
  -2 -32  -2  106.35   10.91
   3  33   1   52.48    8.76
  -3 -33  -1   49.94    8.35
  -8  24   3   74.40    9.09
  -7  25   2   16.56    6.73
  -8  24   4   36.44    7.73
  -7  25   3   -5.77    6.15
  -8  24   5  117.97   11.51
  -7  25   4    3.55    6.42
  -6  26   3   78.69    8.22
  -8  24   6  100.03   11.88
  -7  25   5   18.88    7.08
  -6  26   4  105.77   10.43
  -7  25   6    8.73    7.17
  -6  26   5  153.79   12.13
  -5  27   4   11.57    6.18
  -1 -33   2  157.96   12.19
  -2 -34   3   59.94   10.18
  -6  26   6  183.19   13.39
  -5  27   5    3.46    6.60
   0 -32   0   22.01    5.68
  -1 -33   1   96.92   10.53
  -2 -34   2   36.63    8.06
  -3 -35   3   71.15   10.73
   1 -31  -2   36.57    5.66
   0 -32  -1    9.45    5.36
  -1 -33   0   44.55    6.80
  -2 -34   1   37.93    7.49
  -3 -35   2  120.67   13.45
  -1  31   3   61.69    7.22
   1 -31  -3   62.13    6.81
   0  32   2  112.61    9.93
   0 -32  -2   81.41    9.25
  -1 -33  -1   62.02    7.27
  -2 -34   0   22.90    7.06
  -3 -35   1   65.64    8.66
  -1  31   4   23.40    7.80
   0  32   3   91.73   11.70
   0 -32  -3  113.02   10.68
   1  33   2   30.23    7.69
  -1 -33  -2   40.06    7.29
  -2 -34  -1   52.78    8.26
  -3 -35   0   67.37    9.27
  -7  27   3   -6.40    6.62
  -7  27   4    8.43    7.31
  -7  27   5    5.29    7.63
  -6  28   4  145.31   11.84
  -6  28   5   50.50    8.46
  -1 -35   0  190.81   15.40
  -2 -36   1    6.95    8.06
  -1 -35  -1   57.52    8.06
  -2 -36   0    2.82    7.92
   0   0   0    0.00    0.00
;
_shelx_hkl_checksum              52888
loop_
_space_group_symop_operation_xyz
'x, y, z'
'-x, y, -z'
'x+1/2, y+1/2, z'
'-x+1/2, y+1/2, -z'
'-x, -y, -z'
'x, -y, z'
'-x+1/2, -y+1/2, -z'
'x+1/2, -y+1/2, z'
loop_
_atom_site_label
_atom_site_type_symbol
_atom_site_fract_x
_atom_site_fract_y
_atom_site_fract_z
_atom_site_U_iso_or_equiv
_atom_site_adp_type
_atom_site_occupancy
_atom_site_site_symmetry_order
_atom_site_calc_flag
_atom_site_refinement_flags_posn
_atom_site_refinement_flags_adp
_atom_site_refinement_flags_occupancy
_atom_site_disorder_assembly
_atom_site_disorder_group
Sm1 Sm -1.0000 0.23052(2) -0.5000 0.00387(14) Uani 1 2 d S T P . .
B1 B 0.2313(14) 0.5000 0.7806(19) 0.012(2) Uani 1 2 d S T P . .
B2 B -1.0000 0.3422(3) -0.5000 0.0062(18) Uani 1 2 d S T P . .
B3 B -0.7951(8) 0.1274(2) -0.5578(12) 0.0072(13) Uani 1 1 d . . . . .
B4 B -0.6000(8) 0.1901(2) -0.2367(11) 0.0041(12) Uani 1 1 d . U . . .
B5 B -0.5000 0.2691(3) 0.0000 0.0063(17) Uani 1 2 d S T P . .
O1 O 0.1733(7) 0.45771(15) 0.8250(9) 0.0195(11) Uani 1 1 d . . . . .
O2 O -0.9316(5) 0.09187(14) -0.6381(8) 0.0120(9) Uani 1 1 d . . . . .
O3 O 0.3392(8) 0.5000 0.6992(12) 0.0154(13) Uani 1 2 d S T P . .
O4 O -0.5000 0.16355(19) 0.0000 0.0058(11) Uani 1 2 d S TU P . .
O5 O -0.9190(5) 0.20227(14) -0.0987(7) 0.0065(8) Uani 1 1 d . . . . .
O6 O -0.7854(5) 0.16455(13) -0.4152(7) 0.0053(8) Uani 1 1 d . U . . .
O7 O -0.8304(5) 0.37443(14) -0.3877(7) 0.0091(8) Uani 1 1 d . . . . .
O8 O -0.6503(5) 0.23837(13) -0.2115(7) 0.0067(8) Uani 1 1 d . . . . .
O9 O -0.9824(5) 0.30882(13) -0.3201(7) 0.0054(8) Uani 1 1 d . U . . .
O1WA O -0.5000 0.0748(13) 0.0000 0.020(9) Uiso 0.3 2 d S . P . .
O1WB O -0.556(2) 0.0752(6) -0.073(3) 0.008(3) Uiso 0.35 1 d . . P . .
loop_
_atom_site_aniso_label
_atom_site_aniso_U_11
_atom_site_aniso_U_22
_atom_site_aniso_U_33
_atom_site_aniso_U_23
_atom_site_aniso_U_13
_atom_site_aniso_U_12
Sm1 0.0020(2) 0.0064(2) 0.0033(2) 0.000 0.00159(17) 0.000
B1 0.016(5) 0.014(5) 0.011(5) 0.000 0.011(4) 0.000
B2 0.009(4) 0.005(5) 0.010(5) 0.000 0.009(4) 0.000
B3 0.004(3) 0.008(3) 0.009(3) 0.003(3) 0.004(3) 0.003(3)
B4 0.0043(14) 0.0045(15) 0.0039(15) 0.0002(9) 0.0027(11) -0.0001(9)
B5 0.002(4) 0.008(4) 0.005(4) 0.000 0.000(3) 0.000
O1 0.032(3) 0.011(2) 0.033(3) -0.004(2) 0.029(3) -0.0040(19)
O2 0.0096(19) 0.008(2) 0.019(2) -0.0044(18) 0.0094(19) -0.0054(17)
O3 0.017(3) 0.017(3) 0.023(4) 0.000 0.018(3) 0.000
O4 0.0059(12) 0.0060(12) 0.0057(12) 0.000 0.0036(8) 0.000
O5 0.0048(17) 0.012(2) 0.005(2) -0.0004(16) 0.0042(16) 0.0015(16)
O6 0.0052(9) 0.0056(9) 0.0053(9) -0.0005(5) 0.0034(6) 0.0002(5)
O7 0.0078(19) 0.014(2) 0.007(2) -0.0051(17) 0.0053(18) -0.0047(17)
O8 0.0039(17) 0.011(2) 0.006(2) -0.0007(16) 0.0029(16) -0.0001(15)
O9 0.0052(9) 0.0058(9) 0.0056(9) -0.0001(5) 0.0034(6) 0.0002(5)
loop_
_atom_type_symbol
_atom_type_description
_atom_type_scat_dispersion_real
_atom_type_scat_dispersion_imag
_atom_type_scat_source
Sm Sm -0.1638 3.4418 'International Tables Vol C Tables 4.2.6.8 and 6.1.1.4'
B B 0.0013 0.0007 'International Tables Vol C Tables 4.2.6.8 and 6.1.1.4'
O O 0.0106 0.0060 'International Tables Vol C Tables 4.2.6.8 and 6.1.1.4'
loop_
_geom_angle_atom_site_label_1
_geom_angle_atom_site_label_2
_geom_angle_atom_site_label_3
_geom_angle
_geom_angle_site_symmetry_1
_geom_angle_site_symmetry_3
O6 Sm1 O6 82.82(17) . 2_354
O6 Sm1 O9 137.81(12) . .
O6 Sm1 O9 125.72(11) 2_354 .
O6 Sm1 O9 125.72(11) . 2_354
O6 Sm1 O9 137.81(12) 2_354 2_354
O9 Sm1 O9 55.95(17) . 2_354
O6 Sm1 O8 57.35(12) . .
O6 Sm1 O8 132.19(12) 2_354 .
O9 Sm1 O8 81.54(12) . .
O9 Sm1 O8 89.52(12) 2_354 .
O6 Sm1 O8 132.19(12) . 2_354
O6 Sm1 O8 57.35(12) 2_354 2_354
O9 Sm1 O8 89.52(12) . 2_354
O9 Sm1 O8 81.54(12) 2_354 2_354
O8 Sm1 O8 169.90(17) . 2_354
O6 Sm1 O5 81.08(12) . .
O6 Sm1 O5 71.92(12) 2_354 .
O9 Sm1 O5 80.33(12) . .
O9 Sm1 O5 135.73(12) 2_354 .
O8 Sm1 O5 76.38(12) . .
O8 Sm1 O5 106.86(12) 2_354 .
O6 Sm1 O5 71.92(12) . 2_354
O6 Sm1 O5 81.08(12) 2_354 2_354
O9 Sm1 O5 135.73(12) . 2_354
O9 Sm1 O5 80.33(12) 2_354 2_354
O8 Sm1 O5 106.86(12) . 2_354
O8 Sm1 O5 76.38(12) 2_354 2_354
O5 Sm1 O5 143.84(17) . 2_354
O6 Sm1 B4 108.75(15) . 2_354
O6 Sm1 B4 29.20(14) 2_354 2_354
O9 Sm1 B4 108.58(14) . 2_354
O9 Sm1 B4 109.31(14) 2_354 2_354
O8 Sm1 B4 161.17(15) . 2_354
O8 Sm1 B4 28.15(14) 2_354 2_354
O5 Sm1 B4 89.44(14) . 2_354
O5 Sm1 B4 77.38(14) 2_354 2_354
O6 Sm1 B4 29.20(14) . .
O6 Sm1 B4 108.75(15) 2_354 .
O9 Sm1 B4 109.31(14) . .
O9 Sm1 B4 108.59(14) 2_354 .
O8 Sm1 B4 28.15(14) . .
O8 Sm1 B4 161.16(15) 2_354 .
O5 Sm1 B4 77.38(14) . .
O5 Sm1 B4 89.44(14) 2_354 .
B4 Sm1 B4 136.9(2) 2_354 .
O6 Sm1 B2 138.59(8) . .
O6 Sm1 B2 138.59(8) 2_354 .
O9 Sm1 B2 27.97(9) . .
O9 Sm1 B2 27.97(9) 2_354 .
O8 Sm1 B2 84.95(8) . .
O8 Sm1 B2 84.95(8) 2_354 .
O5 Sm1 B2 108.08(9) . .
O5 Sm1 B2 108.08(9) 2_354 .
B4 Sm1 B2 111.57(12) 2_354 .
B4 Sm1 B2 111.57(12) . .
O3 B1 O1 122.3(4) . .
O3 B1 O1 122.3(4) . 6_565
O1 B1 O1 115.4(7) . 6_565
O9 B2 O9 102.5(6) 2_354 .
O9 B2 O7 111.55(19) 2_354 .
O9 B2 O7 112.3(2) . .
O9 B2 O7 112.3(2) 2_354 2_354
O9 B2 O7 111.55(19) . 2_354
O7 B2 O7 106.6(6) . 2_354
O9 B2 Sm1 51.3(3) 2_354 .
O9 B2 Sm1 51.3(3) . .
O7 B2 Sm1 126.7(3) . .
O7 B2 Sm1 126.7(3) 2_354 .
O7 B3 O2 121.2(5) 7_354 .
O7 B3 O6 120.7(5) 7_354 .
O2 B3 O6 118.1(5) . .
O8 B4 O9 111.8(5) . 8
O8 B4 O6 105.7(4) . .
O9 B4 O6 111.8(4) 8 .
O8 B4 O4 110.2(5) . .
O9 B4 O4 110.4(4) 8 .
O6 B4 O4 106.7(4) . .
O8 B4 Sm1 53.3(2) . .
O9 B4 Sm1 127.3(4) 8 .
O6 B4 Sm1 52.4(2) . .
O4 B4 Sm1 122.2(3) . .
O5 B5 O5 115.3(7) 8 7_355
O5 B5 O8 104.3(2) 8 .
O5 B5 O8 110.98(19) 7_355 .
O5 B5 O8 110.98(19) 8 2_455
O5 B5 O8 104.3(2) 7_355 2_455
O8 B5 O8 111.0(7) . 2_455
B4 O4 B4 120.9(6) . 2_455
B5 O5 Sm1 116.3(3) 7_355 .
B3 O6 B4 119.7(4) . .
B3 O6 Sm1 133.1(3) . .
B4 O6 Sm1 98.4(3) . .
B3 O7 B2 124.1(4) 7_354 .
B4 O8 B5 118.8(4) . .
B4 O8 Sm1 98.5(3) . .
B5 O8 Sm1 140.1(3) . .
B4 O9 B2 125.5(4) 8_455 .
B4 O9 Sm1 112.0(3) 8_455 .
B2 O9 Sm1 100.8(3) . .
loop_
_geom_bond_atom_site_label_1
_geom_bond_atom_site_label_2
_geom_bond_distance
_geom_bond_site_symmetry_2
Sm1 O6 2.415(3) .
Sm1 O6 2.415(3) 2_354
Sm1 O9 2.434(4) .
Sm1 O9 2.434(4) 2_354
Sm1 O8 2.445(3) .
Sm1 O8 2.445(3) 2_354
Sm1 O5 2.500(4) .
Sm1 O5 2.500(4) 2_354
Sm1 B4 3.016(6) 2_354
Sm1 B4 3.016(6) .
Sm1 B2 3.065(9) .
B1 O3 1.360(10) .
B1 O1 1.374(6) .
B1 O1 1.374(6) 6_565
B2 O9 1.464(7) 2_354
B2 O9 1.464(7) .
B2 O7 1.482(6) .
B2 O7 1.482(6) 2_354
B3 O7 1.361(7) 7_354
B3 O2 1.374(7) .
B3 O6 1.376(7) .
B4 O8 1.439(7) .
B4 O9 1.451(6) 8
B4 O6 1.487(7) .
B4 O4 1.479(7) .
B5 O5 1.471(6) 8
B5 O5 1.471(6) 7_355
B5 O8 1.489(6) .
B5 O8 1.489(6) 2_455
O4 B4 1.479(7) 2_455
O5 B5 1.471(6) 7_355
O7 B3 1.361(7) 7_354
O9 B4 1.451(6) 8_455
O1WA O1WB 0.436(17) 2_455
O1WB O1WB 0.87(3) 2_455
