#------------------------------------------------------------------------------
#$Date: 2017-11-07 11:35:30 +0200 (Tue, 07 Nov 2017) $
#$Revision: 202896 $
#$URL: file:///home/coder/svn-repositories/cod/cif/1/54/78/1547892.cif $
#------------------------------------------------------------------------------
#
# This file is available in the Crystallography Open Database (COD),
# http://www.crystallography.net/
#
# All data on this site have been placed in the public domain by the
# contributors.
#
data_1547892
loop_
_publ_author_name
'Xuemiao Yin'
'Yaxing Wang'
'Xiaojing Bai'
'Yumin Wang'
'Lanhua Chen'
'Chengliang Xiao'
'Juan Diwu'
'Shiyu Du'
'Zhifang Chai'
'Thomas E. Albrecht-Schmitt'
'Shuao Wang'
_publ_section_title
;
 Rare earth separations by selective borate crystallization
;
_journal_name_full               'Nature Communications'
_journal_page_first              14438
_journal_paper_doi               10.1038/ncomms14438
_journal_volume                  8
_journal_year                    2017
_chemical_formula_moiety         'B24 O49 Lu4'
_chemical_formula_sum            'B24 Lu4 O49'
_chemical_formula_weight         1743.32
_chemical_name_common            'Lutecium borate'
_space_group_crystal_system      trigonal
_space_group_IT_number           148
_space_group_name_Hall           '-R 3'
_space_group_name_H-M_alt        'R -3 :H'
_symmetry_space_group_name_Hall  '-R 3'
_symmetry_space_group_name_H-M   'R -3 :H'
_atom_sites_solution_hydrogens   .
_cell_angle_alpha                90
_cell_angle_beta                 90
_cell_angle_gamma                120
_cell_formula_units_Z            6
_cell_length_a                   17.0783(4)
_cell_length_b                   17.0783(4)
_cell_length_c                   20.3077(11)
_cell_measurement_reflns_used    6100
_cell_measurement_temperature    298(2)
_cell_measurement_theta_max      38.29
_cell_measurement_theta_min      1.70
_cell_volume                     5129.6(3)
_computing_cell_refinement       'Bruker SMART'
_computing_data_collection       'Bruker SMART'
_computing_data_reduction        'Bruker SAINT'
_computing_molecular_graphics    'SHELXL-2014/7 (Sheldrick, 2014)'
_computing_publication_material  'SHELXL-2014/7 (Sheldrick, 2014)'
_computing_structure_refinement  'SHELXL-2014/7 (Sheldrick, 2014)'
_computing_structure_solution    'SHELXL-2014/7 (Sheldrick, 2014)'
_diffrn_ambient_temperature      298(2)
_diffrn_measured_fraction_theta_full 0.972
_diffrn_measured_fraction_theta_max 0.999
_diffrn_measurement_device_type  'Bruker Aperx II'
_diffrn_radiation_type           MoK\a
_diffrn_radiation_wavelength     0.71073
_diffrn_reflns_av_R_equivalents  0.0455
_diffrn_reflns_av_unetI/netI     0.0250
_diffrn_reflns_Laue_measured_fraction_full 0.972
_diffrn_reflns_Laue_measured_fraction_max 0.999
_diffrn_reflns_limit_h_max       20
_diffrn_reflns_limit_h_min       -20
_diffrn_reflns_limit_k_max       20
_diffrn_reflns_limit_k_min       -20
_diffrn_reflns_limit_l_max       24
_diffrn_reflns_limit_l_min       -24
_diffrn_reflns_number            16176
_diffrn_reflns_point_group_measured_fraction_full 0.972
_diffrn_reflns_point_group_measured_fraction_max 0.999
_diffrn_reflns_theta_full        25.242
_diffrn_reflns_theta_max         24.991
_diffrn_reflns_theta_min         1.703
_diffrn_source                   'fine-focus sealed tube'
_exptl_absorpt_coefficient_mu    11.621
_exptl_absorpt_correction_T_max  0.672
_exptl_absorpt_correction_T_min  0.666
_exptl_absorpt_correction_type   multi-scan
_exptl_absorpt_process_details   'SADABS, Bruker'
_exptl_crystal_colour            colorless
_exptl_crystal_density_diffrn    3.386
_exptl_crystal_description       block
_exptl_crystal_F_000             4776
_exptl_crystal_size_max          0.035
_exptl_crystal_size_mid          0.035
_exptl_crystal_size_min          0.035
_refine_diff_density_max         0.952
_refine_diff_density_min         -2.302
_refine_diff_density_rms         0.201
_refine_ls_extinction_coef       .
_refine_ls_extinction_method     none
_refine_ls_goodness_of_fit_ref   1.173
_refine_ls_hydrogen_treatment    undef
_refine_ls_matrix_type           full
_refine_ls_number_parameters     232
_refine_ls_number_reflns         2011
_refine_ls_number_restraints     66
_refine_ls_restrained_S_all      1.157
_refine_ls_R_factor_all          0.0573
_refine_ls_R_factor_gt           0.0364
_refine_ls_shift/su_max          0.001
_refine_ls_shift/su_mean         0.000
_refine_ls_structure_factor_coef Fsqd
_refine_ls_weighting_details
'w=1/[\s^2^(Fo^2^)+268.9404P] where P=(Fo^2^+2Fc^2^)/3'
_refine_ls_weighting_scheme      calc
_refine_ls_wR_factor_gt          0.0573
_refine_ls_wR_factor_ref         0.0610
_reflns_Friedel_coverage         0.000
_reflns_Friedel_fraction_full    .
_reflns_Friedel_fraction_max     .
_reflns_number_gt                1478
_reflns_number_total             2011
_reflns_threshold_expression     'I > 2\s(I)'
_cod_data_source_file            ncomms14438-5.cif
_cod_data_source_block           LuBOCl-5
_cod_depositor_comments
;
The following automatic conversions were performed:

'_exptl_absorpt_correction_type' value 'Multi-scan' changed to
'multi-scan' according to the built-in table from CIF Core dictionary
named 'cif_core.dic' version 2.4.1 from 2010-06-29.

Automatic conversion script
Id: cif_fix_values 5376 2017-05-30 11:51:03Z andrius 
;
_cod_original_cell_volume        5129.6(4)
_cod_database_code               1547892
_shelx_space_group_comment
;
The symmetry employed for this shelxl refinement is uniquely defined
by the following loop, which should always be used as a source of
symmetry information in preference to the above space-group names.
They are only intended as comments.
;
_shelxl_version_number           2014-3
_shelx_res_file
;
TITL save in R3                  New: R-3
CELL  0.71073   17.0783   17.0783   20.3077    90.000    90.000   120.000
ZERR        6    0.0004    0.0004    0.0011     0.000     0.000     0.000
LATT   3
SYMM             - Y ,          X - Y ,              Z
SYMM         - X + Y ,            - X ,              Z
SFAC Lu B O
UNIT 24 144 294
TEMP 25

L.S. 100
ACTA
isor 0.005 0.001 O2 O8 O14 O5 O3 O7 B6
ISOR 0.001 0.005 O8 O1 O12 B4 O14 B8
omit -0 50
FMAP 2
PLAN 20
CONF
WGHT    0.000000  268.940399
FVAR       0.01783
LU1   1    0.000000    0.000000    0.252346    10.33330    0.01145    0.01145 =
         0.01003    0.00000    0.00000    0.00572
LU2   1   -0.172897    0.157281   -0.085225    11.00000    0.00612    0.00559 =
         0.00417   -0.00043   -0.00041    0.00309
B1    2   -0.219998    0.025158    0.049923    11.00000    0.00918    0.00956 =
         0.00762    0.00194   -0.00045    0.00288
B2    2    0.016237    0.183219    0.164419    11.00000    0.00480    0.00532 =
         0.01306    0.00117    0.00288   -0.00007
B3    2    0.317226    0.526396    0.292090    11.00000    0.01485    0.02008 =
         0.00940   -0.00122   -0.00173    0.00982
B4    2   -0.057776    0.148897    0.051720    11.00000    0.00800    0.00787 =
         0.00802    0.00021    0.00010    0.00392
B5    2    0.293418    0.398065    0.217379    11.00000    0.00905    0.01015 =
         0.00904   -0.00552   -0.00375    0.00513
B6    2    0.150417    0.140524    0.334518    11.00000    0.01547    0.00899 =
         0.00829   -0.00180    0.00080    0.00645
B7    2    0.159347    0.237604    0.234778    11.00000    0.01391    0.01554 =
         0.01046    0.00322    0.00050    0.00772
B8    2   -0.323950    0.026270    0.138995    11.00000    0.00918    0.00881 =
         0.00864    0.00038   -0.00042    0.00454
O1    3   -0.243696    0.080144    0.008249    11.00000    0.00925    0.00941 =
         0.00881    0.00087   -0.00052    0.00491
O2    3    0.244187    0.421560    0.169175    11.00000    0.01095    0.00882 =
         0.00748   -0.00374   -0.00573    0.00466
O3    3   -0.286762   -0.015415    0.103784    11.00000    0.00474    0.00275 =
         0.00365    0.00227    0.00154    0.00171
O4    3    0.245565    0.186381    0.347190    11.00000    0.00866    0.01097 =
         0.00859    0.00077   -0.00305    0.00528
O5    3    0.124788    0.157697    0.268511    11.00000    0.01467    0.01606 =
         0.00850    0.00246   -0.00467    0.00611
O6    3    0.363794    0.389115    0.185517    11.00000    0.01157    0.01651 =
         0.00791   -0.00266   -0.00062    0.00986
O7    3    0.349585    0.478286    0.259523    11.00000    0.00912    0.01243 =
         0.00558   -0.00720   -0.00219    0.00634
O8    3    0.373784    0.595793    0.333312    11.00000    0.01257    0.01315 =
         0.01246   -0.00043    0.00072    0.00612
O9    3   -0.021329    0.086640    0.178925    11.00000    0.00864    0.00481 =
         0.01209    0.00311    0.00086    0.00155
O10   3    0.114855    0.236984    0.178225    11.00000    0.00933    0.01258 =
         0.00193    0.00243   -0.00126    0.00511
O11   3    0.229804    0.501929    0.283826    11.00000    0.01319    0.02176 =
         0.01674   -0.00957   -0.00645    0.01035
O12   3   -0.130085    0.077901    0.077759    11.00000    0.01043    0.01050 =
         0.00982    0.00045   -0.00076    0.00413
O13   3   -0.030037    0.220182    0.203115    11.00000    0.01062    0.01389 =
         0.01007    0.00145    0.00607    0.00655
O14   3    0.015683    0.198672    0.092340    11.00000    0.00664    0.00701 =
         0.00595   -0.00011   -0.00031    0.00289
O15   3   -0.229203   -0.053477    0.012882    11.00000    0.01081    0.00744 =
         0.00194    0.00030   -0.00098    0.00518
O16   3    0.234423    0.314445    0.255330    11.00000    0.00632    0.01527 =
         0.00687    0.00364   -0.00152   -0.00049
O2W   3    0.000000    0.000000    0.500000    10.16667    0.07020    0.07020 =
         0.02299    0.00000    0.00000    0.03510
O1W   3    0.000000    0.000000    0.000000    10.16667    0.17595

HKLF 4 1  0.0000  1.0000  0.0000  1.0000  0.0000  0.0000  0.0000  0.0000 -1.0000

REM  save in R3                  New: R-3
REM R1 =  0.0364 for    1478 Fo > 4sig(Fo)  and  0.0573 for all    2011 data
REM    232 parameters refined using     66 restraints

END

WGHT      0.0000    312.9140

REM Highest difference peak  0.952,  deepest hole -2.302,  1-sigma level  0.201
Q1    1  -0.1370  0.1420 -0.0910  11.00000  0.05    0.95
Q2    1   0.0964  0.2035  0.2892  11.00000  0.05    0.87
Q3    1   0.0761  0.0251  0.5270  11.00000  0.05    0.81
Q4    1  -0.2239  0.1445 -0.0923  11.00000  0.05    0.78
Q5    1  -0.0927  0.2256  0.1310  11.00000  0.05    0.76
Q6    1   0.4016  0.5217  0.2429  11.00000  0.05    0.76
Q7    1   0.3686  0.6405  0.3242  11.00000  0.05    0.75
Q8    1  -0.1097  0.0618  0.0718  11.00000  0.05    0.74
Q9    1   0.2418  0.2329  0.3536  11.00000  0.05    0.66
Q10   1   0.2885  0.3411  0.2478  11.00000  0.05    0.65
Q11   1  -0.2256 -0.0513  0.0518  11.00000  0.05    0.65
Q12   1  -0.0647  0.0560  0.1545  11.00000  0.05    0.62
Q13   1  -0.2710  0.1019  0.0324  11.00000  0.05    0.61
Q14   1  -0.1511  0.0821  0.0929  11.00000  0.05    0.60
Q15   1   0.2149  0.5670  0.2173  11.00000  0.05    0.59
Q16   1   0.0000  0.0000  0.3174  10.33333  0.05    0.59
Q17   1   0.0219  0.1628  0.1079  11.00000  0.05    0.59
Q18   1   0.2493  0.4001  0.1880  11.00000  0.05    0.57
Q19   1  -0.1900  0.0833  0.1993  11.00000  0.05    0.57
Q20   1  -0.0701  0.0570  0.2200  11.00000  0.05    0.57
;
_shelx_res_checksum              22779
_shelx_hkl_file
;
  -2   1   0    0.09    0.16
   1  -2   0    0.05    0.14
   1  -2   0   -0.07    0.18
   1   1   0   -0.12    0.11
   1   1   0   -0.09    0.18
  -2   1   0    0.04    0.10
  -1   2   0    0.08    0.14
   2  -1   0   -0.02    0.19
  -1  -1   0    0.12    0.15
  -1   2   0    0.14    0.14
  -1  -1   0    0.04    0.08
   2  -1   0    0.11    0.19
   3   0   0    2.13    0.38
   3   0   0    1.70    0.39
  -3   3   0    1.94    0.41
  -3   3   0    1.94    0.38
   0  -3   0    2.57    0.46
   0  -3   0    1.65    0.32
   3  -3   0    2.77    0.49
   0   3   0    2.35    0.35
   0   3   0    2.24    0.36
   3  -3   0    2.04    0.37
   2   2   0  404.28   10.05
  -4   2   0  407.00   10.00
   2  -4   0  408.45   10.04
   2  -4   0  424.61   10.18
   2   2   0  415.26    9.84
   2   2   0  399.10    9.63
  -4   2   0  404.87    9.76
  -2  -2   0  403.51    9.67
  -2   4   0  410.69    9.96
   4  -2   0  410.23   10.13
   4  -2   0  411.70    9.76
   4  -2   0  430.30   10.18
  -2  -2   0  405.59   10.00
   1   4   0    3.14    0.49
  -5   1   0    2.90    0.30
   4  -5   0    3.20    0.74
  -5   1   0    2.96    0.53
   1   4   0    3.47    0.51
   4  -5   0    3.57    0.66
  -1  -4   0    3.11    0.50
  -4   5   0    3.22    0.57
   5  -1   0    3.97    0.74
   5  -1   0    3.77    0.58
   5  -1   0    3.44    0.34
  -4   5   0    3.34    0.60
  -1  -4   0    3.25    0.58
   4   1   0    3.76    0.69
  -5   4   0    3.47    0.57
  -5   4   0    3.07    0.58
   1  -5   0    3.22    0.64
   4   1   0    3.06    0.55
   1  -5   0    3.15    0.56
   5  -4   0    4.15    0.76
  -4  -1   0    3.39    0.24
   5  -4   0    3.26    0.58
  -1   5   0    2.98    0.52
  -1   5   0    3.12    0.52
   3  -6   0   -0.03    0.48
   3  -6   0   -0.04    0.56
   3   3   0   -0.19    0.39
   3   3   0    0.17    0.27
  -6   3   0    0.22    0.38
   3   3   0   -0.03    0.43
   6  -3   0    0.05    0.57
  -3   6   0    1.12    0.48
  -3  -3   0   -0.10    0.47
  -3   6   0    0.70    0.45
   6  -3   0   -0.10    0.36
  -3  -3   0    0.25    0.28
   0  -6   0  532.15   13.48
  -6   6   0  543.66   13.44
   6   0   0  540.89   13.52
  -6   6   0  541.59   13.35
   0  -6   0  525.15   13.24
   0   6   0  533.48   13.13
   6  -6   0  539.09   13.75
   0   6   0  541.86   13.20
   6  -6   0  525.85   13.31
   5  -7   0    1.07    0.81
   5  -7   0    2.52    0.77
   2   5   0    1.35    0.50
   2   5   0    1.75    0.56
  -7   2   0    1.54    0.58
  -7   2   0    1.22    0.32
  -2  -5   0    1.35    0.50
  -5   7   0    2.03    0.63
  -5   7   0    1.31    0.57
   7  -2   0    1.63    0.69
   7  -2   0    1.82    0.82
  -2  -5   0    0.31    0.57
   7  -2   0    1.63    0.40
   2  -7   0    1.37    0.68
  -7   5   0    0.07    0.48
   2  -7   0    1.21    0.70
   5   2   0    0.31    0.68
  -7   5   0    0.08    0.42
   7  -5   0    0.10    0.54
  -2   7   0   -0.26    0.47
  -2   7   0   -0.67    0.46
  -5  -2   0    0.31    0.25
   7  -5   0    0.65    0.67
   7  -8   0    9.47    1.35
  -8   1   0    9.39    1.18
   1   7   0   10.21    1.09
   1   7   0    8.51    0.97
   7  -8   0    9.88    1.26
  -1  -7   0   10.13    1.15
  -1  -7   0    9.21    1.25
  -7   8   0   10.15    1.26
  -7   8   0    7.95    1.07
   8  -1   0    9.70    1.13
   8  -1   0   10.01    1.39
  -8   4   0  401.85   10.49
   4  -8   0  419.97   10.72
   4   4   0  415.81   10.25
   4   4   0  394.17   11.11
   4  -8   0  399.24   10.88
  -8   4   0  397.35   10.07
  -4   8   0  415.91   10.49
  -4   8   0  403.99   10.63
  -4  -4   0  382.95   10.86
  -4  -4   0  412.85    9.94
   8  -4   0  410.14   10.06
   8  -4   0  419.37   10.89
  -8   7   0   16.85    1.41
   7   1   0   17.41    1.59
   7   1   0   16.36    1.32
  -8   7   0   16.95    1.39
   1  -8   0   16.40    1.50
   1  -8   0   15.22    1.46
  -1   8   0   16.13    1.20
   8  -7   0   17.51    1.53
  -1   8   0   15.82    1.28
   8  -7   0   16.33    1.57
   6  -9   0   -0.30    0.84
   6  -9   0   -1.33    0.91
   3   6   0    0.43    0.59
   3   6   0    0.24    0.56
  -9   3   0    1.22    0.71
   9  -3   0    0.85    0.52
  -3  -6   0    0.64    0.73
   9  -3   0    0.31    0.85
   9  -3   0   -0.65    0.70
  -6   9   0    0.66    0.72
  -6   9   0   -0.19    0.72
  -3  -6   0    0.01    0.56
  -9   6   0    1.35    0.65
   3  -9   0    0.95    0.88
   6   3   0    1.37    0.67
   3  -9   0    1.56    0.84
   6   3   0    0.88    0.87
  -9   6   0    0.06    0.70
  -6  -3   0    2.23    0.76
  -3   9   0    0.88    0.67
   9  -6   0    1.56    0.88
  -6  -3   0    2.04    0.42
  -3   9   0    1.04    0.72
   9  -6   0    1.11    1.13
   0  -9   0    4.46    1.11
   9   0   0    5.97    1.34
   9   0   0    5.54    1.08
  -9   9   0    5.30    1.10
   0  -9   0    4.20    1.07
  -9   9   0    3.36    0.92
   0   9   0    3.97    0.92
   9  -9   0    3.36    1.30
   0   9   0    5.04    0.91
 -10   2   0  502.62   12.88
   8 -10   0  463.99   12.98
   2   8   0  476.21   12.53
   2   8   0  495.33   12.60
   8 -10   0  492.21   13.50
  -2  -8   0  492.49   12.61
  -8  10   0  507.38   15.03
  -2  -8   0  495.07   13.08
  -8  10   0  500.76   13.08
  10  -2   0  483.90   13.23
  10  -2   0  502.35   13.06
 -10   5   0    0.71    0.89
   5   5   0    0.26    0.92
   5 -10   0   -1.16    1.06
 -10   5   0    0.95    0.60
   5   5   0    2.13    0.76
   5 -10   0    0.72    0.88
  -5  10   0    1.12    0.79
  10  -5   0    0.95    0.98
  -5  -5   0    1.84    0.61
  -5  10   0    0.88    0.86
  -5  -5   0    0.95    0.79
 -10   8   0  427.84   11.43
   2 -10   0  437.44   11.76
   8   2   0  427.71   11.79
   2 -10   0  436.20   11.95
   8   2   0  445.25   11.34
 -10   8   0  448.50   11.88
  10  -8   0  418.25   12.02
  -2  10   0  430.10   11.52
  -2  10   0  430.81   11.38
   1  10   0   -1.24    0.89
 -11   1   0   -0.85    1.00
  10 -11   0    0.10    1.17
   1  10   0   -1.29    0.92
 -10  11   0   -0.22    1.07
 -10  11   0    0.55    0.96
  11  -1   0   -0.06    1.17
  -1 -10   0   -0.06    1.13
  -1 -10   0   -0.48    0.91
  11  -1   0   -1.88    1.09
   7 -11   0    8.10    1.54
   7 -11   0    8.10    1.69
   4   7   0    9.09    1.22
 -11   4   0    8.54    1.29
  11  -4   0    7.60    1.52
  -7  11   0    6.89    1.18
  -7  11   0    8.92    1.54
  -4  -7   0    7.83    1.60
  -4  -7   0    6.77    1.03
 -11   7   0    0.78    0.97
   4 -11   0    0.35    0.96
 -11   7   0    1.14    0.70
   7   4   0   -0.30    1.01
   4 -11   0    0.64    1.11
   7   4   0    1.51    0.82
  -4  11   0    1.07    1.08
  -7  -4   0    0.45    0.90
  -7  -4   0    0.54    0.46
  11  -7   0    1.05    1.16
  -4  11   0    0.27    1.69
  10   1   0    4.11    1.21
 -11  10   0    4.21    1.09
  10   1   0    5.62    1.45
   1 -11   0    4.17    1.42
   1 -11   0    5.42    1.34
 -11  10   0    5.96    1.35
  11 -10   0    4.01    1.45
  -1  11   0    5.17    1.24
  -1  11   0    4.19    1.15
   9 -12   0    0.32    1.27
 -12   3   0   -1.71    0.98
   3   9   0    0.56    0.86
  -9  12   0    1.65    1.04
  -3  -9   0   -0.40    1.06
  12  -3   0    0.96    1.33
  -9  12   0    1.38    1.11
  12  -3   0   -0.11    1.10
  -3  -9   0   -0.37    0.88
   6   6   0  352.75    9.43
 -12   6   0  349.79    9.82
   6 -12   0  335.43   11.05
   6   6   0  348.24   10.01
   6 -12   0  356.99   10.17
  -6  -6   0  351.40    9.89
  -6  -6   0  315.54    9.75
  -6  12   0  348.50    9.74
  12  -6   0  366.20   10.44
  -6  12   0  346.16   10.01
   9   3   0    6.27    1.27
   3 -12   0    7.60    1.53
   9   3   0    6.01    1.46
   3 -12   0    4.97    1.62
 -12   9   0    7.46    1.45
 -12   9   0    3.32    1.10
  -9  -3   0    6.00    1.38
  -3  12   0    5.84    1.28
  12  -9   0    4.78    1.59
 -12  12   0  320.29   10.15
   0 -12   0  303.98    9.05
   0 -12   0  302.32    9.48
  12   0   0  296.48    8.99
  12   0   0  300.90    9.47
 -12  12   0  312.09    9.23
 -12   0   0  295.34    8.93
   0  12   0  300.87    8.74
   0  12   0  294.84    8.80
  12 -12   0  293.89    9.71
   2  11   0    0.75    1.07
 -13   2   0    1.16    1.16
  11 -13   0    0.18    1.40
 -11  13   0   -0.81    1.19
  -2 -11   0    0.46    1.39
  13  -2   0    0.25    1.41
  -2 -11   0    1.16    1.24
 -11  13   0    1.59    1.30
  13  -2   0    1.06    1.36
   8 -13   0    3.90    1.68
   8 -13   0    0.24    1.24
   5   8   0   -0.01    1.00
 -13   5   0   -0.70    1.00
  -5  -8   0    0.63    1.04
  -5  -8   0    0.39    1.15
  -8  13   0    0.84    1.05
  -8  13   0    2.94    1.43
  13  -5   0    1.13    1.26
 -13   8   0    0.20    0.85
   5 -13   0    1.73    1.64
   8   5   0    1.84    1.29
 -13   8   0    1.24    1.05
   8   5   0    1.93    1.05
   5 -13   0    1.07    1.42
  -5  13   0    1.11    1.32
  -5  13   0   -0.87    0.95
  -8  -5   0    1.61    1.13
  -8  -5   0    0.26    0.61
  13  -8   0    0.28    1.25
 -13  11   0   10.20    2.68
 -13  11   0    7.68    1.55
   2 -13   0    9.54    1.75
  11   2   0    7.86    1.62
  11   2   0    7.50    1.85
  13 -11   0    5.44    1.79
  -2  13   0   10.05    1.81
  -2  13   0    7.39    1.47
 -14   1   0   -0.25    1.22
   1  13   0   -0.46    1.26
  13 -14   0    1.61    1.70
  -1 -13   0   -0.26    1.47
 -13  14   0   -0.81    1.37
  14  -1   0   -0.01    1.60
 -13  14   0    0.74    1.31
  -1 -13   0    1.95    1.73
  14  -1   0    1.05    1.41
 -14   4   0  331.51    9.63
   4  10   0  326.92    9.25
  10 -14   0  308.36   10.34
  -4 -10   0  316.75    9.81
 -10  14   0  331.23    9.96
 -10  14   0  321.38    9.73
  -4 -10   0  316.19    9.13
  14  -4   0  327.24   10.26
   7 -14   0    0.35    1.43
   7 -14   0    3.38    2.14
 -14   7   0    1.59    1.32
   7   7   0    1.53    1.14
  -7  -7   0    0.57    1.27
  -7  -7   0    1.26    0.83
  -7  14   0    2.73    1.46
  14  -7   0    1.03    1.58
  -7  14   0    2.10    1.39
   4 -14   0  244.28    8.19
 -14  10   0  246.48    7.79
  10   4   0  228.37    7.90
 -14  10   0  228.48    7.22
   4 -14   0  226.45    7.83
  10   4   0  232.11    7.26
 -10  -4   0  239.58    7.71
  14 -10   0  243.26    8.39
  -4  14   0  234.00    7.69
  -4  14   0  236.71    7.49
   1 -14   0    3.34    1.65
 -14  13   0    1.11    1.56
 -14  13   0   -0.17    1.33
  13   1   0    1.63    1.79
  13   1   0    2.75    1.58
  14 -13   0   -0.37    1.56
  -1  14   0   -0.23    1.22
 -13  -1   0    2.32    1.32
 -15   3   0    0.15    1.70
   3  12   0    0.25    1.33
  12 -15   0    3.46    2.26
 -12  15   0   -0.08    1.68
  -3 -12   0    1.32    1.52
  15  -3   0    1.66    1.55
  -3 -12   0   -2.67    1.53
  15  -3   0    1.14    2.05
 -12  15   0    0.86    1.30
   9 -15   0    6.45    2.40
   6   9   0    3.44    1.33
 -15   6   0    6.27    1.98
  -6  -9   0    1.20    1.31
  15  -6   0    3.76    1.77
  -6  -9   0    4.12    1.22
  -9  15   0    4.29    1.78
  -9  15   0    5.99    1.47
   6 -15   0   -5.31    2.22
   9   6   0    0.19    1.56
   9   6   0   -0.70    1.25
   6 -15   0    0.53    1.88
 -15   9   0   -0.82    1.19
  -9  -6   0    1.20    1.36
  15  -9   0   -0.29    1.62
  -6  15   0   -0.21    1.32
  -9  -6   0   -0.14    0.75
  -6  15   0    1.07    1.79
  12   3   0    2.23    1.79
   3 -15   0   -1.46    1.45
  12   3   0   -1.18    1.39
 -15  12   0   -0.81    1.31
 -15  12   0    2.30    1.40
  15 -12   0    1.39    2.10
 -12  -3   0    1.49    1.61
 -15  15   0    1.22    1.97
  15   0   0    0.25    1.80
 -15  15   0    3.30    1.76
  15   0   0   -1.14    1.91
   0 -15   0    1.60    1.72
  15 -15   0   -0.75    1.74
   0  15   0    0.61    1.54
 -15   0   0    1.06    1.78
  14 -16   0  138.02    6.59
   2  14   0  138.98    5.51
 -16   2   0  130.40    6.31
  -2 -14   0  137.97    6.29
  16  -2   0  140.61    9.53
 -14  16   0  143.43    6.18
  16  -2   0  135.69    6.12
 -14  16   0  141.31    5.89
 -16   5   0    2.76    1.92
   5  11   0    0.90    1.20
  11 -16   0   -1.91    1.66
 -11  16   0    2.23    1.42
 -11  16   0    4.08    1.85
  -5 -11   0    3.99    1.69
  16  -5   0    1.24    1.74
  -5 -11   0    3.98    1.76
   8   8   0  169.75    5.86
 -16   8   0  164.81    6.11
  16  -8   0  169.75    6.87
  -8  -8   0  168.19    5.16
  -8  16   0  159.31    6.13
  -8  -8   0  169.74    6.39
  -8  16   0  164.51    6.51
  11   5   0    1.70    1.83
 -16  11   0    0.90    1.49
  11   5   0    1.53    1.52
  -5  16   0    2.60    1.83
 -11  -5   0    1.97    1.61
  -5  16   0    2.19    1.48
  16 -11   0    0.57    2.08
  14   2   0  193.51    7.71
  14   2   0  202.68    7.20
   2 -16   0  208.22    7.97
 -16  14   0  203.74    7.36
  -2  16   0  194.89    7.02
 -14  -2   0  195.84    7.16
  16 -14   0  193.22    8.00
 -17   1   0    2.29    1.92
  16 -17   0    2.69    2.38
   1  16   0   -0.17    1.58
 -16  17   0    0.30    2.08
  -1 -16   0    0.62    2.20
  17  -1   0   -0.11    2.32
  17  -1   0    3.66    2.40
 -17   4   0    8.71    2.01
   4  13   0    4.66    1.68
  13 -17   0    8.16    2.32
  -4 -13   0    6.68    1.94
 -13  17   0    5.65    2.02
 -13  17   0    8.25    1.96
  17  -4   0    4.36    2.23
  10 -17   0   -1.30    2.10
   7  10   0    0.27    1.74
 -17   7   0   -1.30    1.57
 -10  17   0    1.21    2.18
 -10  17   0   -1.68    1.63
  -7 -10   0    1.63    1.38
  -7 -10   0    0.18    1.75
  17  -7   0   -2.02    1.60
   7 -17   0    5.65    2.01
  10   7   0    7.30    1.81
 -17  10   0    5.74    1.86
  17 -10   0    7.23    2.28
  -7  17   0    5.37    2.17
 -10  -7   0    8.28    1.10
  -7  17   0    7.29    1.94
  13   4   0    3.91    1.89
 -17  13   0    1.91    1.61
   4 -17   0    2.04    2.14
  13   4   0    0.49    2.23
  -4  17   0    1.25    1.51
  17 -13   0    2.69    2.40
 -13  -4   0    2.21    2.00
   1 -17   0    1.86    2.36
  16   1   0    0.33    2.41
 -17  16   0    0.56    1.79
  16   1   0    3.58    2.45
  -1  17   0    5.55    2.10
 -16  -1   0    3.27    1.99
  17 -16   0   -2.26    2.43
 -18   3   0    2.85    2.06
   3  15   0    4.62    2.03
  15 -18   0    1.17    2.51
  -3 -15   0    2.43    2.35
 -15  18   0    5.31    2.01
  18  -3   0   -1.02    2.36
 -18   6   0  126.80    5.70
   6  12   0  130.42    5.35
  12 -18   0  137.53    6.60
  -6 -12   0  127.16    5.85
  18  -6   0  139.13    6.63
 -12  18   0  135.12    6.44
 -12  18   0  120.59    5.65
   9 -18   0    0.23    1.81
   9   9   0    2.90    1.90
 -18   9   0    4.92    1.96
  -9  18   0    3.40    2.14
  -9  18   0    3.56    1.92
  18  -9   0    5.94    2.40
  -9  -9   0    4.41    1.37
   6 -18   0  137.84    6.70
  12   6   0  137.72    6.48
  12   6   0  130.02    6.33
 -18  12   0  145.06    5.99
  -6  18   0  143.15    5.93
 -12  -6   0  135.29    6.10
  18 -12   0  137.55    6.97
   3 -18   0   -3.59    2.26
 -18  15   0    1.54    2.12
  15   3   0    1.92    2.47
  15   3   0    1.81    2.26
  -3  18   0   -0.62    1.60
 -15  -3   0    1.72    2.16
 -15  -3   0   -2.49    2.04
  18 -15   0    4.71    2.47
 -18  18   0   83.07    5.43
  18   0   0   94.16    6.03
   0 -18   0   97.99    5.72
  18   0   0   88.22    5.75
  18 -18   0   99.12    6.33
 -18   0   0   88.31    5.18
   0  18   0   89.93    5.06
   2  17   0    4.02    2.20
 -19   2   0    7.04    2.48
  17 -19   0    9.36    3.45
  -2 -17   0    1.49    2.36
 -17  19   0    3.76    2.25
  19  -2   0    3.06    2.71
  14 -19   0   -0.20    2.28
 -19   5   0   -2.12    2.00
   5  14   0   -0.63    1.87
 -14  19   0    0.79    1.84
  -5 -14   0    3.32    2.35
  19  -5   0    2.02    2.59
 -19   8   0   -0.56    1.91
   8  11   0    0.08    1.96
  11 -19   0    2.51    2.54
  19  -8   0    2.87    2.66
 -11  19   0    4.75    2.70
 -11  19   0    1.04    1.92
  -8 -11   0    0.35    1.87
   8 -19   0    1.30    2.19
  11   8   0    0.46    2.04
 -19  11   0   -1.21    1.92
  19 -11   0    1.88    2.46
 -11  -8   0    2.42    2.15
  -8  19   0   -0.72    1.59
   5 -19   0   10.23    2.72
 -19  14   0    5.54    2.45
  14   5   0    4.85    2.62
  14   5   0    4.08    2.43
 -14  -5   0    3.16    2.29
  -5  19   0   10.23    2.36
  19 -14   0    9.47    2.89
 -19  17   0    2.94    2.16
  17   2   0    5.27    3.11
   2 -19   0    7.23    2.88
  17   2   0    6.76    2.95
  19 -17   0   10.29    3.22
 -17  -2   0    2.98    2.42
  -2  19   0    6.99    2.39
 -17  -2   0    5.15    2.60
 -20   1   0    0.08    2.64
   1  19   0   -3.26    2.54
  19 -20   0    6.21    3.36
  20  -1   0    4.74    3.37
  -1 -19   0   -0.08    3.08
 -19  20   0   -0.61    2.46
   4  16   0   97.95    5.29
  16 -20   0   93.47    6.40
 -20   4   0  100.94    5.50
 -16  20   0   98.55    5.56
  -4 -16   0  100.94    6.22
  20  -4   0   90.27    5.92
   7  13   0   -0.83    2.00
  13 -20   0    2.05    2.78
 -20   7   0    6.57    2.35
 -13  20   0    1.65    2.04
  -7 -13   0   -0.38    2.36
  20  -7   0   -0.43    2.35
  10 -20   0  129.02    7.11
  10  10   0  107.97    5.44
 -20  10   0  121.20    6.02
 -10  20   0  123.60    5.79
  20 -10   0  124.64    6.68
 -10 -10   0  130.62    6.32
 -10 -10   0  125.18    4.64
  13   7   0    0.21    2.31
   7 -20   0   -2.84    2.15
 -20  13   0    2.33    1.94
  -7  20   0   -1.35    1.84
  20 -13   0    2.48    2.57
 -13  -7   0    4.57    2.50
  16   4   0   92.81    5.66
 -20  16   0   89.01    5.35
   4 -20   0   98.80    6.58
  16   4   0   96.58    6.13
 -16  -4   0  104.01    5.70
  -4  20   0   96.33    5.44
  20 -16   0   99.80    6.83
 -16  -4   0   95.15    5.66
  19   1   0    3.25    3.51
 -20  19   0    3.56    3.05
   1 -20   0    1.39    3.07
  19   1   0   -1.69    3.29
  -1  20   0   -0.80    2.50
 -19  -1   0    0.59    2.93
 -19  -1   0    3.21    2.86
 -21   3   0   -0.09    2.84
   3  18   0   -0.73    2.57
  18 -21   0    1.09    3.16
 -18  21   0    2.12    2.77
  21  -3   0   -0.92    3.33
  -3 -18   0   -0.36    3.16
  15 -21   0   17.69    4.02
   6  15   0   13.78    2.91
 -21   6   0   13.27    2.66
 -15  21   0    8.77    2.76
  21  -6   0   15.76    3.59
  -6 -15   0   17.00    3.46
  12 -21   0   -0.03    2.73
 -21   9   0    1.29    2.28
   9  12   0   -1.77    2.20
  21  -9   0    2.83    3.12
 -12  21   0   -0.53    2.13
  -9 -12   0   -3.97    2.44
 -21  12   0    8.72    2.78
   9 -21   0    8.31    3.17
  12   9   0   10.21    2.69
 -12  -9   0    8.91    2.85
  21 -12   0    8.82    3.46
  -9  21   0    7.10    2.59
 -21  15   0   13.47    3.11
  15   6   0    7.74    3.03
   6 -21   0    9.22    3.29
  15   6   0   10.29    3.44
 -15  -6   0   13.70    3.06
  21 -15   0   11.31    3.84
  -6  21   0    9.87    2.57
  18   3   0   -0.26    3.64
   3 -21   0    1.52    3.33
  18   3   0    3.87    3.42
 -21  18   0    4.43    2.78
 -18  -3   0    0.36    2.93
  -3  21   0    8.33    2.88
 -18  -3   0    0.44    2.79
  21 -18   0    1.69    3.80
  21   0   0   -2.43    3.89
   0 -21   0    2.84    3.89
 -21  21   0    7.47    3.17
   0  21   0   -2.73    3.02
 -21   0   0    2.24    3.55
 -22   2   0   61.43    5.61
   2  20   0   85.05    5.81
  -2 -20   0   63.33    6.47
  22  -2   0   62.51    7.36
 -20  22   0   63.45    5.59
 -22   5   0   -0.37    2.74
  17 -22   0   10.05    4.16
   5  17   0    1.31    2.84
 -17  22   0    4.00    3.50
  -5 -17   0    3.65    3.38
  22  -5   0    5.51    3.54
  14 -22   0   98.14    6.72
   8  14   0   94.43    5.82
 -22   8   0   97.86    5.73
  -8 -14   0   93.72    6.23
 -14  22   0   90.49    5.54
  22  -8   0   96.45    6.54
  11 -22   0   -0.94    2.74
  11  11   0    0.47    2.78
 -22  11   0   -1.31    2.64
 -11  22   0   -7.16    2.43
 -11 -11   0    0.61    1.86
 -11 -11   0    3.59    2.82
  22 -11   0   -0.08    3.43
 -22  14   0   77.59    7.17
   8 -22   0   84.35    6.66
  14   8   0   85.26    5.55
  22 -14   0  100.36    6.63
 -14  -8   0   92.59    5.98
  -8  22   0  100.70    5.49
  17   5   0    4.99    3.53
 -22  17   0    5.14    2.81
   5 -22   0    6.08    3.51
  22 -17   0    8.06    3.67
  -5  22   0    7.17    2.74
 -17  -5   0    4.17    3.25
 -22  20   0   79.70    6.33
   2 -22   0   77.38    7.12
  20   2   0   66.02    6.78
 -20  -2   0   66.72    6.35
  22 -20   0   73.57   10.47
  -2  22   0   70.53    5.67
 -23   1   0    6.27    6.83
   1  22   0    9.50    4.11
  22 -23   0   -4.18    5.03
  -1 -22   0    8.74    4.55
 -22  23   0    5.47    3.81
  23  -1   0   -0.73    7.55
 -23   4   0    9.10    3.51
  19 -23   0    3.63    3.82
   4  19   0   10.17    3.63
  -4 -19   0    8.11    4.04
 -19  23   0   11.06    3.41
  23  -4   0   15.24    4.55
 -23   7   0    2.35    3.13
  16 -23   0   -1.01    3.34
   7  16   0    2.01    3.10
 -16  23   0   -1.58    3.16
  -7 -16   0    0.12    3.50
  23  -7   0   -0.15    3.77
 -23  10   0    5.84    2.79
  13 -23   0   12.56    4.15
 -13  23   0    4.76    2.74
 -10 -13   0    9.08    3.49
  23 -10   0    5.87    4.01
 -23  13   0    2.13    2.63
  10 -23   0   -1.10    3.56
 -13 -10   0    2.45    3.08
 -10  23   0   -2.11    2.80
  23 -13   0    0.94    3.23
   7 -23   0    6.17    3.80
 -23  16   0    0.93    3.42
  -7  23   0    6.96    3.12
  23 -16   0   -3.41    3.97
 -16  -7   0   -0.09    3.31
  19   4   0    9.66    4.27
 -23  19   0    7.03    3.59
   4 -23   0   -0.84    3.51
 -19  -4   0    8.91    3.65
   1 -23   0    8.26    4.18
  22   1   0   -5.22    5.32
 -23  22   0    4.00    3.45
  -1  23   0    2.70    3.92
  23 -22   0    4.23    4.51
 -22  -1   0    4.72    4.41
  21 -24   0    3.62    4.73
  24  -3   0   -2.49    5.20
  -3 -21   0   -2.16    4.37
 -21  24   0    1.36    3.63
 -24   6   0   65.95    5.74
  18 -24   0   58.56    6.95
  -6 -18   0   54.19    6.13
 -18  24   0   48.72    5.17
  24  -6   0   49.63    6.09
 -24   9   0   -0.97    3.20
  -9 -15   0    2.42    3.61
 -15  24   0    1.70    3.30
  24  -9   0   -8.95    3.90
  12 -24   0   67.76    6.98
 -24  12   0   68.58    5.85
 -12 -12   0   64.98    6.19
  24 -12   0   72.58    7.31
 -12  24   0   62.39    5.27
 -24  15   0   -0.40    2.86
   9 -24   0    0.20    3.72
  24 -15   0    6.64    4.37
  -9  24   0   -5.53    3.23
 -15  -9   0   -4.35    3.25
 -24  18   0   46.50    5.85
   6 -24   0   53.25    9.50
  24 -18   0   46.34    6.11
  -6  24   0   48.88    5.08
 -18  -6   0   48.74    5.64
 -24  21   0   -1.36    3.29
   3 -24   0    7.52    4.43
  21   3   0   -5.48    5.32
 -21  -3   0   -4.20    4.83
  24 -21   0    4.74    5.19
 -24  24   0   27.77    5.27
   0 -24   0   36.16    6.52
  24 -24   0   25.23    6.18
 -25   2   0   11.70    5.31
  23 -25   0   11.53    5.50
  -2 -23   0   16.04    5.85
  25  -2   0   11.23    9.88
 -23  25   0   10.51    4.62
  20 -25   0   -1.80    5.18
 -20  25   0   -2.05    3.91
  25  -5   0    1.31    5.18
  -5 -20   0    1.22    4.58
 -25   8   0   11.05    4.12
  17 -25   0    2.57    4.15
 -17  25   0    6.65    3.91
  -8 -17   0   13.35    4.44
 -25  11   0   -3.04    3.00
  14 -25   0   -0.45    4.21
  25 -11   0    0.15    4.97
 -14  25   0    5.50    3.50
 -11 -14   0   -1.55    3.85
 -25  14   0    9.65    3.79
  11 -25   0    2.45    3.80
  25 -14   0   -0.18    7.95
 -14 -11   0    6.25    3.83
 -11  25   0    1.86    3.63
   8 -25   0    1.61    4.49
 -25  17   0   -1.47    3.10
 -17  -8   0   12.33    4.59
  -8  25   0    7.39    3.80
  25 -17   0   -2.35    4.29
 -25  20   0   -1.02    3.46
   5 -25   0    9.03    5.11
  25 -20   0    0.28    5.37
  -5  25   0   11.06    4.31
 -25  23   0    5.67    4.72
   2 -25   0    5.70    5.31
  25 -23   0   -2.24    5.83
  25 -26   0  -17.28    6.33
  -1 -25   0   -1.30    6.23
  22 -26   0   52.25    8.02
 -22  26   0   50.16    6.19
  -4 -22   0   30.37    6.30
  26  -4   0   28.69    6.56
  19 -26   0   -6.23    4.56
 -19  26   0    1.87    4.18
  26  -7   0   -3.46    5.26
  -7 -19   0    3.42    5.13
 -26  10   0   52.69    6.45
  16 -26   0   36.69    6.18
  26 -10   0   46.23    6.47
 -16  26   0   48.99    5.82
  13 -26   0   -6.35    4.03
 -26  13   0    6.50    3.92
 -13 -13   0   11.69    4.83
  26 -13   0    8.30    5.09
 -13  26   0    1.39    3.39
  10 -26   0   55.09    6.87
 -26  16   0   53.81    6.41
 -16 -10   0   58.61    6.82
  26 -16   0   56.99    7.45
 -10  26   0   51.91    6.26
   7 -26   0   -0.98    5.19
 -26  19   0   -2.50    4.13
  26 -19   0    4.04    4.75
  -7  26   0    3.51    4.29
 -26  22   0   47.02    5.74
   4 -26   0   51.52    7.09
  26 -22   0   53.66    7.56
  -4  26   0   38.28    5.96
   1 -26   0    2.42    6.18
  26 -25   0   -6.11    6.68
  24 -27   0  -12.00    6.82
  -3 -24   0   -2.41    6.41
  21 -27   0    5.27    5.83
 -21  27   0   16.45    4.69
  -6 -21   0   -0.62    6.04
  27  -6   0    0.69    6.31
 -27   9   0   -4.01    4.80
  18 -27   0   -4.44    4.99
  -9 -18   0   -2.01    5.18
 -18  27   0   -2.56    4.34
  27  -9   0    3.81    5.52
 -27  12   0   16.93    4.37
  15 -27   0   14.66    5.00
 -15  27   0   17.69    4.62
 -12 -15   0   19.60    5.40
  27 -12   0   10.41    5.67
  12 -27   0    1.54    4.92
 -27  15   0    6.06    4.41
  27 -15   0   -7.50    5.37
 -12  27   0   -6.15    3.60
   9 -27   0    4.04    5.31
 -27  18   0    5.18    4.58
  -9  27   0    0.84    3.92
  27 -18   0    7.17    5.89
 -27  21   0    5.16    4.94
   6 -27   0   -4.92    5.73
  27 -21   0  -12.93    5.84
  -6  27   0   -6.68    4.61
   3 -27   0    1.15    6.72
  27 -24   0    2.04    7.36
  20 -28   0   18.96    6.47
 -20  28   0   29.40    6.88
  28  -8   0   44.74    7.62
 -28  11   0   -8.31    4.74
  17 -28   0   -4.17    5.24
  28 -11   0    2.54    6.13
 -17  28   0   -5.48    4.08
  14 -28   0   25.59    6.12
 -28  14   0   25.27    5.51
  28 -14   0   39.37    7.12
 -14  28   0   41.26    5.37
  11 -28   0    1.00    5.80
 -28  17   0    7.13    4.80
  28 -17   0    4.23    6.25
 -11  28   0   -3.96    4.62
   8 -28   0   35.81    7.04
  28 -20   0   32.04    7.55
  -8  28   0   37.10    6.05
  19 -29   0   -0.95    7.02
  29 -10   0    7.33    7.30
 -29  13   0    5.08    5.37
  16 -29   0    8.50    6.59
  29 -13   0  -14.96    6.14
  13 -29   0   13.73    6.83
 -29  16   0    3.15    5.31
 -13  29   0   16.50    4.71
  29 -16   0    5.71    6.70
  10 -29   0   21.51    6.89
  29 -19   0   20.01    7.38
   1  -1  -1    0.02    0.12
   1  -1  -1   -0.10    0.12
   1  -1  -1   -0.01    0.14
   0   1  -1    0.08    0.10
  -1   1   1    0.04    0.11
   1   0   1   -0.04    0.15
   3  -2  -1    2.69    0.36
   3  -2  -1    3.09    0.48
   3  -2  -1    2.55    0.46
  -1   3  -1    2.85    0.39
  -3   2   1    3.21    0.44
  -3   2   1    2.41    0.33
   2   1   1    2.93    0.46
   1  -3   1    3.31    0.40
   2   1   1    2.80    0.30
   2   0  -1    0.05    0.18
  -2   2  -1    0.06    0.17
   2   0  -1    0.13    0.19
   0  -2  -1   -0.01    0.20
   2   0  -1   -0.04    0.14
   0  -2  -1    0.06    0.21
   2  -2   1    0.46    0.21
  -2   0   1   -0.05    0.10
   2  -2   1    0.15    0.24
   0   2   1    0.27    0.21
   0   2   1    0.05    0.14
  -2   5  -1    3.07    0.54
   5  -3  -1    3.72    0.51
   5  -3  -1    3.11    0.68
   5  -3  -1    3.56    0.69
  -3  -2  -1    3.09    0.39
   2  -5   1    2.70    0.55
   2  -5   1    3.91    0.62
   3   2   1    3.13    0.45
  -5   3   1    3.13    0.59
  -5   3   1    2.66    0.45
   3   2   1    3.39    0.69
   3   2   1    2.89    0.35
   2  -3  -1   32.64    1.23
   2  -3  -1   32.82    1.28
   1   2  -1   31.71    1.14
   3  -1   1   32.79    1.31
   3  -1   1   32.80    1.18
  -2   3   1   34.17    1.18
  -2   3   1   31.43    1.23
  -3   4  -1    1.65    0.45
   4  -1  -1    0.98    0.41
   4  -1  -1    1.10    0.25
  -3   4  -1    1.63    0.39
  -1  -3  -1    1.50    0.45
   4  -1  -1    1.45    0.48
  -1  -3  -1    0.57    0.31
   1   3   1    0.99    0.35
  -4   1   1    1.22    0.23
   3  -4   1    0.89    0.45
   3  -4   1    1.54    0.43
   1   3   1    1.21    0.31
   7  -4  -1    0.01    0.62
  -3   7  -1    1.44    0.57
   7  -4  -1    0.58    0.53
  -4  -3  -1   -0.20    0.57
  -4  -3  -1    0.57    0.37
  -3   7  -1    0.97    0.58
   3  -7   1    1.33    0.68
   4   3   1    1.32    0.77
   4   3   1    0.87    0.33
  -7   4   1    1.41    0.58
  -7   4   1    0.70    0.40
   4   3   1    1.54    0.51
  -4   0  -1    2.29    0.34
   4  -4  -1    2.19    0.47
   4  -4  -1    2.47    0.61
   0   4  -1    2.73    0.47
   0   4  -1    2.24    0.45
   4   0   1    1.88    0.56
  -4   4   1    2.64    0.48
   4   0   1    2.58    0.29
   0  -4   1    2.64    0.57
   0  -4   1    2.44    0.48
   4   0   1    2.29    0.44
  -4   4   1    2.06    0.48
   3   1  -1    6.62    0.64
   1  -4  -1    6.20    0.71
  -4   3  -1    6.42    0.58
   1  -4  -1    5.12    0.67
  -4   3  -1    6.16    0.60
   3   1  -1    5.85    0.64
  -1   4   1    5.60    0.59
   4  -3   1    6.71    0.61
  -1   4   1    6.32    0.65
   4  -3   1    5.47    0.72
  -4   6  -1   12.32    0.96
   6  -2  -1   10.32    1.12
   6  -2  -1   11.46    0.71
  -4   6  -1   10.99    0.96
   6  -2  -1   10.78    1.13
  -2  -4  -1   12.08    0.87
  -2  -4  -1   12.29    1.03
   4  -6   1   11.35    1.11
   2   4   1   11.18    0.80
  -6   2   1   10.40    0.67
   4  -6   1   11.33    1.21
   2   4   1   10.89    0.80
  -6   2   1   11.86    1.01
  -5  -4  -1   16.51    1.55
   9  -5  -1   16.25    1.70
   9  -5  -1   13.56    1.41
  -5  -4  -1   15.27    1.03
  -4   9  -1   16.22    1.35
  -4   9  -1   15.56    1.53
  -9   5   1   15.49    1.37
   5   4   1   15.76    1.59
  -9   5   1   14.60    1.12
   4  -9   1   20.31    1.76
   5   4   1   17.57    0.92
   4  -9   1   14.60    1.56
   5   4   1   18.00    1.22
   6  -5  -1    3.78    0.83
  -1   6  -1    3.59    0.63
  -5  -1  -1    3.94    0.47
   6  -5  -1    3.21    0.68
  -1   6  -1    3.94    0.67
  -6   5   1    3.44    0.70
   1  -6   1    3.52    0.74
   5   1   1    3.49    0.74
   5   1   1    3.62    0.59
  -6   5   1    4.49    0.69
   1  -6   1    4.41    0.75
   2   3  -1    0.27    0.38
  -5   2  -1    1.00    0.42
   3  -5  -1    1.32    0.53
   3  -5  -1    1.08    0.51
   2   3  -1    0.60    0.39
  -2  -3   1    1.17    0.43
   5  -2   1    1.61    0.63
  -3   5   1    0.59    0.42
   5  -2   1    0.95    0.30
  -3   5   1    0.99    0.41
  -2  -3   1    1.10    0.30
   5   0  -1    2.02    0.52
  -5   5  -1    3.11    0.59
   5   0  -1    1.64    0.56
   0  -5  -1    2.00    0.64
   0  -5  -1    1.26    0.49
  -5   5  -1    1.58    0.47
   0   5   1    2.10    0.49
   5  -5   1    2.67    0.58
   0   5   1    1.32    0.44
   5  -5   1    1.18    0.60
  -3  -5  -1   20.79    1.56
  -5   8  -1   21.75    1.52
   8  -3  -1   19.92    1.14
  -3  -5  -1   21.71    1.26
   8  -3  -1   21.05    1.69
  -5   8  -1   22.07    1.45
   8  -3  -1   21.59    1.71
   3   5   1   23.36    1.28
   5  -8   1   22.63    1.59
  -8   3   1   20.72    1.59
  -8   3   1   20.66    1.06
   3   5   1   21.17    1.16
   5  -8   1   20.93    1.67
  -6  -5  -1    1.76    0.69
  -5  11  -1    2.82    0.91
  11  -6  -1    2.17    1.08
  -5  11  -1    2.78    1.09
  -6  -5  -1    0.83    0.84
   6   5   1    1.96    0.82
 -11   6   1    2.19    0.73
   5 -11   1    2.76    1.35
   6   5   1    2.35    1.05
   5 -11   1    0.57    1.11
   8  -6  -1   33.89    2.13
  -2   8  -1   33.14    1.70
   8  -6  -1   31.70    1.78
   2  -8   1   33.70    1.95
  -8   6   1   33.22    1.88
   6   2   1   34.69    1.62
   6   2   1   31.60    1.92
  -8   6   1   27.74    1.63
   2  -8   1   32.30    1.91
   1   5  -1   18.60    1.12
  -6   1  -1   18.75    1.13
   5  -6  -1   18.06    1.40
   1   5  -1   18.71    1.09
   5  -6  -1   22.14    1.42
  -5   6   1   20.72    1.28
   6  -1   1   19.98    1.25
  -1  -5   1   19.28    1.11
  -1  -5   1   22.33    1.32
   6  -1   1   18.56    0.73
  -5   6   1   20.09    1.25
   6  -1   1   20.38    0.91
   6  -1   1   20.56    1.53
   4   2  -1    1.26    0.48
   2  -6  -1    1.72    0.65
   4   2  -1    2.20    0.62
  -6   4  -1    1.51    0.48
   2  -6  -1    2.12    0.60
  -6   4  -1    3.01    0.61
   6  -4   1    1.53    0.49
   6  -4   1    1.68    0.72
  -4  -2   1    1.82    0.26
  -2   6   1    0.71    0.44
   7  -1  -1    2.45    0.72
  -6   7  -1    3.89    0.78
  -6   7  -1    2.94    0.71
   7  -1  -1    2.49    0.87
  -1  -6  -1    3.30    0.69
  -1  -6  -1    1.87    0.71
  -7   1   1    3.15    0.37
   6  -7   1    4.64    1.04
   1   6   1    2.52    0.60
   6  -7   1    3.10    0.84
   1   6   1    2.26    0.62
  10  -4  -1   -0.60    0.99
  -4  -6  -1    0.59    0.82
  -6  10  -1    0.39    0.70
  10  -4  -1    1.00    0.96
  -4  -6  -1    1.09    0.69
  -6  10  -1    1.86    0.96
 -10   4   1    2.81    0.59
   4   6   1    1.41    0.63
   6 -10   1    0.27    1.04
   6 -10   1    3.09    1.10
   4   6   1    1.15    0.67
 -10   4   1    1.37    0.82
  13  -7  -1    7.90    1.69
  -6  13  -1    5.64    1.43
  -7  -6  -1    9.17    1.11
  -6  13  -1    7.66    1.44
  -7  -6  -1   10.03    1.84
   6 -13   1    6.17    1.67
   7   6   1    6.96    1.80
   7   6   1    9.02    1.36
 -13   7   1    9.76    1.25
   6 -13   1   12.55    2.17
 -13   7   1    9.50    1.54
  -7  -3  -1   29.66    1.96
  -3  10  -1   29.83    1.84
  10  -7  -1   27.05    2.16
  -7  -3  -1   31.55    1.29
   3 -10   1   30.29    2.26
   7   3   1   31.80    1.80
   7   3   1   34.15    2.31
   3 -10   1   31.67    2.27
 -10   7   1   30.32    1.79
 -10   7   1   28.84    1.98
   7  -7  -1   22.42    1.69
   0   7  -1   24.63    1.49
   7  -7  -1   24.76    1.75
   0   7  -1   25.60    1.47
   0  -7   1   25.16    1.52
   7   0   1   23.60    1.44
   7   0   1   25.30    1.81
  -7   7   1   24.00    1.55
   0  -7   1   24.86    1.57
  -7   7   1   23.28    1.55
  -7   3  -1    6.73    0.86
   4  -7  -1    6.65    1.04
   3   4  -1    7.22    0.88
   4  -7  -1    4.78    0.91
   3   4  -1    6.30    0.92
   7  -3   1    5.98    0.70
  -4   7   1    7.41    0.92
  -3  -4   1    5.30    0.80
  -3  -4   1    6.89    0.68
  -4   7   1    7.68    0.98
   6   1  -1   51.71    2.27
   6   1  -1   46.69    2.06
  -7   6  -1   49.37    2.11
   1  -7  -1   48.61    2.22
   1  -7  -1   51.12    2.32
  -7   6  -1   51.54    2.17
   7  -6   1   56.00    2.20
   7  -6   1   49.85    2.45
  -1   7   1   53.03    2.03
  -1   7   1   53.51    2.21
   9  -2  -1    1.25    0.92
  -2  -7  -1    0.96    0.74
  -7   9  -1    2.01    0.87
  -7   9  -1    1.24    0.77
   9  -2  -1    1.24    0.98
  -2  -7  -1    2.03    0.98
   9  -2  -1    1.24    0.43
  -9   2   1    2.33    0.82
   2   7   1    1.48    0.58
   7  -9   1    1.13    1.04
   2   7   1    0.73    0.93
  -9   2   1    1.62    0.39
   7  -9   1    2.71    0.99
  -5  -7  -1   32.50    1.89
  12  -5  -1   32.01    2.42
  -7  12  -1   31.52    2.21
  -5  -7  -1   32.06    2.35
  -7  12  -1   30.12    2.31
 -12   5   1   29.93    2.29
   5   7   1   32.36    1.69
   7 -12   1   32.89    2.86
   7 -12   1   31.04    2.54
 -12   5   1   32.56    1.68
   5   7   1   31.13    1.89
  -8  -7  -1   14.88    1.67
  15  -8  -1   17.58    2.70
  -8  -7  -1   16.62    2.31
  -7  15  -1   11.74    2.14
  -7  15  -1   13.62    2.12
   7 -15   1   17.08    2.65
 -15   8   1   14.55    2.00
   7 -15   1   12.90    2.75
   8   7   1   17.05    2.03
   8   7   1   13.59    2.09
  -4  12  -1    1.31    0.84
  -8  -4  -1   -0.33    0.57
  -4  12  -1    0.52    1.04
  -8  -4  -1   -0.17    1.10
 -12   8   1   -0.09    1.05
   8   4   1    1.51    1.14
   8   4   1   -0.34    0.90
 -12   8   1    0.24    0.78
   4 -12   1    0.78    1.29
  -1   9  -1   16.25    1.49
  -1   9  -1   14.70    1.42
   9  -8  -1   16.64    1.85
   1  -9   1   16.61    1.52
  -9   8   1   14.92    1.53
   8   1   1   16.63    1.43
   1  -9   1   15.92    1.63
  -9   8   1   16.46    1.51
   8   1   1   16.87    1.70
  -8   2  -1   56.96    2.30
   6  -8  -1   54.30    2.66
   6  -8  -1   55.79    2.54
   2   6  -1   58.42    2.30
  -6   8   1   53.75    2.45
  -2  -6   1   54.73    2.13
  -2  -6   1   56.01    2.42
   8  -2   1   57.40    2.72
  -6   8   1   53.96    2.36
   8  -2   1   57.51    2.51
   8  -2   1   57.93    2.00
   8  -2   1   56.59    1.72
  -8   5  -1   25.99    1.53
  -8   5  -1   24.20    1.38
   5   3  -1   28.23    1.49
   5   3  -1   26.23    1.68
   3  -8  -1   26.67    1.81
   3  -8  -1   23.15    1.73
  -5  -3   1   24.29    1.54
   8  -5   1   26.59    1.85
  -3   8   1   27.16    1.71
  -5  -3   1   27.55    1.04
   8  -5   1   25.73    1.45
  -3   8   1   28.03    1.53
   0  -8  -1    4.31    1.00
   0  -8  -1    2.48    0.91
   8   0  -1    2.35    0.95
  -8   8  -1    2.76    0.84
   8   0  -1    4.91    0.99
  -8   8  -1    3.95    0.93
   8  -8   1    1.76    0.87
   8  -8   1    3.21    0.99
   0   8   1    2.27    0.70
   0   8   1    2.95    0.82
  -3  -8  -1   26.69    1.87
  11  -3  -1   30.95    2.20
  11  -3  -1   29.44    1.43
  -8  11  -1   25.07    1.90
  11  -3  -1   31.85    2.40
  -8  11  -1   23.18    2.00
  -3  -8  -1   26.39    2.00
   3   8   1   26.41    1.77
   3   8   1   23.90    1.69
   8 -11   1   24.04    2.25
 -11   3   1   27.54    2.13
   8 -11   1   28.18    2.36
  -8  14  -1    5.81    1.73
  -8  14  -1    6.97    1.67
  -6  -8  -1    6.43    1.43
  14  -6  -1    5.37    1.85
  -6  -8  -1    5.47    1.47
   8 -14   1    4.85    1.67
   8 -14   1    7.22    2.60
 -14   6   1    7.24    1.49
  -9  -8  -1   19.84    2.79
  17  -9  -1   18.52    2.65
  -9  -8  -1   23.44    2.10
  -8  17  -1   19.62    2.48
  -8  17  -1   19.37    2.91
 -17   9   1   20.29    2.54
   9   8   1   16.20    2.23
   8 -17   1   19.39    2.93
  -9  -5  -1   85.42    2.73
  -5  14  -1   82.21    4.14
  14  -9  -1   82.97    4.46
  -9  -5  -1   83.48    3.91
   9   5   1   85.84    4.15
 -14   9   1   84.69    3.55
   5 -14   1   86.70    4.50
   5 -14   1   83.33    4.30
 -14   9   1   91.54    6.09
   9   5   1   80.65    4.26
  11  -9  -1    8.06    1.56
  -2  11  -1   10.70    1.46
  -2  11  -1   10.16    1.49
   9   2   1    9.12    1.33
   2 -11   1    9.22    1.68
 -11   9   1    9.02    1.47
 -11   9   1    7.46    1.33
   9   2   1    6.80    1.61
   2 -11   1    7.86    1.56
   1   8  -1   45.36    2.07
   8  -9  -1   41.66    2.53
   1   8  -1   43.87    2.10
  -9   1  -1   43.49    2.19
   8  -9  -1   41.10    2.51
  -8   9   1   44.27    2.29
   9  -1   1   46.35    2.31
  -1  -8   1   41.27    2.13
  -8   9   1   41.35    2.31
   9  -1   1   38.80    2.46
  -1  -8   1   45.05    2.33
   4   5  -1   10.49    1.06
   5  -9  -1   13.25    1.55
  -9   4  -1   12.60    1.33
   5  -9  -1   10.40    1.49
   9  -4   1   13.00    1.52
  -5   9   1   11.61    1.22
  -4  -5   1   11.59    0.98
  -5   9   1   12.94    1.36
   9  -4   1   10.72    1.09
  -4  -5   1   10.73    1.31
   7   2  -1   43.29    2.32
   2  -9  -1   43.26    2.59
   7   2  -1   42.29    2.12
   2  -9  -1   43.80    2.44
  -9   7  -1   37.93    2.02
  -9   7  -1   42.17    2.16
  -2   9   1   41.80    2.02
   9  -7   1   36.74    2.38
  -1  -9  -1    4.87    1.09
  10  -1  -1    3.04    1.05
  -9  10  -1    2.22    1.06
  10  -1  -1    3.13    1.08
  -1  -9  -1    3.99    1.15
  -9  10  -1    2.54    0.99
   1   9   1    3.06    0.91
   9 -10   1    2.68    1.20
   1   9   1    2.19    0.98
 -10   1   1    3.03    1.12
  -4  -9  -1    2.52    1.08
  -4  -9  -1    1.51    1.26
  -9  13  -1    6.24    1.59
  -9  13  -1    0.08    0.98
  13  -4  -1    3.47    1.59
  13  -4  -1    2.07    1.34
   4   9   1    2.82    1.03
 -13   4   1    2.61    1.18
   4   9   1    3.85    1.09
   9 -13   1    2.61    1.44
  -9  16  -1   33.88    2.72
  16  -7  -1   29.86    3.58
  -7  -9  -1   30.07    3.01
  -7  -9  -1   27.83    2.38
  -9  16  -1   29.13    3.01
   7   9   1   34.17    2.65
   9 -16   1   37.52    5.60
 -16   7   1   28.40    2.67
  -9  19  -1    2.18    1.85
 -10  -9  -1    3.10    1.53
  19 -10  -1   -0.83    2.12
 -10  -9  -1    0.44    2.12
   9 -19   1    4.24    2.36
 -19  10   1    1.38    1.99
  10   9   1    6.43    2.47
  -6  16  -1    1.09    1.85
 -10  -6  -1    1.34    0.84
 -10  -6  -1    2.72    1.69
  -6  16  -1    1.84    1.36
  16 -10  -1    2.39    2.12
  10   6   1    3.16    1.52
  10   6   1    0.30    1.62
 -16  10   1    3.34    1.56
   6 -16   1    2.79    2.09
  13 -10  -1    2.02    1.34
  -3  13  -1    0.85    1.25
 -10  -3  -1   -0.38    1.18
  -3  13  -1    1.05    1.12
 -13  10   1    1.77    1.31
 -13  10   1    2.18    1.08
   3 -13   1    1.41    1.42
  10   3   1   -1.94    0.97
  10   3   1    0.24    1.42
   3 -13   1    2.47    1.49
  10 -10  -1    0.09    1.09
 -10   0  -1   -0.40    0.88
   0  10  -1    0.36    0.84
   0  10  -1   -0.74    0.80
  10   0   1   -0.39    0.89
 -10  10   1    0.66    0.90
   0 -10   1    0.61    0.97
   0 -10   1   -0.47    0.98
 -10  10   1    0.11    0.84
  10   0   1    0.91    1.19
   3   7  -1   47.49    2.29
   7 -10  -1   49.41    2.70
   7 -10  -1   46.04    2.73
 -10   3  -1   50.15    2.35
  10  -3   1   47.73    2.80
  10  -3   1   43.91    2.56
  10  -3   1   48.80    2.09
  -3  -7   1   46.04    2.14
  -7  10   1   48.37    2.42
  -7  10   1   47.25    2.50
  -3  -7   1   48.52    2.47
   6   4  -1    6.16    1.18
 -10   6  -1    6.93    1.18
   4 -10  -1    5.60    1.26
   6   4  -1    6.22    1.06
   4 -10  -1    6.66    1.40
  10  -6   1    5.05    1.22
  -6  -4   1    6.06    0.75
  -4  10   1    2.95    0.85
  -6  -4   1    5.09    1.06
  -4  10   1    5.68    1.05
 -10   9  -1   57.22    2.76
   1 -10  -1   56.07    2.95
   9   1  -1   58.26    2.76
   1 -10  -1   60.85    2.95
 -10   9  -1   53.67    2.65
   9   1  -1   57.38    2.96
  -1  10   1   58.64    2.60
  10  -9   1   62.67    3.33
  -1  10   1   52.54    2.68
 -10  12  -1   -0.93    1.17
  -2 -10  -1    0.13    1.18
  12  -2  -1    0.65    1.23
  -2 -10  -1    0.94    1.10
 -10  12  -1   -1.54    0.91
  12  -2  -1    0.77    1.31
  10 -12   1    1.30    1.34
   2  10   1    1.21    0.92
 -12   2   1    2.92    1.15
   2  10   1    2.20    1.14
  -5 -10  -1   21.03    2.40
 -10  15  -1   25.74    2.97
  -5 -10  -1   22.81    2.37
 -10  15  -1   21.38    2.53
  15  -5  -1   25.38    3.07
  10 -15   1   24.92    2.91
 -15   5   1   21.86    2.34
   5  10   1   21.16    2.25
  -8 -10  -1    3.18    1.63
 -10  18  -1   -1.37    1.63
  18  -8  -1    1.12    2.36
  -8 -10  -1    3.97    1.89
   8  10   1   -0.46    1.93
  10 -18   1    5.42    2.40
 -18   8   1    4.42    1.74
 -11 -10  -1   27.04    3.49
  21 -11  -1   25.34    4.33
 -10  21  -1   24.12    3.14
 -11 -10  -1   21.76    2.64
 -21  11   1   21.41    3.27
  10 -21   1   26.65    4.06
  11  10   1   17.66    3.10
  -7  18  -1   15.99    2.29
  18 -11  -1   15.32    2.80
 -11  -7  -1   19.12    2.82
 -18  11   1   13.81    2.60
  11   7   1   17.60    2.93
  11   7   1   16.67    3.97
   7 -18   1   20.53    3.39
  -4  15  -1   12.86    2.21
 -11  -4  -1   18.78    2.30
  15 -11  -1   14.27    3.03
   4 -15   1   17.73    2.89
  11   4   1   18.68    2.58
 -15  11   1   20.82    2.29
 -15  11   1   12.43    2.17
  11   4   1   15.49    2.09
  -1  12  -1   62.10    3.02
  12 -11  -1   60.88    3.69
  -1  12  -1   67.13    3.25
   1 -12   1   63.53    3.40
  11   1   1   60.71    3.07
 -12  11   1   64.31    3.18
   1 -12   1   62.28    3.54
  11   1   1   59.39    3.54
 -12  11   1   67.95    3.38
   2   9  -1    3.14    0.93
 -11   2  -1    3.60    1.12
  -9  11   1    5.01    1.31
  -9  11   1    2.95    1.06
  11  -2   1    2.40    1.04
  -2  -9   1    3.01    1.11
  -2  -9   1    1.94    1.01
  11  -2   1    3.31    1.32
   5   6  -1    7.18    1.19
 -11   5  -1    7.44    1.23
   6 -11  -1    6.78    1.46
   6 -11  -1    6.12    1.49
  -6  11   1    6.89    1.17
  11  -5   1    8.67    1.48
  -5  -6   1    6.76    0.88
  -6  11   1    4.64    1.35
  -5  -6   1    7.46    1.26
 -11   8  -1    4.37    1.04
   3 -11  -1    7.44    1.41
   8   3  -1    6.05    1.30
   3 -11  -1    5.69    1.47
 -11   8  -1    5.33    1.05
   8   3  -1    4.45    1.08
  -3  11   1    5.17    1.08
  11  -8   1    5.42    1.37
  -8  -3   1    4.14    1.06
  -3  11   1    1.30    1.08
  11   0  -1    3.38    1.21
   0 -11  -1    1.63    1.31
 -11  11  -1    2.83    1.20
   0 -11  -1    4.13    1.33
 -11  11  -1    2.75    1.16
  11   0  -1    2.62    1.25
  11 -11   1    3.59    1.40
   0  11   1    2.26    1.07
   0  11   1    1.89    1.10
  14  -3  -1   12.65    2.09
  14  -3  -1   13.78    2.18
  -3 -11  -1   14.05    1.91
 -11  14  -1   18.94    2.05
 -11  14  -1   15.94    2.13
  -3 -11  -1   12.87    2.20
 -14   3   1   15.22    2.09
  11 -14   1   11.69    2.28
   3  11   1   15.62    1.72
   3  11   1   15.73    1.82
  -6 -11  -1    0.64    1.68
 -11  17  -1   -0.26    2.11
 -11  17  -1    2.02    1.53
   6  11   1    0.64    1.49
 -17   6   1    0.41    1.65
  11 -17   1    3.59    2.13
 -11  20  -1   30.34    3.33
  20  -9  -1   30.87    3.96
  -9 -11  -1   33.68    3.96
   9  11   1   29.92    3.63
 -20   9   1   46.44    3.96
  11 -20   1   33.20    4.22
 -11  23  -1   -0.35    2.51
  23 -12  -1    0.34    3.70
 -12 -11  -1    0.53    3.02
  11 -23   1    0.74    3.19
 -23  12   1    3.53    2.69
  -8  20  -1    3.64    2.11
  20 -12  -1   -3.74    2.61
 -12  -8  -1    1.55    2.39
  12   8   1    1.93    2.25
 -20  12   1   -0.45    1.98
   8 -20   1    5.21    2.54
 -12  -5  -1    4.16    2.12
  -5  17  -1    2.02    1.66
  17 -12  -1   -3.92    1.73
  12   5   1    3.32    1.70
 -17  12   1    1.41    1.86
  12   5   1   -0.10    2.00
   5 -17   1    4.18    2.30
  -2  14  -1    0.85    1.31
  14 -12  -1    0.56    2.84
 -14  12   1   -1.47    1.39
   2 -14   1    0.35    1.35
  12   2   1    0.27    1.46
 -14  12   1   -0.39    1.37
  12   2   1    1.97    1.35
   2 -14   1    5.27    3.20
  11 -12  -1    9.35    2.01
   1  11  -1    7.07    1.41
  12  -1   1    7.04    1.79
 -11  12   1    8.03    1.51
 -11  12   1    6.98    1.42
  -1 -11   1    6.49    1.70
  -1 -11   1    9.18    1.56
   8 -12  -1    7.08    1.69
   4   8  -1    7.65    1.31
 -12   4  -1    5.45    1.53
   8 -12  -1   10.01    1.77
  12  -4   1    7.48    1.29
  -4  -8   1    8.68    1.48
  -4  -8   1    9.24    1.23
  -8  12   1    8.08    1.36
  12  -4   1    7.18    1.57
  -8  12   1    9.05    1.68
 -12   7  -1   28.74    2.08
   5 -12  -1   26.64    2.40
   7   5  -1   33.18    2.10
   7   5  -1   30.96    2.30
   5 -12  -1   35.47    2.62
  -5  12   1   31.33    2.53
  -5  12   1   30.50    2.05
  -7  -5   1   34.60    2.22
  -7  -5   1   29.99    1.45
 -12  10  -1    3.62    1.23
   2 -12  -1    1.86    1.27
 -12  10  -1    2.98    1.08
  10   2  -1    1.70    1.13
  10   2  -1    1.52    1.30
  -2  12   1    3.16    1.00
  12 -10   1    1.17    1.35
  -2  12   1    0.80    1.26
  13  -1  -1   31.76    2.83
  -1 -12  -1   30.77    2.67
  13  -1  -1   30.45    2.87
 -12  13  -1   31.06    2.55
  -1 -12  -1   33.73    2.78
 -12  13  -1   28.59    2.90
   1  12   1   34.54    2.61
 -13   1   1   28.88    2.64
   1  12   1   29.86    2.13
  12 -13   1   28.28    2.89
 -12  16  -1    4.90    1.86
  16  -4  -1    4.90    3.70
 -12  16  -1    3.87    1.73
  -4 -12  -1    0.84    1.64
  16  -4  -1    0.82    1.95
  -4 -12  -1    2.17    2.12
  12 -16   1    2.58    1.98
   4  12   1    3.47    1.56
 -16   4   1    1.60    1.45
  19  -7  -1   28.58    3.72
 -12  19  -1   34.07    3.57
  -7 -12  -1   29.65    3.64
 -19   7   1   30.56    3.42
   7  12   1   27.36    3.06
  12 -19   1   26.86    3.89
 -12  22  -1    0.31    2.33
  22 -10  -1   -0.01    3.26
 -10 -12  -1   -3.96    2.70
 -22  10   1    0.39    2.68
  12 -22   1    2.01    3.28
  25 -13  -1   14.76    5.13
 -13 -12  -1    8.92    4.23
 -12  25  -1   16.70    4.14
 -25  13   1   11.99    3.86
  12 -25   1   19.13    4.93
  22 -13  -1   30.87    4.87
 -13  -9  -1   37.84    4.86
  -9  22  -1   37.25    4.07
   9 -22   1   43.62    4.80
 -22  13   1   38.96    4.18
  -6  19  -1   20.41    2.60
  19 -13  -1   18.24    3.69
 -13  -6  -1   20.50    3.10
   6 -19   1   18.96    3.12
  13   6   1   16.98    3.29
 -19  13   1   18.80    2.72
  13   6   1   20.71    2.94
  16 -13  -1   48.71    4.19
 -13  -3  -1   37.48    3.53
  -3  16  -1   42.71    3.20
   3 -16   1   46.12    3.59
  13   3   1   41.51    3.34
  13   3   1   45.42    3.93
 -16  13   1   43.31    3.32
 -16  13   1   51.27    3.32
 -13   0  -1    3.46    1.38
   0  13  -1    4.90    1.46
  13   0   1    3.65    1.58
 -13  13   1    3.40    1.56
  13   0   1    3.33    1.62
   0 -13   1    2.43    1.65
   0 -13   1    6.33    1.82
 -13  13   1    2.02    1.48
  10 -13  -1   24.76    2.65
   3  10  -1   30.50    2.10
 -13   3  -1   27.09    2.27
 -10  13   1   24.54    2.39
  -3 -10   1   28.34    2.09
 -10  13   1   25.08    2.30
  -3 -10   1   25.66    2.79
  13  -3   1   25.35    2.51
  13  -3   1   20.65    2.44
   6   7  -1    3.50    1.02
   7 -13  -1    3.91    1.94
 -13   6  -1    2.59    1.07
   7 -13  -1    4.23    1.65
  -7  13   1    3.14    1.33
  -7  13   1    3.06    1.15
  13  -6   1    3.08    1.56
  -6  -7   1    2.83    1.22
  -6  -7   1    2.79    1.02
   9   4  -1   -0.32    1.27
   4 -13  -1   -1.20    1.33
   9   4  -1    0.35    0.98
   4 -13  -1    2.90    1.74
 -13   9  -1   -0.38    1.01
  13  -9   1    2.18    1.59
  -4  13   1    0.30    1.00
  -9  -4   1    1.07    1.07
  -4  13   1    2.34    1.44
   1 -13  -1    4.58    1.83
 -13  12  -1    3.35    1.37
  12   1  -1    6.45    1.61
 -13  12  -1    7.50    1.59
   1 -13  -1    7.45    1.79
  12   1  -1    3.52    1.58
  13 -12   1    3.32    1.68
  -1  13   1    5.34    1.29
  -1  13   1    5.23    1.57
 -13  15  -1   11.66    2.26
 -13  15  -1   13.19    2.18
  -2 -13  -1    8.77    2.28
  15  -2  -1   12.78    2.29
  15  -2  -1   10.36    2.04
 -15   2   1   10.16    2.01
   2  13   1   11.86    1.74
  13 -15   1   10.19    2.22
  18  -5  -1   36.77    4.14
  -5 -13  -1   35.69    3.79
 -13  18  -1   31.01    3.20
  13 -18   1   28.11    3.81
 -18   5   1   36.90    3.44
   5  13   1   26.35    3.11
  21  -8  -1    0.12    3.10
 -13  21  -1   -6.33    2.26
  -8 -13  -1   -2.94    2.17
 -21   8   1    4.88    2.21
   8  13   1    4.16    2.37
  13 -21   1   -4.43    2.53
 -11 -13  -1   24.47    4.52
  24 -11  -1   31.10    4.87
 -13  24  -1   30.77    4.36
 -24  11   1   25.17    3.89
  13 -24   1   25.79    5.08
 -14 -13  -1    6.96    4.81
  27 -14  -1    1.81    5.33
 -13  27  -1   10.70    3.93
  13 -27   1    4.53    5.31
 -27  14   1    7.35    4.53
  24 -14  -1   -0.97    4.04
 -10  24  -1   -1.27    3.02
 -14 -10  -1    0.11    3.61
  10 -24   1   -0.10    3.87
 -24  14   1    1.62    3.52
 -14  -7  -1   10.33    2.84
  21 -14  -1   11.09    3.45
  -7  21  -1   10.95    2.79
 -21  14   1    5.33    2.47
  14   7   1   11.65    2.75
   7 -21   1    7.53    2.90
 -14  -4  -1   -0.21    1.84
  -4  18  -1    0.10    1.72
  18 -14  -1    2.10    2.24
  14   4   1   -0.23    2.38
   4 -18   1    5.72    2.58
 -18  14   1    2.09    1.88
  15 -14  -1   24.41    3.27
 -14  -1  -1   18.29    2.45
  -1  15  -1   18.98    2.28
  14   1   1   25.12    3.28
   1 -15   1   26.71    3.23
  14   1   1   31.35    2.95
 -15  14   1   23.76    2.99
 -15  14   1   23.75    2.68
 -14   2  -1    1.75    1.32
  12 -14  -1   -1.08    1.57
   2  12  -1    1.61    1.31
  14  -2   1   -2.91    1.45
  14  -2   1   -2.11    1.59
  -2 -12   1   -0.59    1.26
 -12  14   1    0.74    1.58
 -12  14   1    0.78    1.27
 -14   5  -1    6.51    1.53
   5   9  -1    5.82    1.43
   9 -14  -1    9.21    2.04
  -5  -9   1    7.21    1.35
  -9  14   1    8.72    1.89
  14  -5   1    8.02    1.99
  -5  -9   1    8.34    1.66
  -9  14   1    6.53    1.46
   6 -14  -1   11.84    2.22
 -14   8  -1   12.14    1.89
   8   6  -1   13.87    1.71
   6 -14  -1   11.46    2.10
  14  -8   1   14.38    2.23
  -8  -6   1   11.51    1.16
  -6  14   1   13.42    1.79
  -6  14   1   15.76    2.25
 -14  11  -1   23.48    2.54
  11   3  -1   22.22    2.63
   3 -14  -1   20.00    2.58
  11   3  -1   21.72    2.34
   3 -14  -1   20.28    2.68
  -3  14   1   24.81    2.12
  14 -11   1   26.29    2.85
 -11  -3   1   19.14    2.22
  -3  14   1   24.23    2.69
   0 -14  -1   -1.08    1.80
  14   0  -1    0.59    1.82
 -14  14  -1    2.38    1.47
 -14   0   1    0.86    2.65
   0  14   1    0.50    1.51
  14 -14   1    1.25    1.75
  -3 -14  -1   31.17    3.28
 -14  17  -1   35.43    3.42
  17  -3  -1   29.24    3.40
  17  -3  -1   30.96    3.84
   3  14   1   36.95    3.03
 -17   3   1   44.16    3.51
  14 -17   1   39.03    4.27
  -6 -14  -1    1.66    2.48
  20  -6  -1   -2.69    2.68
 -14  20  -1   -3.81    1.91
  14 -20   1    0.42    2.67
   6  14   1    0.81    2.18
 -20   6   1   -2.36    1.91
 -14  23  -1   17.36    3.83
  23  -9  -1   16.82    3.97
  -9 -14  -1   13.78    3.62
  14 -23   1    9.11    4.08
 -23   9   1   15.86    3.59
  26 -12  -1   -0.41    5.02
 -14  26  -1   -3.22    3.78
 -26  12   1    1.05    3.36
  14 -26   1   -9.40    4.71
 -14  29  -1   28.84    5.55
  29 -15  -1   11.21    7.02
  14 -29   1   22.84    7.04
 -29  15   1   31.29    6.16
  26 -15  -1   28.16    5.91
 -11  26  -1   35.01    5.17
  11 -26   1   20.20    5.76
 -26  15   1   21.57    4.76
 -15  -8  -1   11.27    3.53
  -8  23  -1    7.64    3.14
  23 -15  -1    3.09    3.47
   8 -23   1   13.30    3.74
 -23  15   1   12.96    3.47
  20 -15  -1   49.46    5.33
  -5  20  -1   44.10    3.82
 -15  -5  -1   55.57    4.48
 -15  -5  -1   37.43    3.94
  15   5   1   43.37    4.94
  15   5   1   51.88    4.35
   5 -20   1   45.58    4.94
 -20  15   1   44.59    4.07
  -2  17  -1    2.30    1.69
  17 -15  -1    3.61    2.56
  15   2   1    1.17    2.26
 -17  15   1    5.79    2.13
   2 -17   1    4.21    2.31
 -17  15   1    4.42    1.97
 -15   1  -1   27.51    2.74
   1  14  -1   21.11    2.55
  14 -15  -1   30.26    3.60
  15  -1   1   30.08    3.53
  15  -1   1   29.98    3.18
 -14  15   1   27.15    3.27
  -1 -14   1   26.46    3.37
 -14  15   1   29.77    3.03
 -15   4  -1    1.02    1.43
  11 -15  -1    1.89    2.02
   4  11  -1    1.80    1.31
 -11  15   1    4.80    1.45
  -4 -11   1    1.39    1.48
  15  -4   1    1.87    1.81
  -4 -11   1    3.17    1.51
 -11  15   1    2.80    1.80
   7   8  -1   64.39    3.27
 -15   7  -1   57.84    3.43
  -8  15   1   53.22    3.59
  -7  -8   1   62.05    2.71
  -7  -8   1   60.47    3.52
  15  -7   1   66.77    4.04
  10   5  -1   18.71    2.22
  10   5  -1   18.17    2.46
   5 -15  -1   22.23    4.57
   5 -15  -1   14.96    2.81
  15 -10   1   18.87    3.10
  -5  15   1   18.01    2.28
  -5  15   1   19.36    2.09
 -10  -5   1   19.94    2.31
 -15  13  -1    9.77    1.83
  13   2  -1   11.19    2.35
   2 -15  -1   11.15    2.77
  13   2  -1    9.72    2.04
  15 -13   1    5.82    2.34
  -2  15   1    9.35    1.87
  -1 -15  -1   45.76    4.17
  16  -1  -1   45.35    3.92
 -15  16  -1   46.84    3.74
  16  -1  -1   47.97    5.77
 -16   1   1   47.75    3.66
  15 -16   1   49.04    4.47
   1  15   1   46.01    3.26
  -4 -15  -1    2.53    2.14
 -15  19  -1   -1.60    1.97
  19  -4  -1    3.97    2.80
   4  15   1    2.78    2.10
  15 -19   1    3.89    2.61
 -19   4   1   -0.41    2.16
  -7 -15  -1   32.54    4.58
  22  -7  -1   40.55    5.33
 -15  22  -1   46.82    4.75
 -22   7   1   39.98    4.44
  15 -22   1   33.83    4.88
   7  15   1   35.05    4.18
 -15  25  -1    1.03    3.13
 -10 -15  -1   -4.78    3.86
  25 -10  -1    3.79    4.42
 -25  10   1    0.68    3.20
  15 -25   1    0.48    4.55
 -15  28  -1   30.32    5.62
  28 -13  -1   25.60    6.51
  15 -28   1   29.72    6.09
 -28  13   1   20.90    5.28
 -12  28  -1   -8.85    3.86
  28 -16  -1   -1.77    6.27
  12 -28   1   -6.99    4.91
 -28  16   1   -6.99    4.49
  25 -16  -1   17.93    5.19
  -9  25  -1    5.22    3.73
 -16  -9  -1    5.13    4.24
   9 -25   1   -3.13    4.20
 -25  16   1   13.17    4.09
 -16  -6  -1    3.72    2.96
  -6  22  -1    5.01    2.59
  22 -16  -1    4.31    3.90
 -22  16   1    1.89    2.56
  16   6   1    2.16    3.43
   6 -22   1    1.83    3.44
 -16  -3  -1    6.35    2.51
  -3  19  -1    7.45    2.44
  19 -16  -1    7.49    2.84
 -16  -3  -1    0.35    2.08
  16   3   1    3.02    2.63
  16   3   1    4.23    2.75
   3 -19   1    3.88    2.77
 -19  16   1    4.24    2.25
  16 -16  -1    4.16    2.11
 -16   0  -1    4.26    1.86
   0  16  -1    2.68    1.87
  16   0   1    3.03    2.25
 -16  16   1    2.93    2.12
 -16  16   1   -0.28    1.71
   0 -16   1    3.16    2.25
  16   0   1    2.57    2.24
  13 -16  -1   35.93    3.83
 -16   3  -1   38.08    3.07
   3  13  -1   32.76    3.04
  16  -3   1   33.67    5.81
 -13  16   1   33.57    2.97
  -3 -13   1   35.82    3.37
 -13  16   1   35.89    3.71
 -16   6  -1    8.23    1.84
   6  10  -1    8.54    1.72
  10 -16  -1    2.94    1.86
 -10  16   1    8.90    2.01
 -10  16   1    5.96    1.77
  -6 -10   1    8.15    1.56
  -6 -10   1    6.61    1.76
  16  -6   1   10.04    2.38
   7 -16  -1   33.22    3.85
 -16   9  -1   35.98    3.11
   9   7  -1   42.39    2.98
  16  -9   1   46.54    3.78
  -7  16   1   42.59    3.71
  -9  -7   1   37.54    3.11
  -7  16   1   43.18    3.09
  -9  -7   1   45.67    2.09
   4 -16  -1    1.54    1.69
  12   4  -1   -1.48    1.73
 -16  12  -1    4.19    1.55
  12   4  -1    4.50    2.46
 -12  -4   1    0.16    1.69
  16 -12   1    5.46    1.95
  -4  16   1    2.00    1.60
   1 -16  -1   46.30    4.13
  15   1  -1   44.62    3.79
  15   1  -1   52.86    4.22
 -16  15  -1   42.86    3.38
 -15  -1   1   41.33    3.55
  16 -15   1   46.89    4.43
  -1  16   1   43.49    3.11
  -2 -16  -1   -2.68    2.15
  18  -2  -1   -2.20    2.49
  18  -2  -1   -4.31    2.44
 -16  18  -1    2.73    2.00
   2  16   1    3.04    2.12
 -18   2   1    5.51    2.04
  16 -18   1    4.10    2.78
 -16  21  -1   28.13    3.82
  21  -5  -1   31.53    4.44
  -5 -16  -1   30.46    4.33
  16 -21   1   33.93    4.61
   5  16   1   32.54    3.84
 -21   5   1   28.95    3.80
 -16  24  -1    5.47    3.13
  -8 -16  -1   -2.29    3.53
  24  -8  -1    5.04    4.15
 -24   8   1    1.02    3.27
  16 -24   1    3.77    6.91
 -11 -16  -1   24.40    5.30
  27 -11  -1   19.44    6.18
 -16  27  -1   17.55    4.86
  16 -27   1    8.26    5.76
 -27  11   1   13.66    4.95
 -10  27  -1    5.88    3.96
 -17 -10  -1    3.45    5.04
  27 -17  -1   11.30    5.29
  10 -27   1   16.34    5.85
 -27  17   1    7.22    4.09
  -7  24  -1   29.25    4.10
 -17  -7  -1   35.07    5.02
 -24  17   1   37.45    4.61
   7 -24   1   39.56    5.81
 -17  -4  -1    1.08    4.67
 -17  -4  -1    7.81    2.90
  -4  21  -1    6.66    2.59
  21 -17  -1    9.79    3.41
  17   4   1   10.77    3.64
 -21  17   1   10.37    3.08
   4 -21   1    7.11    3.45
  18 -17  -1   24.42    3.79
 -17  -1  -1   30.46    3.80
  -1  18  -1   29.90    3.54
 -18  17   1   33.63    3.58
  17   1   1   37.11    4.48
   1 -18   1   31.93    4.02
  17   1   1   27.40    3.62
 -17   2  -1   -1.19    1.76
   2  15  -1   -2.10    1.73
  15 -17  -1    0.80    2.11
  17  -2   1    1.34    2.31
 -15  17   1   -2.20    1.93
 -15  17   1    1.48    1.70
  -2 -15   1   -1.01    2.10
  17  -2   1    2.07    2.30
 -17   5  -1   23.44    2.71
   5  12  -1   20.57    2.48
  12 -17  -1   18.76    2.79
 -12  17   1   22.18    2.67
  17  -5   1   26.37    3.27
  -5 -12   1   24.14    3.10
 -12  17   1   20.58    2.87
 -17   8  -1    2.31    1.67
   8   9  -1    1.28    1.64
   9 -17  -1    3.01    2.21
  -9  17   1    3.44    2.18
  17  -8   1    3.18    2.20
  -8  -9   1    1.87    1.70
  -8  -9   1    3.08    1.36
  -9  17   1    4.99    1.87
   6 -17  -1   13.63    2.76
  11   6  -1   11.42    2.19
 -17  11  -1    8.99    2.06
  11   6  -1   10.97    2.45
  17 -11   1   12.82    2.73
 -11  -6   1   10.64    2.21
  -6  17   1    8.22    1.92
  14   3  -1    8.25    2.21
  14   3  -1   17.60    2.95
   3 -17  -1    8.21    2.60
 -17  14  -1   14.48    2.40
  -3  17   1   15.23    2.30
  17 -14   1   13.85    3.09
 -14  -3   1   10.58    2.36
  17   0  -1    3.12    2.65
   0 -17  -1    2.13    2.52
  17   0  -1    4.54    2.60
 -17  17  -1    6.66    2.19
  17 -17   1    0.99    2.53
   0  17   1    3.27    2.05
 -17   0   1    1.24    2.13
  -3 -17  -1   17.78    3.83
 -17  20  -1   15.69    3.18
  20  -3  -1   18.10    3.71
   3  17   1   17.78    2.93
  17 -20   1   14.91    4.00
 -20   3   1   13.43    3.04
  23  -6  -1   -2.29    3.68
 -17  23  -1   -5.00    3.03
  -6 -17  -1   -2.09    3.44
  17 -23   1    5.65    4.27
 -23   6   1    6.16    3.26
  -9 -17  -1   18.18    5.22
 -17  26  -1   24.03    4.63
  26  -9  -1   27.32    6.01
 -26   9   1   25.50    4.88
  17 -26   1   25.51    5.87
  29 -12  -1    8.43    6.80
  17 -29   1    0.38    6.63
 -29  12   1    8.35    5.50
 -11  29  -1    0.96    7.09
  29 -18  -1    4.70    6.95
  11 -29   1    3.95    6.38
 -29  18   1    0.99    7.93
  -8  26  -1   -0.39    3.42
  26 -18  -1   -9.47    5.15
 -18  -8  -1    7.37    4.89
   8 -26   1   -3.77    4.87
 -26  18   1   -0.73    4.08
  23 -18  -1    8.57    4.60
  -5  23  -1   10.90    5.30
 -18  -5  -1    6.63    3.64
  18   5   1   -1.21    4.29
   5 -23   1    6.49    4.02
 -23  18   1    6.93    3.23
  -2  20  -1   -2.00    2.29
 -18  -2  -1    1.46    2.76
  20 -18  -1    1.64    3.43
 -18  -2  -1    1.35    2.70
 -20  18   1   -0.57    2.73
   2 -20   1    0.68    2.60
  18   2   1   -0.60    3.23
  18   2   1    3.47    3.32
   1  17  -1   19.82    2.93
  17 -18  -1   19.61    3.47
 -18   1  -1   13.23    2.58
  18  -1   1   15.55    3.03
  -1 -17   1   21.45    3.44
 -17  18   1   16.52    2.78
  18  -1   1   17.61    3.15
  14 -18  -1    1.65    2.12
   4  14  -1   -1.22    1.67
 -18   4  -1   -0.11    1.77
 -14  18   1   -1.42    2.22
 -14  18   1   -0.45    1.61
  -4 -14   1   -1.75    1.98
  18  -4   1   -1.19    2.38
   7  11  -1   33.78    3.11
  11 -18  -1   37.33    4.12
 -18   7  -1   37.47    3.24
  -7 -11   1   33.88    2.89
  18  -7   1   31.34    4.06
 -11  18   1   32.50    3.82
 -11  18   1   31.24    3.27
   8 -18  -1    0.04    1.82
 -18  10  -1   -0.19    1.80
  10   8  -1   -0.73    1.58
  18 -10   1   -1.10    1.83
 -10  -8   1   -0.95    1.80
 -10  -8   1    0.54    1.11
  -8  18   1    0.51    1.68
 -18  13  -1   59.89    3.93
  13   5  -1   59.86    4.02
   5 -18  -1   60.69    4.85
  -5  18   1   54.34    3.64
  18 -13   1   64.04    5.10
 -18  16  -1    0.45    1.81
  16   2  -1    0.77    2.40
  16   2  -1    0.22    2.53
   2 -18  -1   -0.19    2.38
 -16  -2   1    4.52    2.14
  18 -16   1   -2.81    2.44
 -16  -2   1   -2.88    2.04
  -2  18   1   -0.40    1.93
 -18  19  -1   34.54    3.83
  19  -1  -1   34.83    4.39
  -1 -18  -1   36.74    4.39
  19  -1  -1   44.51    4.99
  18 -19   1   38.49    4.81
   1  18   1   40.79    4.02
 -19   1   1   39.24    4.29
  22  -4  -1    0.75    3.65
  -4 -18  -1    3.66    3.56
 -18  22  -1    5.43    3.00
 -22   4   1   -4.08    2.95
   4  18   1    5.04    3.07
  18 -22   1   -3.89    3.63
 -18  25  -1   29.17    5.00
 -25   7   1   27.48    4.59
  18 -25   1   25.09    5.36
 -10 -18  -1   10.24    6.45
 -18  28  -1    1.30    4.74
  28 -10  -1   -6.40    5.98
 -28  10   1   -4.66    4.87
  18 -28   1   13.59    6.34
  -9  28  -1   29.09    5.59
  28 -19  -1   24.89    7.30
   9 -28   1   15.51    6.58
 -28  19   1   16.85    5.49
  25 -19  -1   13.51    5.47
  -6  25  -1   11.00    4.03
   6 -25   1    5.48    4.93
 -25  19   1    5.91    4.06
  -3  22  -1   29.24    4.17
  22 -19  -1   27.81    5.27
 -19  -3  -1   30.12    4.30
  19   3   1   39.58    5.25
 -22  19   1   29.81    4.58
   3 -22   1   25.41    4.46
 -19   0  -1   -1.47    2.40
   0  19  -1   -1.61    2.18
  19 -19  -1    3.25    2.93
 -19  19   1   -2.96    2.32
  19   0   1    2.01    3.24
  19   0   1    4.23    3.12
   0 -19   1   -3.92    2.89
   3  16  -1   29.11    3.39
  16 -19  -1   26.92    3.95
 -19   3  -1   29.94    3.30
 -16  19   1   26.25    3.30
  19  -3   1   31.56    4.29
 -16  19   1   25.91    3.44
  -3 -16   1   30.19    3.85
 -19   6  -1    0.65    1.94
   6  13  -1    2.33    1.94
  13 -19  -1    0.86    2.21
  19  -6   1    1.98    2.67
  -6 -13   1   -2.42    2.18
 -13  19   1    3.03    2.22
 -13  19   1    2.82    2.77
 -19   9  -1   33.47    3.16
   9  10  -1   33.98    3.39
  10 -19  -1   29.14    3.80
  -9 -10   1   28.85    2.64
  -9 -10   1   34.84    3.56
  19  -9   1   28.62    3.94
 -10  19   1   28.39    3.39
 -19  12  -1    2.20    1.91
   7 -19  -1    4.21    2.33
  12   7  -1    1.56    1.97
 -12  -7   1    2.59    2.18
  19 -12   1    4.61    2.42
  -7  19   1    1.77    1.92
  15   4  -1   14.50    3.05
 -19  15  -1   11.23    2.79
   4 -19  -1   13.91    3.19
  15   4  -1    7.33    2.55
  19 -15   1   12.88    3.16
 -15  -4   1   11.46    2.61
  -4  19   1   13.25    2.38
  18   1  -1   11.30    3.29
  18   1  -1   14.71    3.65
   1 -19  -1   13.95    3.25
 -19  18  -1   19.67    3.45
  -1  19   1   19.82    3.11
  19 -18   1   11.02    3.83
 -18  -1   1   14.90    3.19
 -18  -1   1   22.35    3.33
  21  -2  -1    7.40    3.68
  -2 -19  -1    6.12    3.63
  19 -21   1    0.27    3.59
 -21   2   1    3.51    2.92
   2  19   1    0.56    2.84
 -19  24  -1   30.66    4.54
  -5 -19  -1   23.97    5.19
  24  -5  -1   13.85    4.71
  19 -24   1   17.87    5.38
 -19  27  -1   -5.95    4.48
  27  -8  -1   -0.24    5.80
  -8 -19  -1    4.65    5.52
  19 -27   1    9.75    5.95
 -27   8   1   -7.31    4.58
  27 -20  -1    8.58    6.06
  -7  27  -1   10.76    4.80
 -27  20   1    9.42    4.46
 -20  -4  -1    1.00    4.31
  -4  24  -1   -0.53    3.73
  24 -20  -1   -3.89    4.28
  20   4   1   -2.64    4.49
 -24  20   1    8.20    4.02
   4 -24   1   -3.56    4.36
  21 -20  -1   16.54    3.96
 -20  -1  -1    1.37    3.36
  -1  21  -1    8.78    3.07
 -21  20   1    7.67    3.16
  20   1   1   11.64    4.13
   1 -21   1   11.78    3.60
  18 -20  -1    2.95    2.92
 -20   2  -1    3.22    2.62
   2  18  -1   -0.78    2.41
 -18  20   1    2.50    2.30
  20  -2   1    2.95    3.10
  -2 -18   1    1.42    2.94
  15 -20  -1   27.33    4.32
   5  15  -1   28.32    3.30
 -20   5  -1   32.17    3.57
  20  -5   1   25.62    4.13
 -15  20   1   23.20    3.74
 -15  20   1   26.32    3.46
  -5 -15   1   31.52    3.81
 -20   8  -1    3.03    2.15
   8  12  -1    3.09    2.25
  12 -20  -1    4.32    2.55
 -12  20   1    1.48    2.23
  -8 -12   1    1.77    2.23
  20  -8   1    3.21    2.87
   9 -20  -1   16.10    3.24
 -20  11  -1   18.32    3.02
  11   9  -1   24.55    3.12
  -9  20   1   22.02    3.08
  20 -11   1   22.69    3.61
 -11  -9   1   18.17    3.11
 -20  14  -1    1.22    2.01
  14   6  -1    1.34    2.77
   6 -20  -1    3.89    2.83
  14   6  -1    6.09    2.63
  -6  20   1    0.66    1.90
 -14  -6   1    0.01    2.25
  20 -14   1   -2.41    2.75
  17   3  -1   23.84    3.80
   3 -20  -1   24.69    3.72
 -20  17  -1   26.67    3.78
  17   3  -1   25.58    3.67
 -17  -3   1   29.34    3.78
  -3  20   1   27.04    3.46
  20 -17   1   31.53    4.61
 -17  -3   1   31.28    3.77
 -20  20  -1    0.91    2.72
  20   0  -1   -0.73    3.30
   0 -20  -1    1.41    3.32
  20   0  -1   -0.29    3.77
 -20   0   1    0.22    2.91
 -20   0   1    3.77    3.09
  20 -20   1   -2.49    3.18
   0  20   1   -2.53    2.64
  -3 -20  -1   32.27    5.40
  23  -3  -1   35.46    5.62
 -20  23  -1   31.17    4.70
  20 -23   1   40.66    6.17
 -23   3   1   36.54    4.88
 -20  26  -1   -3.79    3.86
  26  -6  -1   12.26    5.75
  -6 -20  -1    4.19    5.17
  20 -26   1    3.40    5.82
  20 -29   1   22.49    7.27
  26 -21  -1   43.36    7.49
  -5  26  -1   32.55    5.28
 -21  -5  -1   27.64    7.02
 -26  21   1   27.55    5.40
   5 -26   1   41.23    6.85
  23 -21  -1    0.94    4.29
 -21  -2  -1    7.10    4.17
  -2  23  -1    4.93    3.78
 -23  21   1    4.11    3.95
  21   2   1    6.60    4.58
 -21   1  -1   50.08    5.98
  20 -21  -1   57.42    6.97
   1  20  -1   49.22    5.13
 -20  21   1   52.70    4.91
  -1 -20   1   47.32    5.80
  21  -1   1   49.94    6.06
 -21   4  -1    3.32    2.60
   4  17  -1    4.10    2.66
  17 -21  -1    3.40    3.22
 -17  21   1    3.04    2.95
  21  -4   1   -1.36    2.88
  -4 -17   1    7.57    3.23
 -21   7  -1   32.69    3.83
  14 -21  -1   21.38    4.42
   7  14  -1   32.35    3.59
  21  -7   1   30.48    4.55
  -7 -14   1   30.49    3.96
 -14  21   1   26.72    3.62
  11 -21  -1    3.28    2.63
 -21  10  -1    2.51    2.18
  10  11  -1    2.21    2.46
 -11  21   1    1.09    2.32
  21 -10   1    1.59    3.06
 -10 -11   1    1.60    2.37
 -21  13  -1   27.66    3.62
  13   8  -1   31.97    3.99
   8 -21  -1   28.81    4.08
  -8  21   1   27.65    3.52
 -13  -8   1   25.64    3.56
  21 -13   1   30.33    4.14
 -21  16  -1    5.28    2.55
  16   5  -1    9.81    3.19
   5 -21  -1    7.02    2.91
  16   5  -1    4.29    3.23
  21 -16   1    8.69    3.48
 -16  -5   1    3.45    2.85
 -16  -5   1   11.36    2.96
  -5  21   1    7.82    2.71
   2 -21  -1    3.34    3.65
  19   2  -1    4.62    3.65
  19   2  -1    1.65    3.87
 -21  19  -1    3.45    2.83
 -19  -2   1   -0.54    3.06
  -2  21   1    2.91    2.84
 -19  -2   1    0.40    3.27
  21 -19   1    0.34    3.32
  -1 -21  -1    3.21    4.21
  22  -1  -1   10.13    4.43
 -21  22  -1   10.75    3.57
   1  21   1    9.79    3.68
 -22   1   1    9.42    3.77
 -22   1   1    6.82    3.75
  21 -22   1    1.19    4.09
  25  -4  -1   -0.03    5.44
  -4 -21  -1   11.38    4.89
 -21  25  -1   -1.17    4.12
  21 -25   1   -2.83    5.38
  -7 -21  -1   17.35    6.72
  21 -28   1   12.55    6.98
  -6  28  -1   -3.45    5.55
  28 -22  -1   12.89    7.04
   6 -28   1    7.19    6.52
  25 -22  -1   -6.04    4.99
  -3  25  -1   11.65    4.73
 -22  -3  -1    0.70    4.90
  22   3   1   -1.46    5.55
   3 -25   1   -2.86    4.83
 -25  22   1   -0.16    3.99
 -22   0  -1   -0.47    3.91
   0  22  -1   -4.02    3.48
  22 -22  -1    8.70    4.87
   0 -22   1    0.05    5.61
  22   0   1   13.47    4.88
 -22  22   1    6.94    3.87
   3  19  -1   14.24    3.63
  19 -22  -1   21.49    5.14
 -22   3  -1   17.36    3.49
  22  -3   1    5.71    4.03
 -19  22   1   14.85    3.41
  -3 -19   1   18.00    4.12
   6  16  -1    5.41    2.79
  16 -22  -1   -0.66    3.69
 -22   6  -1   -1.89    2.64
  -6 -16   1    2.57    3.08
  22  -6   1   -2.26    2.99
 -16  22   1   -2.14    2.86
 -22   9  -1   31.80    3.80
   9  13  -1   39.06    4.15
  13 -22  -1   33.39    4.83
  22  -9   1   33.73    4.55
  -9 -13   1   37.29    4.63
 -13  22   1   32.13    3.91
  10 -22  -1   -3.21    3.11
  12  10  -1   -1.82    2.79
 -22  12  -1    5.09    2.77
 -12 -10   1   -0.67    2.67
 -10  22   1    1.28    2.21
  22 -12   1    2.48    2.97
  15   7  -1   36.86    4.32
   7 -22  -1   25.30    4.20
 -22  15  -1   43.46    5.10
 -15  -7   1   43.03    5.25
  22 -15   1   41.11    5.35
  -7  22   1   30.43    4.08
  18   4  -1    3.55    3.79
  18   4  -1    1.77    3.53
 -22  18  -1   -2.73    4.00
   4 -22  -1    6.22    3.83
  -4  22   1    2.81    2.95
 -18  -4   1   -1.94    3.28
 -18  -4   1    2.18    2.96
  22 -18   1    3.02    4.05
  21   1  -1   26.87    5.35
   1 -22  -1   37.96    5.04
 -22  21  -1   29.27    4.37
  22 -21   1   25.50    5.16
  -1  22   1   32.44    4.41
 -21  -1   1   32.97    4.81
  -2 -22  -1    0.56    4.59
  24  -2  -1    3.36    5.17
 -22  24  -1    3.18    4.25
 -24   2   1    0.24    4.42
  22 -24   1   12.81    5.78
  -5 -22  -1   20.94    6.31
 -22  27  -1   14.08    5.15
  22 -27   1   21.83    7.20
  27 -23  -1   17.31    7.19
  -4  27  -1   14.03    5.81
   4 -27   1   16.57    6.60
 -23  -1  -1   33.64    5.72
  24 -23  -1   25.84    6.57
  -1  24  -1   31.81    5.38
 -24  23   1   31.58    5.31
   1 -24   1   25.34    6.07
  23   1   1   23.36    6.28
  21 -23  -1   -1.31    4.05
   2  21  -1   -1.13    5.11
 -21  23   1    8.23    4.04
  -2 -21   1    2.08    4.29
  23  -2   1    9.78    4.49
   5  18  -1   26.78    4.07
 -23   5  -1   36.06    4.16
 -18  23   1   28.18    4.10
  -5 -18   1   30.38    4.95
  23  -5   1   22.29    4.91
 -23   8  -1    0.24    2.64
   8  15  -1   -0.08    2.98
  15 -23  -1    7.91    4.06
  -8 -15   1   -0.67    2.98
  23  -8   1    4.13    3.71
  11  12  -1   30.38    4.09
  12 -23  -1   22.29    4.84
 -23  11  -1   25.67    3.58
 -11 -12   1   19.95    2.55
  23 -11   1   28.62    4.64
 -12  23   1   31.13    4.08
 -11 -12   1   26.69    3.93
   9 -23  -1    5.22    3.78
  14   9  -1   -0.32    3.19
 -23  14  -1    3.36    2.72
 -14  -9   1    4.04    3.22
  23 -14   1   -2.28    3.32
  -9  23   1    6.01    2.99
   6 -23  -1    7.25    3.51
 -23  17  -1    9.64    4.31
  -6  23   1    5.23    3.16
  23 -17   1    9.88    4.34
 -17  -6   1    3.86    3.74
  20   3  -1    3.04    4.43
 -23  20  -1    5.29    3.35
 -20  -3   1    3.85    3.94
  23 -20   1    8.30    4.85
   0 -23  -1    8.17    4.95
 -23  23  -1    7.93    4.02
  23 -23   1    9.01    5.40
  -3 -23  -1   15.51    6.31
 -23  26  -1   19.17    4.79
  23 -26   1   16.68    6.93
  26 -24  -1   17.19    7.04
 -26  24   1   -4.39    6.58
   2 -26   1   -0.96    6.05
  23 -24  -1   16.13    5.42
 -24   1  -1   20.16    5.34
  -1 -23   1   13.44    5.91
  24  -1   1   16.52    5.79
 -23  24   1    7.90    4.42
  20 -24  -1   -5.77    4.11
  -4 -20   1    3.74    4.43
 -20  24   1    6.19    3.73
  17 -24  -1   13.57    4.63
 -24   7  -1   24.82    3.94
 -17  24   1   20.84    3.76
  -7 -17   1   19.20    4.60
  24  -7   1    5.93    4.60
  14 -24  -1    3.44    4.71
 -24  10  -1   -8.79    3.01
 -10 -14   1   -3.25    3.34
  24 -10   1    3.70    4.12
 -14  24   1   -1.58    3.07
  11 -24  -1   32.23    5.33
 -24  13  -1   37.03    4.47
 -11  24   1   33.57    4.55
  24 -13   1   31.51    5.01
 -13 -11   1   35.28    4.60
 -24  16  -1    0.61    3.27
   8 -24  -1   -0.11    4.36
  -8  24   1    1.11    3.38
 -16  -8   1    3.87    3.55
  24 -16   1    0.30    4.48
 -24  19  -1   31.78    4.39
  19   5  -1   22.75    5.26
   5 -24  -1   27.01    4.83
 -19  -5   1   21.51    4.60
  24 -19   1   32.06    5.85
  -5  24   1   30.81    4.35
   2 -24  -1   -4.96    4.66
 -24  22  -1   -5.62    3.92
  24 -22   1    2.83    5.28
  -2  24   1    5.22    4.54
  -1 -24  -1   39.27    7.21
 -24  25  -1   36.70    5.63
  24 -25   1   34.78    7.11
  25 -25  -1    2.19    5.72
   0 -25   1    3.84    6.10
 -25  25   1   -4.46    5.03
  22 -25  -1   32.53    6.31
  25  -3   1   28.42    6.45
  -3 -22   1   33.53    6.30
 -22  25   1   33.72    5.82
  19 -25  -1    4.09    5.01
 -19  25   1    6.90    3.57
  25  -6   1   -2.24    4.76
  16 -25  -1   23.17    5.21
 -25   9  -1   17.62    4.99
 -16  25   1   19.49    3.92
  25  -9   1   32.06    9.76
  -9 -16   1   19.87    4.68
  13 -25  -1    1.73    3.93
 -25  12  -1    4.55    3.60
 -12 -13   1    1.47    3.98
 -13  25   1    2.84    3.56
  10 -25  -1    6.80    4.47
 -25  15  -1   11.00    3.80
 -15 -10   1    3.12    4.02
  25 -15   1   12.71    5.17
 -10  25   1   -2.79    3.34
 -25  18  -1    3.33    3.56
   7 -25  -1    6.14    4.91
  -7  25   1    8.73    3.75
  25 -18   1    3.55    4.93
 -25  21  -1    7.21    3.93
   4 -25  -1    4.02    4.97
  25 -21   1    5.53    5.62
  -4  25   1    7.45    4.23
   1 -25  -1   15.15    6.02
 -25  24  -1    5.60    4.98
  25 -24   1    3.45    6.29
  24 -26  -1    1.26    6.36
  -2 -24   1    5.70    6.25
  21 -26  -1    8.12    5.43
  26  -5   1   14.00    5.66
  -5 -21   1   21.26    5.72
 -21  26   1   11.71    4.36
 -26   8  -1   -3.73    5.82
  18 -26  -1   -3.87    5.06
  -8 -18   1    3.45    4.78
  26  -8   1    6.04    5.13
 -18  26   1    6.02    4.17
 -26  11  -1   27.54    4.87
  15 -26  -1   27.87    6.10
 -15  26   1   29.67    4.77
  26 -11   1   18.73    5.13
 -11 -15   1   26.80    5.31
 -26  14  -1    4.42    3.92
  26 -14   1   -1.89    5.18
 -12  26   1    1.73    3.34
 -26  17  -1   22.80    4.67
   9 -26  -1   28.72    5.93
  26 -17   1   18.27    5.74
  -9  26   1   27.86    4.80
   6 -26  -1   -3.88    5.41
 -26  20  -1    7.73    4.50
  26 -20   1    3.99    5.82
  -6  26   1   -6.28    4.00
   3 -26  -1   31.52    6.48
 -26  23  -1   31.68    5.21
  26 -23   1   20.12    7.13
  23 -27  -1   -1.10    5.98
 -27   4  -1   -8.18    5.58
  20 -27  -1   24.31    6.52
  27  -7   1   15.19    6.34
 -20  27   1   19.71    5.56
  17 -27  -1   -1.30    5.44
 -27  10  -1    8.64    4.63
 -17  27   1    1.71    3.89
  27 -10   1   -9.32    5.31
  14 -27  -1   12.06    5.78
 -27  13  -1   23.48    4.94
  27 -13   1   12.59    5.79
 -14  27   1   15.58    4.19
 -27  16  -1    4.80    4.17
  11 -27  -1    0.61    5.18
  27 -16   1    9.81    5.77
 -11  27   1    6.93    4.32
 -27  19  -1   11.08    4.70
   8 -27  -1   15.11    5.83
  -8  27   1   10.87    4.72
  27 -19   1    9.13    5.23
   5 -27  -1    1.74    6.18
 -27  22  -1    0.84    5.13
  27 -22   1   13.78    6.04
  22 -28  -1    4.87    6.81
  28  -6   1   -0.94    6.70
  19 -28  -1   -1.12    6.30
  28  -9   1    8.22    6.59
 -19  28   1    5.81    5.16
  16 -28  -1   -4.07    5.87
 -28  12  -1    3.06    4.96
  28 -12   1   -0.10    5.74
 -16  28   1    1.72    4.22
 -28  15  -1   32.74    5.55
  13 -28  -1   45.39    6.72
 -13  28   1   30.16    5.07
  28 -15   1   37.80    6.54
  10 -28  -1   -0.82    5.59
 -28  18  -1    2.46    4.91
 -10  28   1    1.29    4.70
  28 -18   1   -6.95    6.28
 -28  21  -1   20.93    8.66
   7 -28  -1    8.85    6.56
  28 -21   1   27.60    7.25
  -7  28   1   23.56    5.59
  18 -29  -1   22.19    7.29
  29 -11   1   17.63    6.97
 -29  14  -1   -2.42    5.10
  15 -29  -1    9.42    6.56
  29 -14   1   -2.39    6.43
 -15  29   1    7.06    5.33
  12 -29  -1   14.54    6.53
 -29  17  -1   11.74    5.42
  29 -17   1   16.24    6.85
 -12  29   1   13.06    5.44
   9 -29  -1   -1.92    6.30
  29 -20   1    6.77    7.49
   0  -1  -2   -0.01    0.11
   0  -1  -2    0.38    0.17
  -1   1  -2    0.05    0.12
   0  -1  -2   -0.06    0.20
   1   0  -2    0.10    0.17
  -1   1  -2   -0.23    0.23
   1   0  -2    0.27    0.22
   0  -1  -2    0.02    0.11
   0   1   2   -0.11    0.19
  -1   0   2    0.18    0.19
   1  -1   2    0.10    0.21
   0   1   2    0.29    0.20
   1  -1   2    0.08    0.19
   0   1   2    0.06    0.10
   0   1   2    0.24    0.13
  -2   0  -2  878.24   21.75
   0   2  -2  952.09   22.02
   2  -2  -2  962.97   22.06
   2   0   2  882.26   21.75
   2   0   2  972.41   22.05
  -2   2   2 1000.00   22.08
  -2   2   2  971.88   22.12
  -1  -2  -2    2.10    0.38
  -2   3  -2    2.74    0.40
   3  -1  -2    2.78    0.40
   3  -1  -2    2.81    0.46
   3  -1  -2    2.49    0.38
  -1  -2  -2    2.53    0.44
   1   2   2    1.96    0.36
  -3   1   2    1.90    0.32
   2  -3   2    1.93    0.44
   1   2   2    3.07    0.51
   4  -3  -2   79.35    2.68
   4  -3  -2   80.16    2.49
  -1   4  -2   79.87    2.46
  -3  -1  -2   82.01    2.32
   4  -3  -2   78.02    2.57
  -4   3   2   77.91    2.45
  -4   3   2   80.89    2.57
   1  -4   2   84.82    2.52
   1  -4   2   81.08    2.50
   3   1   2   77.29    2.66
   3   1   2   80.74    2.25
  -3   2  -2   -0.19    0.21
   1  -3  -2    0.69    0.33
   1  -3  -2   -0.05    0.32
   2   1  -2   -0.19    0.22
   2   1  -2    0.37    0.30
  -1   3   2    0.08    0.24
  -2  -1   2    0.59    0.29
   3  -2   2    0.34    0.34
  -1   3   2   -0.03    0.24
   5  -2  -2    3.81    0.66
  -2  -3  -2    1.83    0.55
  -2  -3  -2    2.53    0.48
  -3   5  -2    2.83    0.52
   5  -2  -2    2.61    0.47
   5  -2  -2    2.56    0.58
  -5   2   2    2.33    0.41
  -5   2   2    3.36    0.65
   2   3   2    2.54    0.60
   2   3   2    2.46    0.46
   3  -5   2    2.38    0.64
   3  -5   2    2.33    0.54
   2   3   2    3.13    0.41
  -2   6  -2  483.29   12.14
   6  -4  -2  476.10   12.06
  -4  -2  -2  485.79   11.79
   6  -4  -2  492.59   12.37
   2  -6   2  501.95   12.36
   4   2   2  481.69   12.46
   4   2   2  497.54   11.65
  -6   4   2  493.03   12.07
   2  -6   2  485.10   12.22
  -6   4   2  507.19   12.36
   4   2   2  497.51   11.79
   1   3  -2    7.02    0.66
   3  -4  -2    6.83    0.82
   3  -4  -2    7.25    0.80
  -4   1  -2    8.09    0.58
  -1  -3   2    8.04    0.62
  -3   4   2    7.15    0.77
   4  -1   2    9.00    0.76
   4  -1   2    6.73    0.84
  -3   4   2    8.80    0.70
   4   0  -2  601.60   13.98
   4   0  -2  602.29   14.33
   0  -4  -2  581.36   14.55
   0  -4  -2  624.95   14.50
  -4   4  -2  597.68   14.37
   4   0  -2  599.01   14.47
   0   4   2  597.09   14.14
  -4   0   2  573.96   13.98
   0   4   2  596.97   14.42
   4  -4   2  603.06   14.66
   4  -4   2  601.72   14.44
  -4   7  -2    2.91    0.71
   7  -3  -2    2.83    0.62
   7  -3  -2    4.70    0.91
  -4   7  -2    3.55    0.74
   7  -3  -2    5.01    0.93
  -3  -4  -2    4.65    0.91
   4  -7   2    5.17    0.89
   3   4   2    4.09    0.59
   3   4   2    3.78    0.59
   3   4   2    4.45    0.89
  -7   3   2    4.75    0.61
   4  -7   2    5.28    1.07
  -7   3   2    5.96    0.97
   8  -5  -2    3.28    0.92
  -3   8  -2    1.08    0.69
  -5  -3  -2    1.60    0.53
   8  -5  -2    0.71    0.69
  -5  -3  -2    2.57    0.75
  -3   8  -2    1.28    0.68
   5   3   2    1.76    0.81
  -8   5   2    1.06    0.57
   5   3   2    1.81    0.44
   5   3   2    2.17    0.62
   3  -8   2    1.68    0.80
  -8   5   2    1.68    0.72
   3  -8   2    2.70    0.87
   0   5  -2   17.78    1.07
   5  -5  -2   16.97    1.24
   5  -5  -2   17.94    1.30
  -5   0  -2   17.05    0.96
  -5   0  -2   17.07    0.97
   0  -5   2   17.65    1.09
  -5   5   2   15.49    1.13
   0  -5   2   16.76    1.05
   5   0   2   16.04    0.84
  -5   5   2   16.35    1.12
   5   0   2   16.12    1.25
   5   0   2   18.78    1.01
   2  -5  -2    0.28    0.52
   2  -5  -2    0.20    0.51
   3   2  -2    0.36    0.42
  -5   3  -2    0.01    0.37
   3   2  -2    0.37    0.35
   5  -3   2    0.43    0.36
  -2   5   2    0.75    0.42
  -3  -2   2   -0.19    0.34
   5  -3   2   -0.03    0.58
  -2   5   2   -0.10    0.40
   6  -1  -2    0.51    0.57
  -5   6  -2    0.30    0.47
  -5   6  -2   -0.67    0.48
  -1  -5  -2    0.61    0.51
   6  -1  -2   -0.06    0.52
  -1  -5  -2    0.19    0.55
   6  -1  -2    0.16    0.33
   1   5   2    0.20    0.42
  -6   1   2    0.54    0.25
   1   5   2   -1.09    0.43
   5  -6   2   -0.72    0.64
   5  -6   2   -0.06    0.57
  -4  -5  -2    1.90    0.79
   9  -4  -2    3.05    1.00
  -4  -5  -2    2.12    0.66
  -5   9  -2    1.31    0.73
  -5   9  -2    2.15    0.81
   9  -4  -2    0.93    0.86
   4   5   2    1.10    0.57
  -9   4   2    1.77    0.90
   5  -9   2    3.51    1.02
   4   5   2    2.47    0.96
  -9   4   2    2.86    0.60
   4   5   2    1.80    0.62
   5  -9   2    1.57    1.01
  -4  10  -2  384.83   10.46
  -4  10  -2  397.68   10.39
  -6  -4  -2  400.25   10.66
  10  -6  -2  383.44   10.74
   4 -10   2  382.96   10.74
 -10   6   2  365.34    9.96
 -10   6   2  384.01   10.50
   6   4   2  384.76   10.78
   6   4   2  384.66    9.30
   4 -10   2  380.08   10.49
   6   4   2  391.88    9.89
   7  -6  -2    2.46    0.80
   7  -6  -2    3.11    0.92
  -6  -1  -2    3.06    0.54
  -1   7  -2    2.32    0.67
  -7   6   2    1.87    0.70
   1  -7   2    2.81    0.88
   6   1   2    2.52    0.34
   1  -7   2    3.51    0.78
   6   1   2    2.76    0.87
  -7   6   2    1.58    0.66
   6   1   2    1.46    0.55
  -6   2  -2  418.23   10.50
   2   4  -2  432.79   10.68
   4  -6  -2  441.67   10.94
   4  -6  -2  436.64   11.06
  -2  -4   2  411.20   10.37
  -4   6   2  429.69   10.70
   6  -2   2  436.49   10.58
  -2  -4   2  428.78   10.60
   6  -2   2  423.04   11.06
  -4   6   2  407.87   10.83
   6  -2   2  427.75   10.27
   5   1  -2    3.41    0.68
   1  -6  -2    3.73    0.73
   1  -6  -2    2.70    0.77
  -6   5  -2    2.76    0.63
   5   1  -2    3.89    0.72
  -5  -1   2    3.57    0.45
  -1   6   2    4.08    0.70
   6  -5   2    5.23    1.11
  -1   6   2    3.22    0.58
   6  -5   2    3.87    0.72
   8  -2  -2  523.75   13.85
  -6   8  -2  552.39   13.86
  -6   8  -2  558.12   13.77
  -2  -6  -2  532.76   13.55
   8  -2  -2  544.56   12.92
  -2  -6  -2  549.97   14.01
   6  -8   2  530.03   13.82
  -8   2   2  535.59   13.87
  -8   2   2  524.46   12.91
   2   6   2  553.19   13.42
   6  -8   2  551.94   14.18
   2   6   2  562.62   13.32
  -6  11  -2    0.09    0.79
  -6  11  -2    0.07    0.84
  -5  -6  -2    0.62    0.89
  11  -5  -2    1.41    1.11
  -5  -6  -2    0.04    0.71
  11  -5  -2    0.86    1.11
 -11   5   2    0.57    0.60
   5   6   2    0.18    0.73
   6 -11   2   -0.20    0.91
   5   6   2    0.97    0.69
 -11   5   2    0.95    1.02
   6 -11   2    0.34    1.16
   5   6   2   -0.29    0.89
  12  -7  -2    3.12    1.28
  -7  -5  -2    2.94    1.10
  -7  -5  -2    3.69    0.81
  -5  12  -2    1.58    0.96
  -5  12  -2   -0.13    1.02
   7   5   2    2.39    1.16
 -12   7   2    3.58    1.27
   5 -12   2    1.59    1.33
 -12   7   2    2.61    0.89
   7   5   2    2.17    0.91
   5 -12   2    2.03    1.31
  -7  -2  -2    7.25    0.82
  -2   9  -2    5.31    0.97
  -2   9  -2    5.08    0.92
   9  -7  -2    4.76    1.15
  -9   7   2    5.35    1.00
   2  -9   2    6.39    1.10
  -9   7   2    6.15    1.13
   2  -9   2    4.07    1.04
   7   2   2    4.40    1.23
   7   2   2    5.12    0.88
   1   6  -2    0.61    0.55
  -7   1  -2    0.17    0.63
   6  -7  -2    0.64    0.79
   6  -7  -2    1.13    0.74
   7  -1   2    0.37    0.72
   7  -1   2    0.68    0.45
  -1  -6   2    1.37    0.67
  -6   7   2    1.02    0.61
   7  -1   2    1.58    0.76
  -6   7   2    0.79    0.65
   7  -1   2    0.72    0.33
  -1  -6   2    0.22    0.51
   4   3  -2    1.61    0.64
   3  -7  -2    1.35    0.73
  -7   4  -2    1.11    0.57
   3  -7  -2    1.45    0.72
   4   3  -2    1.37    0.55
  -4  -3   2    1.86    0.57
  -4  -3   2    1.80    0.37
  -3   7   2    2.32    0.60
   7  -4   2    2.07    0.78
  -3   7   2    1.14    0.59
   7  -4   2    0.92    0.52
   7   0  -2    4.81    0.93
  -7   7  -2    4.24    0.81
   0  -7  -2    3.37    0.83
  -7   7  -2    3.39    0.79
   0  -7  -2    4.74    1.04
   7   0  -2    4.82    0.90
   7  -7   2    4.67    0.95
   7  -7   2    4.77    1.07
   0   7   2    3.55    0.78
   0   7   2    2.76    0.66
  -7   0   2    3.95    0.36
  -3  -7  -2    0.76    0.87
  10  -3  -2    0.44    0.97
  10  -3  -2    2.46    1.06
  -7  10  -2    2.29    1.04
  -3  -7  -2    1.01    0.79
  -7  10  -2   -0.75    0.86
   3   7   2   -0.37    0.67
 -10   3   2    1.01    0.45
 -10   3   2    2.25    0.90
   7 -10   2   -0.32    0.84
   3   7   2    0.39    0.72
   7 -10   2   -0.26    1.02
  -7  13  -2    7.91    1.63
  -6  -7  -2    7.07    1.48
  -6  -7  -2    9.60    1.26
  -7  13  -2    6.93    1.52
   6   7   2    9.74    1.14
   7 -13   2    4.87    1.91
   7 -13   2    8.01    1.82
 -13   6   2    7.98    1.09
   6   7   2    7.71    1.25
 -13   6   2    6.42    1.58
  14  -8  -2  269.86    8.95
  -8  -6  -2  272.05    7.42
  -8  -6  -2  276.56    8.73
  -6  14  -2  274.38    8.59
   8   6   2  276.98    7.86
   8   6   2  270.99    8.90
   6 -14   2  279.06    8.86
 -14   8   2  270.65    7.86
   6 -14   2  273.40    9.04
  11  -8  -2   12.79    1.85
  -8  -3  -2   11.08    1.06
  -3  11  -2   11.47    1.47
   8   3   2   12.68    1.72
   3 -11   2   12.96    1.75
   3 -11   2   13.59    1.81
   8   3   2   15.30    1.39
 -11   8   2   11.32    1.43
 -11   8   2   11.75    1.55
   0   8  -2  688.05   17.00
   8  -8  -2  667.71   17.17
  -8   0  -2  697.71   16.82
   8  -8  -2  691.37   17.55
   8   0   2  660.83   17.49
   0  -8   2  706.59   17.24
   8   0   2  678.61   16.80
  -8   8   2  666.31   17.14
   0  -8   2  686.41   16.98
  -8   8   2  692.51   17.23
   5  -8  -2    4.35    1.01
   3   5  -2    4.12    0.77
  -8   3  -2    4.95    0.83
   5  -8  -2    5.35    1.05
   8  -3   2    2.16    0.91
   8  -3   2    2.95    0.84
  -5   8   2    4.27    0.82
  -3  -5   2    5.69    0.87
  -5   8   2    3.87    0.87
  -3  -5   2    5.05    0.69
   8  -3   2    3.27    0.60
  -8   6  -2  476.50   12.07
   6   2  -2  476.38   12.06
   6   2  -2  478.57   12.10
   2  -8  -2  479.53   12.55
  -6  -2   2  466.69   11.08
  -2   8   2  476.62   11.89
  -6  -2   2  470.77   11.23
   8  -6   2  479.93   12.62
   8  -6   2  453.01   11.93
  -8   9  -2    0.88    0.79
  -1  -8  -2    1.01    0.87
  -8   9  -2    1.33    0.76
  -1  -8  -2    1.22    0.83
   9  -1  -2    1.42    0.91
   9  -1  -2    1.25    0.96
   1   8   2    1.99    0.77
   8  -9   2    1.52    1.00
  -9   1   2    0.88    0.30
   8  -9   2    1.58    1.12
   1   8   2    1.87    0.73
  -8  12  -2  295.62    8.97
  12  -4  -2  299.28    9.22
  -4  -8  -2  296.06    8.39
  -8  12  -2  299.54    8.86
  12  -4  -2  304.76    9.14
  -4  -8  -2  303.32    9.13
   8 -12   2  294.73    9.35
 -12   4   2  304.36    7.78
   4   8   2  306.97    8.28
   8 -12   2  305.21    9.19
 -12   4   2  302.51    8.97
   4   8   2  319.58    8.20
  -7  -8  -2    3.46    1.67
  -7  -8  -2   -0.14    1.12
  -8  15  -2    1.63    1.24
  15  -7  -2   -0.29    1.39
 -15   7   2    0.35    1.28
   8 -15   2    1.69    1.53
 -15   7   2    1.33    0.91
   7   8   2    1.73    1.37
  16  -9  -2    4.97    3.55
  -9  -7  -2    3.68    1.18
  -7  16  -2    0.79    1.54
  -9  -7  -2   -1.47    1.49
   7 -16   2    3.16    2.09
   9   7   2    2.30    1.68
 -16   9   2    3.34    1.54
 -16   9   2    2.18    1.20
   9   7   2    4.76    1.49
  -9  -4  -2   14.04    1.23
  -9  -4  -2   13.19    1.96
  -4  13  -2   13.86    1.77
  13  -9  -2   13.56    1.99
   4 -13   2   12.74    1.95
   4 -13   2   11.19    1.89
 -13   9   2   12.61    1.65
 -13   9   2   15.55    1.89
   9   4   2   12.10    2.11
   9   4   2   14.14    1.59
  10  -9  -2    1.49    1.07
 -10   9   2    1.18    0.97
   9   1   2    0.83    1.13
 -10   9   2    0.66    0.84
   1 -10   2    1.83    1.05
   9   1   2    0.91    0.87
   1 -10   2    1.25    0.94
   2   7  -2   11.25    1.20
  -9   2  -2   11.31    1.26
   7  -9  -2   14.23    1.68
   7  -9  -2   12.11    1.58
  -2  -7   2   12.34    1.41
   9  -2   2   11.82    1.11
  -7   9   2   12.29    1.53
  -7   9   2   12.85    1.32
   9  -2   2   13.04    1.40
  -2  -7   2   11.60    1.24
   9  -2   2   11.11    1.57
   4  -9  -2   -0.08    0.77
   5   4  -2    2.36    0.76
  -9   5  -2    1.12    0.78
   4  -9  -2    1.22    0.93
   9  -5   2    3.06    1.07
  -4   9   2    2.29    0.93
  -5  -4   2    1.15    0.44
  -4   9   2    0.75    0.63
   1  -9  -2   -0.83    0.88
  -9   8  -2    0.33    0.69
   8   1  -2   -1.06    0.82
   8   1  -2    0.78    0.73
   1  -9  -2   -0.06    0.89
  -1   9   2    1.27    0.82
  -1   9   2    0.12    0.66
   9  -8   2   -0.41    0.94
  11  -2  -2    2.82    1.21
  11  -2  -2    0.40    1.06
  -9  11  -2    0.58    0.88
  -2  -9  -2   -0.49    0.89
  -9  11  -2   -0.17    0.91
  -2  -9  -2   -0.45    0.94
   2   9   2    0.64    0.80
   2   9   2   -0.19    1.12
 -11   2   2   -0.06    1.10
  14  -5  -2    9.68    2.00
  14  -5  -2    9.07    1.93
  -9  14  -2    8.41    1.68
  -5  -9  -2    8.61    1.69
  -5  -9  -2    8.73    1.53
  -9  14  -2    6.85    1.68
   5   9   2    8.14    1.37
   5   9   2    6.73    1.42
 -14   5   2    5.09    1.47
   9 -14   2    8.74    1.93
  17  -8  -2    2.78    2.49
  -9  17  -2    1.20    1.62
  -8  -9  -2   -0.54    1.40
   8   9   2   -0.76    1.52
   9 -17   2    0.86    1.97
 -17   8   2   -0.51    1.67
  18 -10  -2  160.78    7.31
 -10  -8  -2  163.71    6.81
  -8  18  -2  158.35    6.39
 -10  -8  -2  168.00    5.23
   8 -18   2  158.87    7.11
  10   8   2  174.79    6.19
 -18  10   2  160.95    6.53
 -10  -5  -2   -0.23    1.48
 -10  -5  -2    1.71    0.83
  -5  15  -2   -0.19    1.15
  15 -10  -2    0.93    1.80
  10   5   2    3.07    1.37
  10   5   2   -0.41    1.38
 -15  10   2    1.14    1.17
   5 -15   2    0.50    1.75
 -15  10   2    1.45    1.46
  12 -10  -2  288.30    9.17
  -2  12  -2  294.40    8.45
   2 -12   2  285.61    8.75
 -12  10   2  286.44    8.71
 -12  10   2  279.17    8.40
  10   2   2  289.71    9.07
  10   2   2  276.06    8.09
   9 -10  -2   15.59    1.99
 -10   1  -2   18.18    1.56
   1   9  -2   13.59    1.57
  10  -1   2   12.72    1.73
  -9  10   2   14.48    1.79
  -1  -9   2   18.69    1.63
  10  -1   2   14.97    1.63
  -1  -9   2   14.32    1.66
  -9  10   2   14.86    1.73
 -10   4  -2  324.54    8.99
   4   6  -2  334.79    9.02
   6 -10  -2  336.04    9.70
   6 -10  -2  332.92    9.46
  -4  -6   2  329.39    8.54
  10  -4   2  354.56    8.97
  -6  10   2  329.85    9.35
  10  -4   2  317.97    9.63
  -4  -6   2  336.98    9.12
  -6  10   2  329.32    9.10
 -10   7  -2   10.58    1.34
   7   3  -2   12.71    1.54
   3 -10  -2   11.31    1.69
   3 -10  -2    7.46    1.42
   7   3  -2   14.26    1.47
  -7  -3   2    8.95    0.85
  10  -7   2   11.58    1.69
  -7  -3   2   11.24    0.66
  -3  10   2   11.68    1.35
  -3  10   2   12.90    1.59
  -7  -3   2   11.70    1.33
   0 -10  -2  381.67   10.67
   0 -10  -2  368.46   10.96
  10   0  -2  388.89   10.78
  10   0  -2  387.92   10.72
 -10  10  -2  387.65   10.65
   0  10   2  394.65   10.48
   0  10   2  389.75   10.23
  13  -3  -2    1.38    1.55
  -3 -10  -2    2.79    1.26
  -3 -10  -2    1.90    1.17
 -10  13  -2    2.29    2.28
  13  -3  -2    1.12    1.35
 -10  13  -2    0.24    1.22
  10 -13   2    0.58    1.45
 -13   3   2    0.60    1.29
   3  10   2    2.24    1.07
   3  10   2    1.62    1.27
  -6 -10  -2  161.66    5.69
  16  -6  -2  164.06    6.62
 -10  16  -2  155.04    6.27
  -6 -10  -2  175.10    7.69
 -16   6   2  164.00    6.30
  10 -16   2  164.24    6.87
   6  10   2  167.23    5.67
  -9 -10  -2   -1.20    1.77
  19  -9  -2    0.37    2.43
 -10  19  -2    2.30    1.81
  -9 -10  -2    2.93    1.93
 -19   9   2   -0.20    2.06
  10 -19   2    2.77    2.17
   9  10   2    2.62    1.98
  -9  20  -2    0.99    2.02
  20 -11  -2    3.52    2.80
 -11  -9  -2   -0.41    2.40
   9 -20   2   -0.15    2.36
  11   9   2    0.20    2.48
 -20  11   2   -0.56    2.26
  17 -11  -2   -1.82    1.77
  -6  17  -2    0.38    1.41
 -17  11   2    1.72    1.41
   6 -17   2   -1.54    1.66
  11   6   2    0.47    1.59
 -17  11   2    1.31    1.80
  -3  14  -2    5.72    1.61
  14 -11  -2    4.34    1.90
 -11  -3  -2    3.19    1.69
 -14  11   2    2.97    1.60
 -14  11   2    5.47    1.46
   3 -14   2    1.77    1.73
   3 -14   2    7.15    1.93
  11   3   2    4.80    1.61
  11   3   2    4.48    1.62
 -11   0  -2    0.24    0.93
   0  11  -2   -0.66    0.86
  11 -11  -2   -0.86    1.23
  11   0   2    0.09    1.05
  11   0   2    3.66    1.44
   0 -11   2   -1.92    1.13
 -11  11   2   -0.46    1.10
 -11  11   2   -0.26    1.04
   0 -11   2    1.26    1.17
   3   8  -2    0.26    0.89
 -11   3  -2    0.59    0.84
   8 -11  -2    0.71    1.39
   8 -11  -2   -0.31    1.02
  -3  -8   2   -1.01    0.88
  -3  -8   2    0.55    0.79
  11  -3   2   -0.48    0.86
  -8  11   2    0.19    0.88
  11  -3   2    1.30    1.13
  -8  11   2   -0.64    1.02
   5 -11  -2    2.27    1.24
   5 -11  -2    1.90    1.11
 -11   6  -2    0.99    0.84
   6   5  -2    2.02    0.85
   6   5  -2    0.87    0.92
  -5  11   2    1.19    1.04
  -6  -5   2    0.82    0.89
  -6  -5   2    2.51    0.60
  11  -6   2    0.89    1.04
  -5  11   2    1.81    0.93
   2 -11  -2    1.65    1.52
   9   2  -2    2.37    1.15
   2 -11  -2    1.97    1.52
 -11   9  -2    0.81    0.94
   9   2  -2    1.74    0.93
  -2  11   2    1.79    1.13
  11  -9   2    1.01    1.38
  -2  11   2    0.31    0.82
 -11  12  -2    0.32    1.07
  -1 -11  -2    2.45    1.41
  -1 -11  -2    2.54    1.37
  12  -1  -2    1.38    1.29
  12  -1  -2    4.28    1.47
 -12   1   2    1.61    1.29
  11 -12   2    1.44    1.35
   1  11   2    2.23    1.32
  15  -4  -2    8.88    1.93
  -4 -11  -2    9.10    1.72
 -11  15  -2   12.94    1.96
  15  -4  -2   13.82    2.40
  -4 -11  -2   15.08    2.35
  11 -15   2   10.92    2.25
 -15   4   2    7.19    1.80
   4  11   2    9.99    1.60
 -11  18  -2    3.39    1.65
  -7 -11  -2    0.99    1.73
  18  -7  -2    1.66    1.92
 -18   7   2   -0.72    1.84
   7  11   2   -0.41    1.63
  11 -18   2   -2.31    1.94
  21 -10  -2   -2.22    2.54
 -11  21  -2    3.57    2.39
 -10 -11  -2    6.02    2.55
 -21  10   2    2.54    2.18
  10  11   2    8.52    4.03
  11 -21   2    3.72    2.91
 -12 -10  -2  107.11    6.68
 -10  22  -2  105.72    5.86
  22 -12  -2  119.22    7.36
  10 -22   2  122.53    7.31
 -22  12   2  112.14    6.52
 -12  -7  -2    5.69    2.44
  19 -12  -2    1.32    2.38
  -7  19  -2    1.57    1.78
  12   7   2    4.96    2.30
 -19  12   2    4.55    2.13
  12   7   2   10.02    2.28
   7 -19   2    3.45    2.59
  16 -12  -2  158.69    7.12
  -4  16  -2  170.99    6.35
 -12  -4  -2  169.74    6.74
 -16  12   2  179.73    6.85
 -16  12   2  176.54    6.33
  12   4   2  173.80    6.14
  12   4   2  173.20    7.21
  13 -12  -2   -0.34    1.38
  -1  13  -2   -0.66    1.03
   1 -13   2    1.11    1.36
  12   1   2    0.22    1.34
   1 -13   2   -0.96    1.47
 -13  12   2   -0.53    1.28
  10 -12  -2  261.05    8.66
 -12   2  -2  260.62    7.72
   2  10  -2  263.34    7.78
  12  -2   2  258.97    7.95
 -10  12   2  273.15    8.28
  -2 -10   2  272.62    7.77
 -10  12   2  265.68    8.07
  12  -2   2  257.25    8.54
  -2 -10   2  254.01    8.01
   7 -12  -2    9.07    1.85
 -12   5  -2    8.97    1.40
   7 -12  -2    8.18    1.63
  12  -5   2    8.93    1.52
  -5  -7   2    6.61    1.24
  -5  -7   2    7.00    1.06
  -7  12   2    9.72    1.45
  -7  12   2    6.59    1.39
 -12   8  -2  290.66    8.60
   4 -12  -2  298.76    9.28
   4 -12  -2  320.78    9.22
   8   4  -2  288.08    8.67
  -4  12   2  304.40    8.88
  12  -8   2  300.61    9.44
  -4  12   2  296.22    8.46
  -8  -4   2  283.86    7.22
  -8  -4   2  295.64    8.58
  -8  -4   2  293.88    7.43
   1 -12  -2   10.12    1.73
 -12  11  -2   11.02    1.76
  11   1  -2    9.32    1.71
  11   1  -2    9.52    1.67
   1 -12  -2   12.20    2.01
  -1  12   2   10.70    1.40
  12 -11   2   10.63    2.04
  -1  12   2   12.70    1.79
 -12  14  -2  293.73    9.35
  14  -2  -2  306.31   10.84
  14  -2  -2  302.24    9.68
  -2 -12  -2  304.76    9.83
  -2 -12  -2  318.20    9.36
   2  12   2  312.51    8.86
 -14   2   2  301.20   10.25
  12 -14   2  309.89   10.26
 -12  17  -2    1.59    1.60
  17  -5  -2    2.59    2.11
  -5 -12  -2    1.27    1.95
  12 -17   2    1.08    2.21
 -17   5   2    2.05    1.54
   5  12   2   -0.67    1.49
 -12  20  -2  100.94    5.35
  20  -8  -2   90.51    6.09
  -8 -12  -2  102.80    5.84
  12 -20   2   93.83    6.33
 -20   8   2   94.32    5.09
   8  12   2  101.51    5.04
  23 -11  -2    1.76    3.19
 -11 -12  -2    2.60    3.30
 -12  23  -2    4.17    3.18
  12 -23   2    1.27    3.54
 -23  11   2   -2.94    2.96
  24 -13  -2   -4.49    3.50
 -13 -11  -2   -1.36    3.46
 -11  24  -2   -1.04    3.13
  11 -24   2   -0.42    3.91
 -24  13   2    1.98    4.31
  -8  21  -2    1.80    2.47
 -13  -8  -2   -0.32    2.41
  21 -13  -2   -3.37    3.05
 -21  13   2   -2.56    2.07
   8 -21   2    2.14    2.92
  18 -13  -2    2.45    2.44
  -5  18  -2    0.28    1.72
 -13  -5  -2    0.98    1.73
   5 -18   2    0.30    2.34
  13   5   2   -0.88    1.95
 -18  13   2   -2.09    1.68
 -18  13   2    0.80    1.81
  13   5   2    1.41    2.23
  -2  15  -2   -0.69    1.40
  15 -13  -2    4.10    1.98
 -13  -2  -2   -0.91    1.50
  13   2   2   -2.15    1.43
 -15  13   2    1.03    1.54
   2 -15   2    0.46    2.93
 -15  13   2    2.97    1.61
  13   2   2   -1.94    1.92
  12 -13  -2    2.17    1.59
 -13   1  -2    2.30    1.25
   1  12  -2    2.42    1.19
  -1 -12   2    5.64    1.55
  13  -1   2    3.32    1.52
  -1 -12   2    3.44    1.58
  13  -1   2    3.19    1.75
 -12  13   2    0.27    1.32
   9 -13  -2    0.47    1.44
 -13   4  -2   -0.15    1.00
   4   9  -2    0.44    1.04
  -4  -9   2    2.06    1.20
  -4  -9   2    0.58    0.99
  -9  13   2    0.03    1.04
  13  -4   2    0.37    1.34
  -9  13   2    1.31    1.27
   6 -13  -2   -0.56    1.62
   7   6  -2   -0.79    0.86
   6 -13  -2    0.70    1.32
 -13   7  -2    0.04    1.05
  -6  13   2    1.50    1.24
  -7  -6   2    0.13    0.66
  13  -7   2   -0.78    1.40
  -7  -6   2    1.20    1.05
  -6  13   2    0.99    1.07
 -13  10  -2    8.03    1.53
   3 -13  -2    9.07    1.96
   3 -13  -2    8.05    1.86
  10   3  -2    8.77    1.65
  10   3  -2    9.11    1.70
  13 -10   2    7.82    1.86
  -3  13   2    8.21    1.46
 -10  -3   2    9.25    1.54
  13   0  -2    0.78    1.59
 -13  13  -2   -0.66    1.16
   0 -13  -2   -1.80    1.65
   0 -13  -2   -0.47    1.45
  13   0  -2    0.86    1.46
   0  13   2   -2.55    1.10
   0  13   2    0.94    1.54
 -13   0   2   -0.92    1.37
  13 -13   2    2.34    1.70
  16  -3  -2   10.60    2.47
  16  -3  -2    7.90    2.28
  -3 -13  -2    8.76    2.15
 -13  16  -2    7.61    1.77
  13 -16   2    6.24    2.14
   3  13   2   10.30    1.83
 -16   3   2    8.03    2.01
  -6 -13  -2    6.50    2.42
 -13  19  -2    5.80    2.08
  19  -6  -2    3.86    2.49
   6  13   2    3.91    1.90
 -19   6   2    1.38    2.08
  13 -19   2    1.89    2.65
 -13  22  -2    0.38    2.38
  22  -9  -2   -1.93    3.22
  -9 -13  -2   -2.37    2.47
  13 -22   2    7.51    3.49
 -22   9   2    1.93    2.82
  25 -12  -2    7.62    4.57
 -13  25  -2    1.87    3.12
 -12 -13  -2   -3.24    3.73
 -25  12   2    3.79    3.74
  13 -25   2    7.12    4.58
  26 -14  -2   47.78    6.85
 -14 -12  -2   47.42    7.45
 -12  26  -2   43.16    5.45
 -26  14   2   41.47    5.55
  12 -26   2   44.23    6.12
  -9  23  -2    3.53    3.00
  23 -14  -2   -4.52    3.08
   9 -23   2    3.66    3.39
 -23  14   2    2.81    2.83
  20 -14  -2  115.58    6.74
  -6  20  -2  115.26    5.94
 -14  -6  -2  117.65    6.28
   6 -20   2  116.08    6.69
  14   6   2  119.22    5.71
  14   6   2  123.64    6.90
 -20  14   2  115.07    6.15
  17 -14  -2    3.56    2.41
  -3  17  -2    6.64    1.84
 -14  -3  -2    4.93    2.00
 -14  -3  -2    3.32    2.03
   3 -17   2    8.85    2.53
  14   3   2    4.99    2.20
  14   3   2    4.49    1.98
 -17  14   2   -0.14    1.92
 -17  14   2    2.86    1.95
 -14   0  -2  169.31    5.96
  14 -14  -2  164.50    6.87
   0  14  -2  154.14    5.84
  14   0   2  171.57    6.15
 -14  14   2  169.16    6.35
   0 -14   2  153.98    6.46
  14   0   2  169.53    7.93
 -14  14   2  156.79    6.21
  11 -14  -2    3.12    2.12
 -14   3  -2    3.91    1.34
   3  11  -2    2.05    1.34
  -3 -11   2    1.14    1.25
  14  -3   2   -0.92    1.54
 -11  14   2    1.28    1.49
 -11  14   2   -0.80    1.47
  -3 -11   2    3.56    1.49
 -14   6  -2  341.45    9.93
   8 -14  -2  364.49   11.12
   6   8  -2  351.21    9.93
  -6  -8   2  341.88   10.11
  -8  14   2  348.21   11.02
  14  -6   2  342.80   10.88
  -6  -8   2  341.57    9.23
  14  -6   2  350.09    9.83
  -8  14   2  355.22   10.60
 -14   9  -2    6.85    1.65
   5 -14  -2   11.22    2.26
   9   5  -2    7.94    1.75
   5 -14  -2    6.61    1.71
   9   5  -2    9.81    1.67
  -9  -5   2    9.35    1.55
  -5  14   2    9.98    2.02
  -9  -5   2    7.44    0.90
  14  -9   2    7.19    2.03
  -5  14   2    6.24    1.40
  -9  -5   2    7.72    0.88
  12   2  -2  188.55    6.77
   2 -14  -2  177.54    7.92
  12   2  -2  189.21    6.55
   2 -14  -2  181.16    8.06
 -14  12  -2  182.06    6.61
  14 -12   2  181.99    7.25
  -2  14   2  183.52    6.61
  -2  14   2  186.24    6.19
  15  -1  -2    5.75    2.14
  15  -1  -2    8.71    2.15
 -14  15  -2    4.94    1.61
  -1 -14  -2    4.59    1.92
 -15   1   2    8.47    2.10
  14 -15   2    4.89    1.96
  -4 -14  -2  100.53    5.74
  18  -4  -2   98.35    5.71
 -14  18  -2  100.87    5.17
  18  -4  -2   99.36    5.60
  14 -18   2  100.16    5.91
   4  14   2  104.87    4.77
 -18   4   2  102.19    5.34
  21  -7  -2    1.73    3.10
  -7 -14  -2    1.99    2.75
 -14  21  -2   -1.34    2.19
  14 -21   2    2.03    3.16
 -21   7   2    2.52    2.29
   7  14   2    2.93    2.39
  24 -10  -2   56.36    6.28
 -10 -14  -2   66.39    6.39
 -14  24  -2   63.22    5.74
  14 -24   2   86.78    7.38
 -24  10   2   49.10    5.87
  27 -13  -2    0.87    5.39
 -14  27  -2   -1.06    4.20
 -13 -14  -2   -0.21    4.53
  14 -27   2    1.33    5.43
 -27  13   2    2.72    4.54
 -13  28  -2    1.13    4.16
  28 -15  -2   -1.02    6.24
 -15 -13  -2   -1.87    5.56
  13 -28   2   -2.02    4.77
 -28  15   2    3.60    4.25
 -15 -10  -2   -1.50    3.93
 -10  25  -2   -7.66    3.45
  25 -15  -2    3.30    8.42
 -25  15   2   -2.48    3.60
  10 -25   2    4.21    4.36
 -15  -7  -2    8.75    3.07
  -7  22  -2   -0.17    2.63
  22 -15  -2    2.97    3.13
 -22  15   2    4.14    2.62
   7 -22   2    2.84    3.30
 -15  -4  -2    3.25    2.26
  -4  19  -2    4.94    2.00
  19 -15  -2    2.79    2.81
 -15  -4  -2    3.10    2.37
   4 -19   2    1.70    2.19
  15   4   2    0.71    2.56
  15   4   2    7.80    2.63
 -19  15   2    4.93    2.17
  -1  16  -2    6.24    1.95
 -15  -1  -2    5.86    1.90
  16 -15  -2    6.08    2.34
  15   1   2    7.04    2.24
   1 -16   2    6.67    2.22
  15   1   2   10.94    2.77
 -16  15   2    3.57    2.00
 -16  15   2    9.80    2.21
  13 -15  -2    9.81    2.20
 -15   2  -2    6.76    1.63
 -13  15   2    0.52    1.69
  15  -2   2    2.49    1.81
 -13  15   2    4.51    1.67
  -2 -13   2    0.73    1.60
  15  -2   2    3.77    2.03
  10 -15  -2    1.97    1.85
   5  10  -2    3.53    1.47
 -15   5  -2    0.23    1.35
 -10  15   2    0.80    1.20
 -10  15   2    3.55    1.87
  -5 -10   2    1.85    1.43
  15  -5   2    2.89    1.82
  -5 -10   2    3.42    1.29
   8   7  -2    0.05    1.27
 -15   8  -2    2.49    1.51
   7 -15  -2    2.10    1.62
   7 -15  -2    0.69    2.14
  -8  -7   2    1.87    1.37
  -8  -7   2    0.62    0.83
  15  -8   2    1.40    1.81
  -7  15   2   -0.31    1.54
  -7  15   2   -1.12    1.34
 -15  11  -2    5.59    1.60
  11   4  -2    6.63    1.84
  11   4  -2    6.16    1.68
   4 -15  -2    5.42    1.87
  -4  15   2    3.78    1.36
  15 -11   2    6.26    1.93
 -11  -4   2    6.61    1.69
  -4  15   2    6.37    2.03
 -15  14  -2   -0.34    1.56
   1 -15  -2    2.48    2.07
  14   1  -2    4.25    2.02
  15 -14   2    5.76    2.19
  -1  15   2    3.74    1.36
 -15  17  -2    3.45    1.87
  17  -2  -2    8.39    2.41
  -2 -15  -2    7.26    2.43
  17  -2  -2    6.28    2.42
  15 -17   2    6.23    2.33
 -17   2   2    3.94    2.09
   2  15   2    2.18    1.72
 -15  20  -2    0.96    2.15
  -5 -15  -2    1.43    2.63
  20  -5  -2    3.43    2.96
 -20   5   2   -0.12    2.36
   5  15   2    3.10    2.29
  15 -20   2   -3.02    2.83
  -8 -15  -2   13.94    3.93
 -15  23  -2    9.38    4.10
  23  -8  -2   17.07    4.06
 -23   8   2   18.81    3.64
  15 -23   2   14.28    3.92
 -11 -15  -2    4.88    4.58
 -15  26  -2    0.95    3.89
  26 -11  -2    7.78    5.09
 -26  11   2    2.62    4.20
  15 -26   2    2.24    4.92
 -15  29  -2    6.35    8.15
  29 -14  -2   15.99    6.83
  15 -29   2    6.41    6.42
 -29  14   2    6.59    5.60
 -16 -11  -2    5.14    5.01
  27 -16  -2    9.26    5.64
 -11  27  -2    0.65    4.38
 -27  16   2    7.25    4.67
  11 -27   2    8.17    5.24
 -16  -8  -2   58.45    6.26
  24 -16  -2   53.98    6.38
  -8  24  -2   55.71    5.17
 -24  16   2   46.59    5.70
   8 -24   2   55.30    6.75
 -16  -5  -2    4.42    2.69
  -5  21  -2    7.05    2.84
  21 -16  -2   11.02    3.80
   5 -21   2    8.33    3.29
 -21  16   2    6.77    2.84
  16   5   2   11.30    3.45
  -2  18  -2   85.05    4.76
 -16  -2  -2   91.96    4.71
 -16  -2  -2   99.14    5.57
  18 -16  -2   94.65    5.91
 -18  16   2   95.11    5.18
  16   2   2   97.72    6.01
  16   2   2   78.68    5.26
 -18  16   2  101.95    5.34
   2 -18   2   95.70    5.75
   1  15  -2    1.12    1.68
  15 -16  -2    1.86    2.31
 -16   1  -2    2.07    1.73
  16  -1   2    2.95    2.28
 -15  16   2    5.50    2.29
  16  -1   2    4.20    2.05
 -15  16   2    2.70    1.67
  -1 -15   2    3.95    2.01
 -16   4  -2  253.26   10.55
  12 -16  -2  240.09    9.08
  -4 -12   2  215.64    8.59
 -12  16   2  248.37    8.66
 -12  16   2  238.75    8.10
  -4 -12   2  232.92    8.14
 -16   7  -2    0.66    1.48
   9 -16  -2    1.48    1.92
  -9  16   2    1.58    1.58
  -9  16   2    0.55    1.79
  -7  -9   2    1.12    1.48
  16  -7   2    1.46    2.06
  -7  -9   2    0.69    1.10
 -16  10  -2  156.64    5.96
  10   6  -2  165.43    6.32
  10   6  -2  157.33    8.33
   6 -16  -2  164.91    6.86
  -6  16   2  155.31    5.95
  16 -10   2  163.78    6.92
 -10  -6   2  161.74    6.05
  -6  16   2  163.55    7.64
 -16  13  -2   -1.24    1.56
   3 -16  -2    0.05    1.92
  13   3  -2    1.89    1.90
  -3  16   2   -0.26    1.48
  16 -13   2    0.45    2.08
 -13  -3   2   -2.17    1.61
   0 -16  -2  132.97    6.65
 -16  16  -2  134.34    5.91
  16   0  -2  133.72    6.33
  16 -16   2  131.56    6.76
   0  16   2  135.73    5.55
 -16   0   2  138.51    6.11
  19  -3  -2    3.85    2.92
  19  -3  -2    2.06    2.71
 -16  19  -2   -1.70    1.97
  -3 -16  -2   -1.25    2.58
  16 -19   2    2.89    3.16
   3  16   2    3.90    2.10
 -19   3   2   -1.75    2.05
 -16  22  -2   88.11    5.80
  22  -6  -2   77.18    6.42
  -6 -16  -2   69.56    5.95
 -22   6   2   71.62    5.55
  16 -22   2   89.39    6.67
  25  -9  -2   -2.62    4.48
  -9 -16  -2   -2.24    4.03
 -16  25  -2   -1.12    3.14
  16 -25   2   -2.28    4.37
 -25   9   2    2.43    3.84
 -16  28  -2   29.89    5.97
  28 -12  -2   23.52    6.67
 -12 -16  -2   34.57    6.31
 -28  12   2   32.45    5.75
  16 -28   2   21.70    6.50
  29 -17  -2    1.05    6.72
 -12  29  -2   10.78    8.39
  12 -29   2    8.79    6.45
 -29  17   2    0.78    5.87
  -9  26  -2    5.24    3.61
  26 -17  -2   -1.21    4.54
 -17  -9  -2    4.11    4.65
   9 -26   2    2.91    4.68
 -26  17   2    7.29    4.21
 -17  -6  -2    4.15    3.50
  23 -17  -2   -0.03    3.60
  -6  23  -2    3.13    4.17
   6 -23   2    4.23    3.86
 -23  17   2   -3.90    3.04
  17   6   2    4.94    3.92
 -17  -3  -2   -1.85    3.04
  -3  20  -2    0.68    2.47
  20 -17  -2    1.19    3.07
 -17  -3  -2    0.27    2.63
   3 -20   2    0.60    2.58
  17   3   2    3.22    3.16
 -20  17   2    1.41    2.44
  17 -17  -2    8.66    2.72
 -17   0  -2    6.33    2.33
   0  17  -2    9.78    2.26
   0 -17   2    5.95    2.53
 -17  17   2    3.84    1.99
  17   0   2    6.62    2.67
 -17  17   2    3.04    2.19
  17   0   2    9.44    2.97
  14 -17  -2    4.06    2.27
   3  14  -2   -1.38    1.43
 -17   3  -2   -2.97    1.52
 -14  17   2    0.25    1.59
  -3 -14   2    0.99    1.98
  17  -3   2   -3.01    2.08
 -14  17   2    0.53    2.23
 -17   6  -2    3.60    1.70
  11 -17  -2   -0.22    1.72
   6  11  -2    0.28    1.58
  -6 -11   2    0.34    1.71
 -11  17   2    0.50    1.99
  -6 -11   2    0.96    1.44
 -11  17   2    2.10    1.55
  17  -6   2   -1.08    2.08
 -17   9  -2    1.37    1.73
   9   8  -2    2.56    1.90
   8 -17  -2    0.12    1.81
  -8  17   2    1.71    2.32
  -8  17   2    0.16    1.55
  -9  -8   2    0.34    1.01
  -9  -8   2    1.08    1.77
  17  -9   2    0.99    1.86
  12   5  -2   -3.60    1.91
  12   5  -2    1.58    1.62
 -17  12  -2   -0.16    1.50
   5 -17  -2    0.05    1.77
 -12  -5   2    0.19    1.61
  17 -12   2   -4.47    2.12
  -5  17   2    0.02    1.38
  15   2  -2   -1.93    1.76
   2 -17  -2    4.99    2.12
  15   2  -2   -0.18    2.59
 -17  15  -2   -1.98    1.84
  -2  17   2    0.30    1.76
 -15  -2   2    1.20    2.01
  17 -15   2   -1.43    2.12
 -15  -2   2   -1.33    1.89
  18  -1  -2   -4.80    2.35
  18  -1  -2   -6.51    2.69
  -1 -17  -2    2.75    2.67
 -17  18  -2    1.64    2.05
   1  17   2   -0.35    1.96
 -18   1   2    3.31    2.34
  17 -18   2    2.23    3.02
  21  -4  -2    3.94    3.34
  -4 -17  -2   12.31    3.18
 -17  21  -2    5.53    2.68
 -21   4   2    4.37    2.47
   4  17   2   10.16    2.84
  17 -21   2    5.72    3.30
  24  -7  -2   -8.90    4.11
 -17  24  -2    5.54    3.13
  -7 -17  -2   -0.36    3.69
  17 -24   2    2.99    3.95
 -10 -17  -2   11.61    5.00
  27 -10  -2    5.58    5.69
 -17  27  -2    6.99    4.12
  17 -27   2   14.43    5.52
 -27  10   2   10.03    5.16
 -10  28  -2   31.07    5.84
  28 -18  -2   45.63    7.58
  10 -28   2   37.18    6.68
 -28  18   2   30.71    5.48
  25 -18  -2    6.73    5.07
  -7  25  -2    5.19    3.85
   7 -25   2    4.21    4.82
 -25  18   2    7.09    4.04
  22 -18  -2   76.93    7.27
 -18  -4  -2   60.01    5.87
  -4  22  -2   75.16    5.17
 -22  18   2   70.85    6.80
  18   4   2   73.85    6.66
   4 -22   2   67.50    6.52
 -18  -1  -2    1.25    2.35
  -1  19  -2    0.53    2.46
  19 -18  -2   -2.59    2.68
 -18  -1  -2   -0.90    2.45
  18   1   2    2.86    3.07
   1 -19   2   -1.09    2.67
  18   1   2   -1.45    2.93
 -19  18   2    0.29    2.25
 -18   2  -2  116.13    5.25
  16 -18  -2  116.56    6.60
   2  16  -2  113.77    5.27
 -16  18   2  110.69    6.35
  -2 -16   2  112.65    6.04
  18  -2   2  100.89    6.04
 -16  18   2  113.23    5.64
  13 -18  -2   -3.13    1.89
 -18   5  -2   -0.95    1.66
   5  13  -2   -2.53    1.52
  18  -5   2    0.75    2.25
  -5 -13   2   -1.48    1.87
 -13  18   2    4.51    2.67
 -13  18   2   -1.59    1.66
 -18   8  -2  118.83    5.21
   8  10  -2  122.65    5.23
  10 -18  -2  130.27    6.63
  -8 -10   2  126.67    4.60
 -10  18   2  129.15    5.71
 -10  18   2  120.60    6.40
  -8 -10   2  132.62    5.79
  18  -8   2  120.42    6.48
   7 -18  -2    3.39    2.28
  11   7  -2   -0.63    1.79
 -18  11  -2    2.20    1.55
  -7  18   2    2.22    1.59
 -11  -7   2   -0.84    2.18
  18 -11   2    0.34    2.00
 -18  14  -2  143.01    6.17
   4 -18  -2  136.89    6.92
  14   4  -2  150.69    6.40
  18 -14   2  153.53    7.44
  -4  18   2  144.38    5.89
  17   1  -2    5.24    2.72
 -18  17  -2   -2.42    1.84
  17   1  -2    1.73    2.60
   1 -18  -2    3.85    2.40
  18 -17   2   -0.03    2.47
  -1  18   2   -4.95    1.89
 -17  -1   2   -0.84    2.24
  20  -2  -2   89.99    6.45
  20  -2  -2   83.84    6.29
 -18  20  -2   84.49    5.48
  -2 -18  -2   89.86    6.07
  18 -20   2   86.05    6.52
   2  18   2   86.64    5.20
 -20   2   2   90.86    5.69
  23  -5  -2    1.57    4.01
 -18  23  -2    2.26    3.05
  -5 -18  -2   -5.21    3.87
 -23   5   2    2.94    3.45
  26  -8  -2   38.45    6.22
  -8 -18  -2   31.56    5.90
 -18  26  -2   33.11    5.22
 -26   8   2   37.00    5.46
  18 -26   2   45.05    6.93
  18 -29   2   -7.42    6.64
 -29  11   2   10.67    5.65
  -8  27  -2   12.97    4.83
 -19  -8  -2   -0.18    5.34
  27 -19  -2    2.07    6.14
   8 -27   2   -3.49    5.14
 -27  19   2    8.14    4.68
  24 -19  -2    4.14    4.98
 -19  -5  -2    5.03    4.06
  -5  24  -2    2.03    3.45
  19   5   2   -6.65    4.39
 -24  19   2    8.12    3.97
   5 -24   2   -7.41    5.45
  -2  21  -2    8.76    3.07
 -19  -2  -2    7.15    2.97
  21 -19  -2    9.73    4.18
   2 -21   2    8.28    3.72
  19   2   2   10.70    3.95
   1  18  -2   -1.94    2.33
 -19   1  -2    3.52    2.35
  18 -19  -2   -3.59    2.96
 -18  19   2    2.79    2.44
 -18  19   2    7.00    2.91
  19  -1   2    0.40    2.64
  -1 -18   2    2.78    2.95
 -19   4  -2    4.89    2.18
  15 -19  -2    6.04    2.74
   4  15  -2    7.40    2.32
 -15  19   2    4.52    2.12
 -15  19   2    4.19    3.03
  -4 -15   2    0.57    2.38
  19  -4   2    6.85    2.66
 -19   7  -2    1.71    1.90
  12 -19  -2    1.86    2.35
   7  12  -2   -1.66    1.88
 -12  19   2   -0.89    1.98
  19  -7   2    3.10    2.34
 -12  19   2    3.51    2.53
  -7 -12   2    4.47    2.17
 -19  10  -2   15.47    2.50
  10   9  -2   13.21    2.33
   9 -19  -2   10.86    2.65
  19 -10   2   15.18    2.98
 -10  -9   2   16.09    2.03
 -10  -9   2   13.61    3.10
  -9  19   2   13.35    2.44
 -10  -9   2   15.19    1.83
 -19  13  -2    3.74    1.93
  13   6  -2   -1.38    2.05
   6 -19  -2    1.62    2.27
  13   6  -2    1.20    2.44
  19 -13   2   -0.37    2.56
 -13  -6   2    4.33    2.10
  -6  19   2   -0.63    1.91
  16   3  -2    2.10    2.79
 -19  16  -2    6.41    2.60
   3 -19  -2    6.72    2.83
  16   3  -2    9.27    2.93
  -3  19   2    9.08    2.51
  19 -16   2    6.89    3.13
 -16  -3   2    7.13    2.68
 -16  -3   2    5.48    2.56
  19   0  -2    0.55    3.17
  19   0  -2    4.34    3.14
 -19  19  -2    3.94    2.50
   0 -19  -2   -3.09    2.92
 -19   0   2    0.56    2.66
   0  19   2   -3.45    2.38
  19 -19   2   -2.04    3.40
  -3 -19  -2    1.13    3.42
  22  -3  -2    0.49    3.79
 -19  22  -2   -0.16    2.83
 -22   3   2    9.76    3.31
  19 -22   2    2.95    3.62
 -19  25  -2    8.51    3.89
  -6 -19  -2    3.09    4.53
  19 -25   2    6.12    4.66
 -25   6   2    2.65    4.22
 -19  28  -2    6.72    5.09
  -9 -19  -2   -5.76    5.80
 -28   9   2   -0.03    5.29
  19 -28   2   -4.64    6.08
  29 -20  -2    6.01    7.35
   9 -29   2   -5.74    6.51
  26 -20  -2   30.90    6.79
 -20  -6  -2   35.62    5.87
  -6  26  -2   31.92    5.05
   6 -26   2   34.59    6.18
 -26  20   2   34.00    5.60
  23 -20  -2   -2.05    4.66
  -3  23  -2    0.60    2.97
 -20  -3  -2   -2.42    3.75
   3 -23   2    2.26    4.03
 -23  20   2    5.64    3.22
  20   3   2    6.99    4.34
  20 -20  -2   90.86    7.55
   0  20  -2   84.50    5.83
   0 -20   2   86.20    6.35
  20   0   2   79.89    6.76
 -20   3  -2   -0.01    2.41
   3  17  -2   -1.05    2.32
  17 -20  -2   -1.84    3.39
  -3 -17   2   -0.38    2.68
 -17  20   2   -0.25    2.20
  20  -3   2   -0.46    3.15
 -17  20   2    2.72    3.04
  14 -20  -2   90.72    6.62
 -20   6  -2  110.44    5.36
   6  14  -2  109.97    5.40
  -6 -14   2  107.03    5.80
  20  -6   2  100.43    6.61
 -14  20   2  106.14    6.93
 -14  20   2  106.64    5.61
 -20   9  -2    8.01    2.39
   9  11  -2    7.76    2.41
  11 -20  -2   11.21    3.35
  20  -9   2    9.80    3.07
  -9 -11   2    9.55    2.56
 -11  20   2   10.13    2.39
 -20  12  -2  109.45    5.61
   8 -20  -2  109.05    6.71
  12   8  -2   97.89    5.34
  -8  20   2  101.87    5.37
  20 -12   2  106.14    6.60
 -12  -8   2  106.37    5.61
   5 -20  -2    6.25    2.79
  15   5  -2   -4.64    2.60
 -20  15  -2    2.87    2.16
  15   5  -2    2.82    2.60
 -15  -5   2   -2.70    2.30
  -5  20   2    5.64    2.45
  20 -15   2    1.03    3.05
   2 -20  -2   96.15    6.57
 -20  18  -2  100.28    5.72
  18   2  -2   89.07    6.47
  18   2  -2   98.65    6.80
  -2  20   2  100.46    5.47
  20 -18   2  104.51    6.86
 -18  -2   2   94.96    5.86
 -18  -2   2  103.76    6.14
  21  -1  -2    3.17    4.18
  21  -1  -2    9.26    4.02
  -1 -20  -2    0.29    3.80
 -20  21  -2    4.46    2.99
   1  20   2    5.04    3.11
  20 -21   2    8.69    3.93
 -21   1   2    1.04    3.27
  -4 -20  -2   60.88    7.06
 -20  24  -2   61.61    6.37
  24  -4  -2   52.25    6.40
  20 -24   2   55.19    7.21
 -24   4   2   56.08    6.30
 -20  27  -2   -6.88    4.04
  -7 -20  -2    0.24    5.58
  20 -27   2    1.83    5.95
 -27   7   2   -5.50    5.02
  28 -21  -2  -11.14    6.73
  -7  28  -2    1.51    5.20
   7 -28   2   -4.31    5.80
 -21  -4  -2    4.79    4.85
  25 -21  -2    3.04    5.69
  -4  25  -2   -2.26    3.86
  21   4   2   -5.37    5.33
   4 -25   2    0.01    4.98
 -25  21   2   -2.64    3.78
 -21  -1  -2    4.96    3.87
  22 -21  -2    1.90    4.52
  -1  22  -2   -5.13    3.04
 -22  21   2   -0.88    3.12
   1 -22   2   10.18    4.35
  21   1   2    6.18    4.43
 -21   2  -2    8.37    3.59
   2  19  -2    4.56    2.96
  19 -21  -2    6.90    4.15
  -2 -19   2    0.60    3.45
  21  -2   2    5.37    3.78
  16 -21  -2   -2.48    2.94
 -21   5  -2    2.82    2.53
   5  16  -2   -1.13    2.38
 -16  21   2   -7.69    3.49
  -5 -16   2    8.97    3.17
  21  -5   2    3.48    2.83
 -16  21   2    2.16    2.51
   8  13  -2    6.67    2.69
 -21   8  -2    4.59    2.41
  13 -21  -2    1.95    3.09
  -8 -13   2   12.00    2.91
  21  -8   2   11.36    3.36
 -13  21   2    6.05    2.31
  11  10  -2    4.55    2.56
 -21  11  -2    4.31    2.50
  10 -21  -2    8.75    3.40
  21 -11   2    0.91    3.37
 -11 -10   2    4.81    2.54
 -11 -10   2    6.76    1.58
 -10  21   2    2.88    2.24
 -11 -10   2    5.02    1.42
   7 -21  -2    7.69    2.83
 -21  14  -2    4.77    2.30
  14   7  -2    8.10    2.92
  21 -14   2   -1.35    3.25
  -7  21   2   11.02    2.80
 -14  -7   2    5.46    2.70
   4 -21  -2    0.03    3.21
  17   4  -2    2.51    3.13
 -21  17  -2    1.54    2.85
  17   4  -2    3.18    3.31
  -4  21   2    2.32    2.54
 -17  -4   2    1.52    3.01
 -17  -4   2    2.04    2.64
  21 -17   2   -2.44    3.40
   1 -21  -2    0.78    3.22
  20   1  -2    8.47    3.88
 -21  20  -2    4.24    2.96
  20   1  -2    6.01    4.28
  21 -20   2    3.98    3.80
  -1  21   2    6.16    2.95
 -20  -1   2    7.74    3.37
  23  -2  -2   19.22    5.12
 -21  23  -2   18.54    4.27
  -2 -21  -2   12.20    4.76
  21 -23   2   10.09    4.79
 -21  26  -2   -8.70    4.44
  -5 -21  -2    3.10    5.50
  21 -26   2    5.24    5.75
  -5  27  -2   13.10    5.23
  27 -22  -2    5.76    6.64
 -27  22   2   -4.08    4.25
   5 -27   2   12.07    6.31
  24 -22  -2   31.15    6.43
  -2  24  -2   46.28    5.59
 -22  -2  -2   43.09    5.75
  22   2   2   37.06    6.27
 -24  22   2   43.53    5.91
   2 -24   2   42.98    6.26
  21 -22  -2    5.53    4.54
 -21  22   2    2.84    3.18
  22  -1   2   -5.76    3.97
  -1 -21   2    9.34    4.13
   4  18  -2   90.25    5.98
  18 -22  -2   92.29    7.14
 -22   4  -2   90.27    5.88
  -4 -18   2   86.53    6.84
  22  -4   2   89.14    6.64
 -18  22   2   90.10    6.46
 -22   7  -2    1.92    2.61
  15 -22  -2    8.34    3.39
   7  15  -2   -0.40    2.66
 -15  22   2    3.36    2.65
  -7 -15   2    3.61    2.97
  22  -7   2    2.86    3.52
  10  12  -2  101.77    5.76
 -22  10  -2   97.23    5.60
  12 -22  -2   99.58    6.63
 -12  22   2   99.94    6.00
 -10 -12   2   94.16    5.95
  22 -10   2   96.53    7.22
 -10 -12   2  102.53    4.97
 -22  13  -2    1.21    2.33
   9 -22  -2    3.12    3.07
  13   9  -2    7.35    2.96
  22 -13   2    6.02    3.18
 -13  -9   2    3.17    2.85
  -9  22   2    4.29    2.46
   6 -22  -2   85.36    6.76
 -22  16  -2   88.58    5.45
  16   6  -2   74.80    5.98
 -16  -6   2   80.42    6.06
  22 -16   2   84.02    6.63
  -6  22   2   76.57    5.41
   3 -22  -2   -0.29    3.43
  19   3  -2   12.22    4.00
 -22  19  -2    0.19    2.81
  19   3  -2    3.50    4.04
 -19  -3   2    5.52    3.44
 -19  -3   2    1.88    3.22
  -3  22   2   -0.42    2.96
  22 -19   2    4.11    3.88
 -22  22  -2   46.73    5.44
   0 -22  -2   62.53    7.01
  22   0  -2   50.16    7.02
  22 -22   2   48.14    6.77
 -22   0   2   45.87    5.49
 -22   0   2   44.59    5.23
  -3 -22  -2   -1.42    5.10
 -22  25  -2    3.26    3.90
  22 -25   2    9.52    6.01
  -6 -22  -2   30.10    7.20
  22 -28   2   25.76    7.06
  -3  26  -2   -0.17    4.82
 -23  -3  -2    4.16    5.88
  26 -23  -2    2.24    6.36
   3 -26   2   -7.91    6.02
 -26  23   2    5.21    5.01
 -23   0  -2   14.14    4.93
   0  23  -2    9.14    4.25
  23 -23  -2    6.68    5.31
 -23  23   2    4.12    4.27
  23   0   2    1.23    5.28
   0 -23   2   13.21    5.11
  20 -23  -2  -11.97    4.37
   3  20  -2    6.44    4.37
  23  -3   2   -3.96    4.23
 -20  23   2   -6.01    3.59
  -3 -20   2   -1.32    3.98
 -23   6  -2    6.91    3.21
  17 -23  -2    5.67    3.76
   6  17  -2   14.14    3.48
  23  -6   2   -3.33    3.98
  -6 -17   2    5.33    3.74
 -17  23   2    6.31    3.16
 -23   9  -2   -1.31    2.77
  14 -23  -2    4.48    3.35
   9  14  -2   -5.74    2.93
 -14  23   2    5.88    2.79
  -9 -14   2   -0.58    3.04
  23  -9   2   -2.13    3.74
  11 -23  -2   -1.08    3.54
  12  11  -2    2.24    3.15
 -23  12  -2    0.76    2.50
 -11  23   2    6.75    2.62
  23 -12   2    2.79    3.81
 -12 -11   2   -2.28    3.00
   8 -23  -2   -3.22    3.69
 -23  15  -2   -1.67    2.62
  15   8  -2    5.75    3.57
 -15  -8   2    5.56    3.32
  -8  23   2    2.21    2.94
  23 -15   2    0.08    3.98
   5 -23  -2    3.61    3.54
  18   5  -2   -2.74    3.80
 -23  18  -2   -0.74    2.93
  18   5  -2    0.06    4.13
 -18  -5   2   -0.03    3.65
  -5  23   2    2.08    2.98
 -18  -5   2    2.89    3.36
  23 -18   2    2.94    4.98
 -23  21  -2   11.07    4.08
   2 -23  -2    2.52    4.70
  -2  23   2    2.96    6.03
  23 -21   2   11.62    5.26
 -23  24  -2    1.95    4.46
  -1 -23  -2   -0.52    4.79
  23 -24   2   -2.26    5.62
  -4 -23  -2    8.27    6.55
  23 -27   2    3.19    6.63
 -24  -1  -2    7.25    5.28
  -1  25  -2   -4.36    4.98
  25 -24  -2    9.36    6.51
   1 -25   2   -0.41    6.07
 -25  24   2   13.91    4.78
  24   1   2    6.48    6.30
  22 -24  -2   35.42    6.18
 -24   2  -2   34.82    5.82
   2  22  -2   32.03    5.56
  24  -2   2   22.73    5.67
 -22  24   2   24.64    5.18
  -2 -22   2   37.27    5.82
  19 -24  -2   -1.64    4.63
 -19  24   2   -6.68    3.66
  -5 -19   2   -2.04    4.26
 -24   8  -2   42.27    5.24
   8  16  -2   49.35    5.86
  16 -24  -2   51.84    6.47
 -16  24   2   46.00    5.48
  -8 -16   2   49.44    5.36
  24  -8   2   46.58    6.16
  13 -24  -2   -4.30    4.12
  11  13  -2   -4.51    3.54
 -24  11  -2    1.69    2.77
  24 -11   2    2.54    4.13
 -13  24   2    1.84    3.25
 -11 -13   2   -5.03    3.31
 -24  14  -2   58.62    6.45
  10 -24  -2   60.45    6.24
  24 -14   2   56.77    6.57
 -14 -10   2   51.79    5.52
   7 -24  -2   -7.72    4.72
 -24  17  -2   -1.63    3.29
  -7  24   2    0.81    3.91
 -17  -7   2    2.97    4.52
  24 -17   2    8.08    4.61
 -24  20  -2   29.90    4.94
   4 -24  -2   40.66    6.03
  24 -20   2   45.85    6.45
  -4  24   2   39.12    4.90
 -24  23  -2    1.60    4.50
   1 -24  -2    2.12    5.48
  24 -23   2   -0.64    5.51
  -2 -24  -2   22.60    6.79
  24 -26   2   23.49    7.34
  24 -25  -2    0.38    6.40
 -25   1  -2   -3.20    5.31
  -1 -24   2    3.14    6.03
  25  -1   2    3.35    6.27
 -24  25   2   -1.19    4.28
  21 -25  -2    4.35    5.38
  25  -4   2    5.56    5.34
  -4 -21   2   10.74    4.99
 -21  25   2   11.77    4.42
  18 -25  -2    0.80    4.71
  -7 -18   2   -2.21    4.52
  25  -7   2    5.64    4.34
 -18  25   2    5.10    3.43
  15 -25  -2    6.57    4.00
 -10 -15   2    2.89    4.07
 -15  25   2    3.86    3.30
  25 -10   2    2.58    4.96
  12 -25  -2    7.10    4.62
 -25  13  -2    0.49    3.32
 -13 -12   2    1.46    5.81
  25 -13   2   -1.78    4.27
 -12  25   2    3.94    3.08
   9 -25  -2    4.93    4.60
 -25  16  -2   12.49    3.84
  25 -16   2    7.78    5.03
  -9  25   2    2.41    3.71
 -25  19  -2    8.93    4.13
   6 -25  -2    5.07    4.88
  25 -19   2    3.56    4.38
  -6  25   2    5.86    3.99
 -25  22  -2    8.43    4.50
   3 -25  -2    1.02    5.43
  25 -22   2    5.79    5.73
   0 -25  -2   -4.27    5.83
 -25  25  -2    6.84    6.75
  25 -25   2   -0.05    6.06
 -26   3  -2    6.59    5.84
  23 -26  -2    0.06    6.31
  26  -3   2   -5.71    5.93
 -23  26   2    4.90    4.99
  20 -26  -2   32.12    6.25
  26  -6   2   33.73    6.45
 -20  26   2   32.37    5.32
  17 -26  -2    3.94    5.21
 -26   9  -2  -11.32    5.46
 -17  26   2   -2.12    4.00
  26  -9   2   -4.99    4.87
 -26  12  -2   49.73    5.56
  14 -26  -2   41.93    6.29
 -14  26   2   51.28    5.45
  26 -12   2   48.74    6.90
  11 -26  -2    8.41    5.06
 -26  15  -2    2.19    3.48
 -11  26   2   -2.34    3.62
  26 -15   2    3.83    5.25
 -26  18  -2   48.49    5.75
   8 -26  -2   30.52    5.99
  26 -18   2   47.84    7.10
  -8  26   2   49.26    6.11
 -26  21  -2   -5.48    4.30
   5 -26  -2   -1.67    5.59
  26 -21   2    6.92    5.29
  -5  26   2   -1.19    4.35
   2 -26  -2   34.11    6.67
 -26  24  -2   21.97    6.01
  26 -24   2   28.70    6.71
  22 -27  -2    0.87    6.56
 -22  27   2   17.63    5.40
  27  -5   2    1.52    6.41
  19 -27  -2    7.01    5.63
 -19  27   2   14.16    5.01
  27  -8   2   -6.82    5.78
  16 -27  -2   -4.76    5.27
 -27  11  -2    0.75    4.27
  27 -11   2    5.39    5.50
 -16  27   2    0.78    3.68
 -27  14  -2    5.56    4.63
  13 -27  -2   19.69    5.72
  27 -14   2    0.05    5.41
 -13  27   2    8.42    3.91
 -27  17  -2    4.20    4.28
  10 -27  -2    4.79    5.62
  27 -17   2   11.10    5.89
 -10  27   2    5.60    4.30
   7 -27  -2   -1.88    5.54
 -27  20  -2    0.14    4.76
  27 -20   2    3.81    6.06
  -7  27   2    1.73    4.61
   4 -27  -2    8.29    6.48
  27 -23   2    7.86    6.83
  21 -28  -2   -5.05    5.75
  28  -7   2   -0.34    6.52
  18 -28  -2   27.80    6.91
 -18  28   2   36.17    5.52
  28 -10   2   43.86    7.17
  15 -28  -2    6.66    5.96
 -28  13  -2    2.34    4.44
 -15  28   2   -0.50    4.64
  28 -13   2    2.60    5.84
 -28  16  -2   40.06    5.88
  12 -28  -2   35.37    6.98
 -12  28   2   30.67    5.61
  28 -16   2   28.67    6.97
 -28  19  -2    1.49    4.89
   9 -28  -2  -13.21    5.74
  28 -19   2   -4.08    5.24
  -9  28   2   -8.30    4.80
   6 -28  -2    8.61    6.87
  28 -22   2   34.04    7.24
  20 -29  -2    5.24    6.95
  29  -9   2    3.90    7.06
  17 -29  -2   10.04    6.80
  29 -12   2    4.88    6.63
  14 -29  -2    1.26    5.70
 -29  15  -2  -11.17    4.80
 -14  29   2   -2.53    5.13
  29 -15   2    5.24    6.74
 -29  18  -2    9.01    5.64
  11 -29  -2    0.61    5.75
  29 -18   2   11.81    7.11
 -11  29   2    3.07    5.23
   0   0  -3    0.65    0.32
   0   0  -3   -0.09    0.14
   0   0   3    0.11    0.17
   0   0   3   -0.01    0.23
   1   1  -3    1.92    0.35
  -2   1  -3    1.76    0.47
   1  -2  -3    1.74    0.45
   1  -2  -3    2.37    0.42
   1   1  -3    1.53    0.44
  -1  -1   3    1.44    0.44
   2  -1   3    2.50    0.55
  -1   2   3    1.42    0.29
  -2   4  -3    7.98    0.76
   4  -2  -3    9.48    0.81
   4  -2  -3    9.18    0.75
  -2  -2  -3    9.62    0.81
  -2  -2  -3    9.16    0.88
   4  -2  -3    9.04    0.85
   2  -4   3    9.46    0.81
  -4   2   3    8.61    0.70
   2   2   3    9.54    0.96
  -4   2   3    8.43    0.81
   2   2   3    9.13    0.75
   3  -3  -3    1.58    0.46
   3  -3  -3    1.28    0.50
  -3   0  -3    1.81    0.26
  -3   0  -3    1.07    0.44
   3  -3  -3    1.92    0.50
   0   3  -3    1.72    0.42
   3   0   3    1.48    0.45
   0  -3   3    1.74    0.36
  -3   3   3    1.60    0.43
   3   0   3    1.86    0.55
  -3   3   3    1.64    0.43
   3   0  -3   17.17    0.95
   0  -3  -3   17.30    1.02
   0  -3  -3   18.85    1.04
   3   0  -3   16.38    0.96
  -3   3  -3   19.46    0.94
   3  -3   3   17.47    1.03
  -3   0   3   17.50    0.91
   0   3   3   16.52    0.98
  -3  -3  -3    1.27    0.61
   6  -3  -3    2.53    0.61
   6  -3  -3    2.10    0.60
   6  -3  -3    2.52    0.77
  -3   6  -3    1.85    0.57
  -3  -3  -3    1.93    0.56
  -6   3   3    1.69    0.49
   3   3   3    1.03    0.69
   3  -6   3    1.83    0.66
   3  -6   3    2.64    0.64
   3   3   3    1.85    0.38
   3   3   3    1.83    0.53
  -6   3   3    2.19    0.64
  -4  -1  -3    7.13    0.87
   5  -4  -3    7.17    0.87
  -1   5  -3    6.02    0.73
   5  -4  -3    8.09    0.95
   5  -4  -3    9.25    1.02
   1  -5   3    6.30    0.82
  -5   4   3    6.87    0.84
   4   1   3    6.30    0.92
   4   1   3    7.37    0.73
  -5   4   3    6.74    0.82
   1  -5   3    6.84    0.82
   2  -4  -3   21.56    1.25
  -4   2  -3   22.09    0.95
   2   2  -3   21.53    1.10
   2  -4  -3   21.65    1.28
  -2  -2   3   21.16    1.15
   4  -2   3   22.32    1.28
   4  -2   3   22.96    1.30
  -2   4   3   22.21    1.05
  -2  -2   3   21.19    0.87
   5  -1  -3    5.40    0.73
   5  -1  -3    5.91    0.66
  -4   5  -3    5.32    0.78
   5  -1  -3    6.19    0.82
  -1  -4  -3    6.60    0.84
  -1  -4  -3    5.36    0.83
   1   4   3    5.72    0.54
  -5   1   3    5.64    0.68
   4  -5   3    6.84    0.88
   4  -5   3    4.77    0.79
   1   4   3    6.08    0.77
   8  -4  -3   18.32    1.79
  -4  -4  -3   19.18    1.28
   8  -4  -3   20.51    1.38
  -4  -4  -3   19.64    1.52
   8  -4  -3   21.05    1.71
  -4   8  -3   21.93    1.43
  -8   4   3   17.24    1.46
  -8   4   3   20.95    1.24
   4   4   3   18.79    1.17
   4   4   3   19.75    1.60
   4   4   3   20.41    1.09
   4  -8   3   19.04    1.51
   4  -8   3   19.70    1.66
   7  -5  -3   12.43    1.23
  -5  -2  -3   13.55    1.03
   7  -5  -3   11.51    1.50
  -2   7  -3   11.76    1.07
   5   2   3   13.28    0.89
  -7   5   3   12.73    1.09
  -7   5   3   12.15    1.28
   5   2   3   13.51    1.37
   2  -7   3   14.22    1.27
   2  -7   3   12.97    1.30
   5   2   3   12.89    0.88
   4  -5  -3   20.45    1.37
   4  -5  -3   20.88    1.31
   1   4  -3   21.07    1.18
  -5   1  -3   20.39    1.25
  -5   1  -3   22.05    0.99
   5  -1   3   21.58    1.40
   5  -1   3   19.59    1.64
  -1  -4   3   21.06    1.12
  -4   5   3   19.71    1.23
   4   1  -3    6.60    0.82
  -5   4  -3    9.94    0.79
   1  -5  -3    8.71    0.95
   4   1  -3    9.54    0.80
   1  -5  -3    9.95    1.07
  -1   5   3    9.86    0.73
   5  -4   3    8.60    1.02
  -4  -1   3    9.52    0.75
   5  -4   3    9.70    0.88
   7  -2  -3   34.07    1.82
  -2  -5  -3   31.20    1.66
   7  -2  -3   30.99    1.71
  -5   7  -3   31.80    1.65
   7  -2  -3   30.81    1.42
  -2  -5  -3   29.14    1.78
   5  -7   3   31.89    1.84
  -7   2   3   29.77    1.28
   5  -7   3   30.08    1.73
   2   5   3   32.33    1.54
   2   5   3   30.70    1.32
  -5  -5  -3   12.11    1.31
  -5  10  -3   13.12    1.38
  -5  -5  -3   14.40    1.54
  10  -5  -3   12.68    1.76
  10  -5  -3   13.40    1.67
 -10   5   3   12.08    1.50
   5   5   3   12.54    1.63
 -10   5   3   10.56    1.12
   5   5   3   13.23    1.15
   5   5   3   14.93    1.18
   5 -10   3   13.28    1.68
   5 -10   3   11.37    1.58
  -3   9  -3    4.66    0.96
  -6  -3  -3    4.42    1.02
   9  -6  -3    3.21    0.95
  -6  -3  -3    4.46    0.76
   3  -9   3    3.06    0.94
   6   3   3    4.55    0.77
   6   3   3    3.91    1.07
   3  -9   3    4.58    1.04
   6   3   3    5.19    0.64
  -9   6   3    3.99    0.99
  -9   6   3    3.54    0.75
   0   6  -3    8.30    1.02
   6  -6  -3    7.34    1.19
  -6   0  -3    7.17    0.86
   6  -6  -3    8.68    1.11
  -6   0  -3    6.71    0.79
  -6   6   3    6.46    1.00
   6   0   3    7.04    0.81
   6   0   3    7.59    1.22
  -6   6   3    5.92    0.92
   6   0   3    7.42    0.85
   0  -6   3    8.27    1.00
   0  -6   3    5.62    0.83
   3   3  -3   66.58    2.46
   3  -6  -3   72.77    2.71
  -6   3  -3   70.19    2.34
   3  -6  -3   67.91    2.70
  -3  -3   3   71.40    2.27
   6  -3   3   72.93    2.32
  -3   6   3   68.75    2.63
   6  -3   3   66.65    2.74
   0  -6  -3    2.27    0.71
   6   0  -3    2.75    0.69
   6   0  -3    2.66    0.77
  -6   6  -3    2.08    0.65
   0  -6  -3    3.07    0.75
   6  -6   3    1.55    0.66
   0   6   3    2.51    0.69
   6  -6   3    2.36    0.80
   0   6   3    2.51    0.52
  -6   0   3    2.00    0.40
   9  -3  -3    0.25    0.81
   9  -3  -3    1.24    0.86
  -3  -6  -3    0.58    0.78
  -6   9  -3    0.08    0.72
   3   6   3    0.75    0.60
  -9   3   3    2.63    1.03
   6  -9   3    2.65    1.08
  -9   3   3    1.14    0.48
   6  -9   3   -0.53    0.80
   3   6   3    0.79    0.67
  -6  12  -3    2.42    1.09
  12  -6  -3    2.23    1.22
  -6  -6  -3    1.74    1.08
  -6  -6  -3    4.19    1.42
   6   6   3    2.73    1.51
   6   6   3    2.37    0.92
 -12   6   3    3.01    0.86
 -12   6   3    2.45    1.11
   6   6   3    3.11    0.83
   6 -12   3    2.44    1.45
   6 -12   3    4.64    1.49
  -7  -4  -3   26.45    2.59
  -4  11  -3   28.66    1.99
  11  -7  -3   26.32    2.15
  -7  -4  -3   31.69    2.20
   4 -11   3   29.18    2.25
   4 -11   3   30.66    2.21
 -11   7   3   31.00    2.19
   7   4   3   29.95    1.33
 -11   7   3   32.84    1.93
   7   4   3   28.45    2.51
   7   4   3   30.25    1.74
  -1   8  -3   68.89    2.71
  -7  -1  -3   68.61    2.39
   8  -7  -3   61.68    2.90
   8  -7  -3   62.57    2.86
   7   1   3   62.18    3.10
  -8   7   3   66.78    2.75
  -8   7   3   68.26    2.84
   1  -8   3   73.43    2.89
   7   1   3   66.63    2.41
   7   1   3   67.97    2.00
   1  -8   3   63.16    2.64
   5  -7  -3   35.58    2.00
   2   5  -3   35.92    1.76
  -7   2  -3   37.76    1.61
   5  -7  -3   34.80    2.00
  -2  -5   3   35.92    1.68
  -5   7   3   38.47    1.84
  -5   7   3   33.11    1.85
  -2  -5   3   36.00    1.58
   7  -2   3   33.78    1.40
   7  -2   3   38.11    1.80
   7  -2   3   35.98    2.06
  -7   5  -3   25.18    1.46
   5   2  -3   25.18    1.45
   5   2  -3   27.95    1.53
   2  -7  -3   23.62    1.64
   2  -7  -3   26.61    1.70
   7  -5   3   28.68    1.53
  -5  -2   3   23.38    1.22
  -2   7   3   27.88    1.36
   7  -5   3   24.90    1.84
  -7   8  -3    4.52    0.89
   8  -1  -3    5.45    1.05
  -1  -7  -3    3.66    0.95
   8  -1  -3    4.63    0.53
  -1  -7  -3    4.42    0.99
   8  -1  -3    4.55    1.00
  -8   1   3    4.31    0.51
   1   7   3    4.16    0.74
   7  -8   3    4.84    1.09
   1   7   3    3.62    0.86
   7  -8   3    3.95    1.05
  11  -4  -3    0.42    0.98
  -7  11  -3    0.80    0.88
  11  -4  -3   -0.11    1.05
  -4  -7  -3    2.77    1.11
  -4  -7  -3    1.54    0.90
 -11   4   3   -1.24    0.86
   4   7   3    1.27    0.74
   7 -11   3    0.23    1.19
   4   7   3   -0.49    0.79
 -11   4   3    0.51    0.58
   7 -11   3   -0.07    1.30
  -7  -7  -3  106.21    3.90
  -7  -7  -3  101.53    4.64
  14  -7  -3  108.86    4.81
  -7  14  -3  103.00    4.42
 -14   7   3  107.88    3.86
   7 -14   3   99.05    4.79
   7 -14   3  100.88    5.12
   7   7   3  111.87    3.91
 -14   7   3  113.08    6.82
   7   7   3  107.89    4.96
  13  -8  -3    1.42    1.48
  -8  -5  -3    1.53    1.32
  -5  13  -3    2.81    1.17
  -8  -5  -3    2.78    0.92
   5 -13   3    3.54    1.36
   5 -13   3    2.58    1.61
   8   5   3    0.82    1.30
 -13   8   3   -0.15    1.10
   8   5   3    2.57    1.07
 -13   8   3    1.06    0.92
  -8  -2  -3    7.15    0.90
  10  -8  -3    7.04    1.31
   8   2   3    8.67    1.05
   2 -10   3    5.49    1.35
   2 -10   3    9.33    1.47
 -10   8   3    6.43    1.16
 -10   8   3    7.12    1.36
   8   2   3    6.75    1.37
   7  -8  -3   53.74    2.74
  -8   1  -3   60.87    2.26
   1   7  -3   55.70    2.47
   7  -8  -3   51.98    2.64
  -1  -7   3   59.58    2.36
   8  -1   3   58.17    2.03
  -7   8   3   54.75    2.58
   8  -1   3   54.32    1.80
  -7   8   3   56.93    2.53
  -1  -7   3   54.26    2.64
   8  -1   3   55.78    2.80
   8  -1   3   60.12    2.38
  -8   4  -3   13.07    1.12
   4   4  -3   10.34    1.10
   4  -8  -3   13.22    1.50
   4  -8  -3   11.17    1.50
  -4   8   3   11.15    1.30
  -4   8   3   10.94    1.09
   8  -4   3   10.60    1.07
  -4  -4   3   10.07    0.83
   8  -4   3   10.99    1.50
  -4  -4   3   11.86    1.12
  -8   7  -3   35.57    1.85
   7   1  -3   34.07    1.92
   7   1  -3   32.03    1.95
   1  -8  -3   33.15    2.09
   1  -8  -3   31.34    2.05
  -7  -1   3   33.95    1.19
  -1   8   3   31.91    1.64
  -1   8   3   35.94    1.92
   8  -7   3   30.98    1.95
   8  -7   3   33.65    2.20
  -2  -8  -3    0.16    0.87
  10  -2  -3    0.50    0.99
  10  -2  -3    0.34    0.96
  -8  10  -3    0.30    0.75
  -2  -8  -3    0.56    0.95
 -10   2   3   -0.80    0.96
 -10   2   3    1.03    0.43
   8 -10   3    0.60    1.16
   2   8   3    0.27    0.67
   2   8   3    1.24    0.81
   8 -10   3   -0.35    0.93
  13  -5  -3   21.86    2.36
  13  -5  -3   21.39    2.61
  -8  13  -3   17.73    2.13
  -5  -8  -3   18.58    2.13
  -5  -8  -3   22.54    1.95
   8 -13   3   16.51    2.29
 -13   5   3   19.59    1.46
   5   8   3   25.58    1.94
   5   8   3   20.51    1.75
 -13   5   3   19.15    2.10
   8 -13   3   23.04    2.73
  -8  -8  -3    5.02    1.94
  -8  16  -3    4.35    1.49
  -8  -8  -3    4.53    1.47
  16  -8  -3    6.64    2.11
 -16   8   3    5.35    1.32
 -16   8   3    2.65    1.62
   8 -16   3    2.48    2.09
   8   8   3    3.21    1.40
  -9  -6  -3   14.56    1.79
  -9  -6  -3   16.56    2.41
  -6  15  -3   16.47    2.19
  15  -9  -3   15.98    2.56
 -15   9   3   12.11    1.98
   9   6   3   16.70    2.03
   9   6   3   19.54    2.60
   6 -15   3   16.24    2.37
 -15   9   3   15.79    1.91
   6 -15   3   15.87    2.61
  -9  -3  -3   27.84    1.67
  -3  12  -3   31.56    2.32
  12  -9  -3   32.82    2.75
   9   3   3   31.72    2.57
 -12   9   3   29.29    2.28
 -12   9   3   29.66    2.14
   9   3   3   32.48    2.03
   3 -12   3   30.43    2.59
   3 -12   3   37.85    2.77
   9  -9  -3    8.05    1.44
  -9   0  -3    9.39    1.17
   0   9  -3    7.49    1.17
  -9   9   3    9.18    1.37
   0  -9   3    6.55    1.26
   9   0   3    7.61    1.14
   9   0   3    7.46    0.60
  -9   9   3    7.58    1.26
   9   0   3    8.91    1.51
   0  -9   3    6.65    1.11
   3   6  -3   24.02    1.66
   6  -9  -3   23.97    2.15
   6  -9  -3   22.47    2.05
  -9   3  -3   23.82    1.53
  -3  -6   3   24.51    1.41
   9  -3   3   22.37    2.08
  -6   9   3   23.08    1.87
   9  -3   3   25.52    1.80
  -6   9   3   24.61    1.63
   6   3  -3    3.53    0.88
   3  -9  -3    2.04    1.08
   3  -9  -3    2.73    0.99
  -9   6  -3    2.08    0.72
   6   3  -3    2.81    0.92
  -6  -3   3    2.59    0.50
   9  -6   3    1.75    1.10
  -6  -3   3    3.48    0.79
  -3   9   3    2.48    1.00
  -6  -3   3    1.71    0.62
  -3   9   3    3.47    0.79
  -9   9  -3    0.40    0.78
   0  -9  -3    0.96    0.91
   9   0  -3   -0.72    0.81
   9   0  -3    0.54    0.93
   0  -9  -3    0.61    1.03
   0   9   3   -0.10    0.72
   0   9   3    0.14    0.88
   9  -9   3    1.11    0.99
  -9   0   3    0.34    0.27
  12  -3  -3   42.10    2.74
  12  -3  -3   36.52    2.69
  -3  -9  -3   36.12    2.39
  -9  12  -3   39.40    2.45
  -3  -9  -3   37.28    2.56
   9 -12   3   39.83    2.85
   3   9   3   38.60    2.09
 -12   3   3   37.10    2.54
   3   9   3   35.59    2.25
 -12   3   3   37.88    1.59
  15  -6  -3    6.23    1.85
  -6  -9  -3    4.07    1.61
  -9  15  -3    4.13    1.46
 -15   6   3    5.67    1.05
   6   9   3    4.67    1.29
   6   9   3    4.84    1.36
  -9  -9  -3   26.10    2.80
  18  -9  -3   26.15    3.25
  -9  -9  -3   30.00    3.59
  -9  18  -3   25.38    2.82
   9   9   3   33.21    2.96
   9 -18   3   29.07    3.80
 -18   9   3   24.79    3.13
  17 -10  -3   16.38    2.87
 -10  -7  -3   16.33    2.64
 -10  -7  -3   18.00    2.04
  -7  17  -3   15.54    2.27
  10   7   3   15.06    2.07
   7 -17   3   18.00    2.77
 -17  10   3   16.11    1.99
  10   7   3   19.77    3.00
 -17  10   3   17.29    2.47
  -4  14  -3    1.75    1.19
 -10  -4  -3   -2.06    1.14
 -10  -4  -3    1.22    0.84
  14 -10  -3    0.75    1.67
   4 -14   3    0.00    1.84
  10   4   3   -0.79    1.12
   4 -14   3    1.66    1.59
  10   4   3    2.05    1.58
 -14  10   3    0.61    1.16
 -10  -1  -3   21.00    1.76
  11 -10  -3   18.32    2.17
  -1  11  -3   21.06    1.79
  10   1   3   17.67    1.72
 -11  10   3   19.27    1.96
 -11  10   3   17.96    1.96
   1 -11   3   16.86    2.02
   1 -11   3   19.20    2.06
   8 -10  -3    0.53    1.35
 -10   2  -3    0.57    0.75
   2   8  -3   -0.07    0.73
   8 -10  -3    0.42    0.96
  -8  10   3    1.42    0.96
  -2  -8   3    0.43    0.85
  10  -2   3    1.03    0.73
  -8  10   3    0.12    0.86
  -2  -8   3    0.40    0.75
  10  -2   3    0.11    1.09
   5 -10  -3   13.92    1.86
   5 -10  -3   12.32    1.73
   5   5  -3   11.60    1.30
 -10   5  -3   13.23    1.39
  -5  10   3   13.30    1.33
  -5  10   3   11.08    1.46
  10  -5   3   14.09    1.90
  -5  -5   3   12.40    1.34
  -5  -5   3   11.89    1.01
   2 -10  -3    1.60    1.09
   8   2  -3    1.51    0.94
   2 -10  -3    2.06    1.25
   8   2  -3    1.74    0.86
 -10   8  -3    2.09    0.86
  -8  -2   3    1.48    0.29
  10  -8   3    2.64    1.15
  -2  10   3    1.91    0.80
  -2  10   3    1.20    0.99
  -1 -10  -3   38.85    2.58
  -1 -10  -3   39.62    2.80
 -10  11  -3   39.35    2.46
  11  -1  -3   34.67    2.44
  11  -1  -3   36.75    2.49
   1  10   3   37.82    2.31
  10 -11   3   39.23    2.86
   1  10   3   38.16    2.09
  -4 -10  -3   -0.44    1.26
  14  -4  -3   -1.54    1.41
  -4 -10  -3   -0.64    1.38
 -14   4   3    0.42    0.64
   4  10   3    0.70    1.12
   4  10   3   -1.96    1.37
  10 -14   3    1.24    1.51
 -14   4   3   -1.47    2.18
  17  -7  -3   28.16    3.56
 -10  17  -3   25.78    2.70
  -7 -10  -3   25.07    2.86
  -7 -10  -3   32.76    3.45
   7  10   3   24.10    2.60
  10 -17   3   24.10    3.18
 -17   7   3   28.52    2.86
  20 -10  -3    3.14    2.76
 -10  20  -3    1.09    2.22
 -10 -10  -3   -1.05    2.42
  10 -20   3    1.63    2.31
 -20  10   3    1.04    1.99
  19 -11  -3   10.47    2.64
  -8  19  -3    5.98    1.96
 -11  -8  -3    6.39    1.55
 -11  -8  -3   11.22    2.62
 -19  11   3   11.84    2.45
   8 -19   3    5.99    2.83
  11   8   3    8.77    2.22
 -11  -5  -3   49.69    3.80
  16 -11  -3   45.57    3.78
  -5  16  -3   47.81    3.14
 -11  -5  -3   47.39    2.09
 -16  11   3   37.61    3.22
 -16  11   3   49.25    3.16
   5 -16   3   50.65    3.69
  11   5   3   49.73    4.02
  11   5   3   54.84    2.97
  -2  13  -3    8.41    1.88
  13 -11  -3   11.12    2.01
 -11  -2  -3   10.33    1.53
 -13  11   3    9.18    1.80
  11   2   3   13.17    2.11
   2 -13   3    9.65    2.17
 -13  11   3    8.32    1.58
   2 -13   3    9.07    1.89
  11   2   3   10.97    1.60
  10 -11  -3   10.34    1.84
   1  10  -3   14.85    1.60
 -11   1  -3   12.73    1.54
  -1 -10   3   12.76    1.77
  -1 -10   3   12.37    1.64
 -10  11   3   14.99    1.86
  11  -1   3   12.80    1.66
  11  -1   3   13.87    2.16
 -10  11   3   14.77    1.77
   4   7  -3   -0.85    0.82
   7 -11  -3    1.68    1.41
   7 -11  -3    2.17    1.13
 -11   4  -3    2.80    0.90
  -7  11   3    2.82    0.93
  11  -4   3    1.53    1.19
  -4  -7   3    2.34    0.80
  11  -4   3    2.66    1.26
  -7  11   3    1.75    1.16
  -4  -7   3    3.02    0.96
   7   4  -3   28.84    1.95
   7   4  -3   30.48    2.04
   4 -11  -3   28.88    2.46
 -11   7  -3   27.93    2.02
   4 -11  -3   32.87    2.61
  -7  -4   3   30.69    1.90
  -4  11   3   31.27    2.22
  -7  -4   3   30.78    1.61
  -7  -4   3   30.33    1.29
  -4  11   3   29.73    2.00
  11  -7   3   25.49    2.35
   1 -11  -3    6.36    1.44
   1 -11  -3   11.70    1.78
  10   1  -3    9.28    1.53
  10   1  -3   10.92    1.59
 -11  10  -3    8.46    1.41
  11 -10   3    9.24    1.92
  -1  11   3    7.78    1.27
  -1  11   3   10.50    1.58
  -2 -11  -3    0.76    1.39
  13  -2  -3   -1.16    1.29
  13  -2  -3   -0.02    1.31
 -11  13  -3   -1.39    1.07
  -2 -11  -3    1.37    1.35
 -13   2   3   -0.72    1.20
  11 -13   3   -0.05    1.35
   2  11   3   -1.43    1.27
  16  -5  -3   29.74    3.29
  16  -5  -3   29.17    3.24
 -11  16  -3   26.52    2.65
  -5 -11  -3   21.47    4.22
  -5 -11  -3   27.47    2.84
 -16   5   3   25.10    2.99
   5  11   3   26.04    2.30
  11 -16   3   26.91    3.12
  19  -8  -3   -1.12    2.36
 -11  19  -3   -1.21    1.71
  -8 -11  -3    0.10    2.22
  11 -19   3    2.29    2.24
   8  11   3   -3.13    1.91
 -19   8   3   -1.25    2.05
  22 -11  -3   22.37    4.08
 -11  22  -3   29.94    3.73
 -11 -11  -3   28.10    4.07
  11 -22   3   27.81    4.34
 -22  11   3   32.04    4.21
  21 -12  -3    3.60    3.15
 -12  -9  -3    4.90    2.70
  -9  21  -3    2.04    2.32
   9 -21   3    0.83    2.49
 -21  12   3   -1.67    2.18
  -6  18  -3    3.22    1.59
 -12  -6  -3    0.09    1.68
  18 -12  -3    1.70    2.12
 -18  12   3   -1.50    1.61
 -18  12   3    3.59    2.25
  12   6   3   -3.25    2.22
   6 -18   3   -0.11    2.18
  12   6   3    2.19    1.81
 -12  -3  -3   -1.65    1.60
  15 -12  -3    2.93    1.87
  -3  15  -3    0.76    1.36
 -12  -3  -3    3.90    1.37
  12   3   3    2.60    2.15
   3 -15   3   -0.02    1.69
  12   3   3   -1.81    1.40
 -15  12   3    2.18    1.49
 -15  12   3    1.83    1.55
   0  12  -3    0.94    1.11
  12 -12  -3   -0.34    1.41
 -12   0  -3   -0.07    1.05
 -12  12   3   -0.26    1.15
   0 -12   3    0.79    1.25
 -12  12   3   -1.26    1.11
   0 -12   3    0.48    1.34
  12   0   3    0.85    1.26
  12   0   3    2.26    1.59
   3   9  -3   10.54    1.47
 -12   3  -3   11.44    1.43
   9 -12  -3    8.57    1.87
  12  -3   3   11.73    1.26
  -3  -9   3   13.24    1.63
  -3  -9   3   11.87    1.67
  12  -3   3   11.10    2.02
  -9  12   3   10.64    1.81
  -9  12   3   14.04    1.82
 -12   6  -3    2.01    1.10
   6   6  -3    3.96    1.21
   6 -12  -3    3.25    1.34
   6 -12  -3    0.93    1.51
  -6  -6   3    2.80    1.08
  -6  12   3    2.82    0.95
  -6  12   3    3.98    1.40
  12  -6   3    2.84    1.47
 -12   9  -3   18.85    1.96
   9   3  -3   16.31    1.97
   9   3  -3   16.91    1.81
   3 -12  -3   18.28    2.13
   3 -12  -3   17.20    2.25
  -9  -3   3   15.79    1.80
  12  -9   3   19.05    2.28
  -3  12   3   14.85    1.70
 -12  12  -3   -1.96    1.98
  12   0  -3    0.23    1.32
   0 -12  -3    1.12    1.44
   0 -12  -3    0.29    1.45
  12   0  -3   -0.37    1.37
   0  12   3   -0.20    1.31
   0  12   3   -0.53    0.87
  12 -12   3    0.16    1.56
  -3 -12  -3   38.50    3.45
  -3 -12  -3   34.70    3.14
  15  -3  -3   34.37    3.20
 -12  15  -3   29.16    2.71
  15  -3  -3   40.09    3.51
 -15   3   3   31.15    3.11
  12 -15   3   38.89    3.41
   3  12   3   34.44    2.45
 -12  18  -3    0.76    1.79
  -6 -12  -3    0.09    1.86
  18  -6  -3   -1.39    2.15
 -18   6   3   -2.48    1.89
   6  12   3    1.01    1.62
  12 -18   3    0.56    2.01
 -12  21  -3   17.74    2.96
  21  -9  -3   24.38    3.99
  -9 -12  -3   24.78    3.59
  12 -21   3   20.71    3.59
 -21   9   3   19.14    3.11
  24 -12  -3    0.22    4.10
 -12  24  -3   -2.60    2.83
 -12 -12  -3    8.07    3.50
 -24  12   3   -1.89    3.12
  12 -24   3    7.45    4.22
 -10  23  -3    3.35    2.62
 -13 -10  -3    7.06    3.67
  23 -13  -3   12.49    4.15
  10 -23   3    8.77    4.39
 -23  13   3   11.98    3.53
 -13  -7  -3   33.53    4.26
  -7  20  -3   29.00    3.58
  20 -13  -3   38.57    4.84
 -20  13   3   40.26    3.83
  13   7   3   34.76    4.53
   7 -20   3   37.02    4.49
  -4  17  -3   16.57    2.41
 -13  -4  -3   21.89    2.48
 -13  -4  -3   15.38    2.43
  17 -13  -3   18.94    3.03
 -17  13   3   18.23    2.48
   4 -17   3   17.84    2.76
  13   4   3   19.98    3.16
 -17  13   3   19.40    2.60
  13   4   3   18.40    2.45
  14 -13  -3   50.29    4.12
  -1  14  -3   52.39    3.12
 -13  -1  -3   53.38    3.08
   1 -14   3   49.35    3.57
  13   1   3   53.58    3.27
 -14  13   3   51.20    3.49
 -14  13   3   50.16    3.32
  11 -13  -3    0.73    1.46
   2  11  -3    1.74    1.18
  13  -2   3    0.11    1.56
 -11  13   3    1.89    1.37
 -11  13   3    0.12    1.19
  -2 -11   3    2.99    1.45
   8 -13  -3   35.85    2.84
   5   8  -3   30.47    2.38
 -13   5  -3   27.69    1.99
  -8  13   3   27.76    2.47
  13  -5   3   32.08    2.78
  -5  -8   3   29.54    2.22
  -8  13   3   33.69    2.51
  13  -5   3   40.26    2.76
   8   5  -3    7.20    1.50
   5 -13  -3    8.29    2.18
   5 -13  -3   12.84    2.07
   8   5  -3    9.98    1.55
 -13   8  -3    6.52    1.35
  -8  -5   3    7.22    1.37
  -5  13   3    9.32    1.76
  -8  -5   3    8.38    1.08
  -8  -5   3    7.77    0.94
  13  -8   3    9.92    1.96
  -5  13   3    6.44    1.37
   2 -13  -3    0.32    1.54
  11   2  -3    0.11    1.39
   2 -13  -3    2.32    1.50
 -13  11  -3   -0.52    1.55
  11   2  -3    1.01    1.38
  -2  13   3    0.19    1.35
  -2  13   3    1.18    1.11
  13 -11   3   -0.10    1.64
  14  -1  -3   12.25    2.17
 -13  14  -3    8.98    1.86
  14  -1  -3   16.46    2.35
  -1 -13  -3   15.08    2.48
   1  13   3   14.39    1.85
 -14   1   3   14.31    2.35
 -13  17  -3    1.65    1.69
  17  -4  -3    2.84    2.01
  17  -4  -3   -0.42    2.05
  -4 -13  -3    1.64    2.04
 -17   4   3   -3.11    1.60
   4  13   3    4.59    1.61
  13 -17   3    0.34    2.25
  -7 -13  -3   28.63    3.64
  20  -7  -3   33.91    4.08
 -13  20  -3   28.82    3.41
  13 -20   3   39.16    4.90
   7  13   3   32.46    3.21
 -20   7   3   35.34    3.61
  23 -10  -3    3.26    3.60
 -13  23  -3   10.44    4.32
 -10 -13  -3   -2.22    3.13
  13 -23   3    1.50    3.21
 -23  10   3    2.33    3.09
 -13 -13  -3   37.50    5.64
 -13  26  -3   32.18    4.58
  26 -13  -3   48.15    6.36
  13 -26   3   38.09    6.44
 -26  13   3   36.94    4.99
 -14 -11  -3    2.05    3.83
  25 -14  -3    3.90    4.20
 -11  25  -3    4.36    3.62
  11 -25   3   -4.56    3.60
 -25  14   3    2.32    3.62
  22 -14  -3    1.70    3.43
  -8  22  -3    5.16    2.79
 -14  -8  -3    0.48    2.95
   8 -22   3   -2.34    2.69
 -22  14   3    3.96    2.63
  19 -14  -3    6.81    2.86
 -14  -5  -3   -1.40    2.21
  -5  19  -3    3.53    2.00
  14   5   3    2.74    2.70
   5 -19   3    2.83    2.48
 -19  14   3    2.44    2.22
  14   5   3    5.25    2.70
 -19  14   3    7.80    2.17
  -2  16  -3    2.39    1.80
  16 -14  -3    1.06    2.24
 -14  -2  -3    3.68    1.63
  14   2   3    6.07    2.05
   2 -16   3    5.05    2.07
 -16  14   3    1.78    1.99
  14   2   3    3.60    2.01
 -16  14   3    1.43    1.88
 -14   1  -3   33.81    2.67
  13 -14  -3   26.75    3.46
  14  -1   3   33.13    2.85
 -13  14   3   31.03    2.72
 -13  14   3   30.03    2.92
  -1 -13   3   29.65    2.95
 -14   4  -3    2.04    1.24
   4  10  -3    4.99    1.46
  10 -14  -3    6.55    1.88
  -4 -10   3    4.24    1.33
 -10  14   3    7.18    1.91
  14  -4   3    6.11    1.88
 -10  14   3    5.90    1.49
 -14   7  -3   10.90    1.66
   7 -14  -3   15.99    2.74
   7 -14  -3   11.30    2.17
   7   7  -3   13.08    1.84
  -7  14   3    7.75    1.73
  -7  -7   3   13.96    1.81
  -7  -7   3   12.09    1.25
  14  -7   3   13.00    2.26
  14  -7   3   10.02    2.21
  -7  14   3   11.51    1.85
   4 -14  -3    0.29    1.40
   4 -14  -3   -0.14    2.11
  10   4  -3   -1.60    1.14
 -14  10  -3   -0.27    1.25
  10   4  -3   -1.78    1.19
 -10  -4   3    3.38    1.28
  14 -10   3   -1.36    1.40
  -4  14   3    1.75    1.08
  -4  14   3    2.23    1.62
 -14  13  -3   16.59    2.34
  13   1  -3   16.15    2.30
   1 -14  -3   14.95    2.47
  13   1  -3   17.10    2.23
  -1  14   3   19.67    2.14
  -2 -14  -3    1.19    1.95
  16  -2  -3    1.87    1.97
 -14  16  -3    2.56    1.55
  16  -2  -3    2.08    1.95
  14 -16   3   -0.32    1.89
   2  14   3   -0.21    2.69
 -16   2   3    2.90    1.90
 -14  19  -3   22.33    3.17
  -5 -14  -3   22.91    3.31
  19  -5  -3   30.07    3.81
  14 -19   3   23.98    3.67
 -19   5   3   25.07    3.30
   5  14   3   28.16    3.22
 -14  22  -3    2.32    2.42
  -8 -14  -3   -1.58    3.11
  22  -8  -3   -2.62    3.31
 -22   8   3   -4.39    2.61
  14 -22   3   -3.04    3.28
  25 -11  -3   19.92    4.83
 -11 -14  -3   25.77    4.84
 -14  25  -3   17.60    3.80
 -25  11   3   25.82    4.60
  14 -25   3   17.02    5.15
 -14  28  -3   14.27    5.09
  28 -14  -3   -0.56    6.25
 -14 -14  -3   -3.56    5.09
 -28  14   3    6.02    4.80
  14 -28   3   -0.55    5.41
 -15 -12  -3    9.91    5.03
 -12  27  -3    8.82    4.28
  27 -15  -3   10.35    5.93
  12 -27   3    7.60    5.27
 -27  15   3   10.99    4.32
  -9  24  -3   36.98    4.62
 -15  -9  -3   30.34    4.52
  24 -15  -3   45.46    5.56
   9 -24   3   28.19    5.14
 -24  15   3   37.92    4.89
  -6  21  -3   14.25    3.08
  21 -15  -3   11.69    3.54
 -15  -6  -3   17.15    3.52
   6 -21   3   16.14    3.59
  15   6   3   13.24    3.44
 -21  15   3   16.21    3.32
 -15  -3  -3   30.23    3.66
  -3  18  -3   27.94    3.26
  18 -15  -3   29.93    4.02
 -18  15   3   25.29    3.05
   3 -18   3   30.37    3.87
 -18  15   3   24.48    3.30
  15   3   3   27.32    3.89
  15 -15  -3    0.07    1.94
 -15   0  -3   -1.40    1.54
   0  15  -3    1.87    1.47
 -15  15   3    2.70    1.72
   0 -15   3   -0.26    1.87
 -15  15   3    3.87    3.69
  15   0   3    1.26    2.13
  15   0   3    0.29    1.90
  12 -15  -3   32.72    3.51
 -15   3  -3   38.56    2.82
  -3 -12   3   31.14    2.87
  -3 -12   3   36.20    3.00
 -12  15   3   28.86    2.99
 -12  15   3   32.51    2.80
  15  -3   3   38.52    3.63
 -15   6  -3    0.29    1.23
   6   9  -3    0.39    1.36
   9 -15  -3    0.80    1.62
  -9  15   3   -0.86    1.29
  -6  -9   3    0.44    1.13
  -6  -9   3   -0.32    1.22
  -9  15   3    0.26    1.58
   6 -15  -3   13.21    2.63
   9   6  -3   21.02    2.39
 -15   9  -3   18.43    2.54
   6 -15  -3   15.67    3.02
  -6  15   3   16.59    2.07
  -9  -6   3   14.94    1.60
  15  -9   3   17.94    2.74
  -9  -6   3   14.86    1.26
  12   3  -3   22.04    2.63
  12   3  -3   23.88    2.85
 -15  12  -3   21.45    2.38
  -3  15   3   24.44    2.91
 -12  -3   3   21.12    2.56
  15 -12   3   24.98    3.24
 -15  15  -3   11.37    2.03
   0 -15  -3   12.81    2.70
  15   0  -3    9.73    2.33
  15   0  -3   11.86    2.59
   0  15   3   13.49    1.97
 -15   0   3   10.98    2.38
  15 -15   3    8.07    2.34
  18  -3  -3   17.69    3.07
 -15  18  -3   16.19    2.91
  18  -3  -3   10.45    2.77
  -3 -15  -3   12.16    2.72
 -18   3   3   16.20    2.89
  15 -18   3   13.99    2.97
   3  15   3   11.71    2.26
  -6 -15  -3    2.56    2.82
 -15  21  -3    3.52    2.41
  21  -6  -3    2.57    3.15
  15 -21   3    2.06    2.86
 -21   6   3    1.47    2.70
 -15  24  -3   26.66    4.04
  -9 -15  -3   30.43    4.95
  24  -9  -3   29.50    5.20
  15 -24   3   30.75    7.47
  27 -12  -3   -2.03    5.41
 -15  27  -3   -8.03    4.08
 -12 -15  -3   -7.61    4.92
 -27  12   3    3.27    3.96
  15 -27   3   -0.37    5.23
 -16 -13  -3    5.92    7.38
  29 -16  -3    7.97    6.68
 -29  16   3   -0.77    5.35
  13 -29   3    1.54    6.23
  26 -16  -3   -2.11    5.00
 -16 -10  -3    2.96    4.52
 -10  26  -3    5.42    4.01
  10 -26   3    4.67    4.81
 -26  16   3   -0.88    3.61
  -7  23  -3   11.16    4.97
 -16  -7  -3    8.83    3.70
  23 -16  -3   10.84    4.34
 -23  16   3    8.55    3.25
   7 -23   3    4.22    3.68
 -16  -4  -3    0.03    2.59
  20 -16  -3    1.27    2.94
  -4  20  -3   -2.32    2.32
  16   4   3    6.69    3.03
   4 -20   3   -2.43    2.73
 -20  16   3    3.37    2.37
  -1  17  -3    9.55    2.09
 -16  -1  -3   11.76    2.25
  17 -16  -3    9.95    2.70
  16   1   3   11.70    2.66
 -17  16   3    6.50    2.18
  16   1   3    7.76    2.54
   1 -17   3    6.06    2.46
 -17  16   3    7.88    2.50
 -16   2  -3    2.00    1.57
  14 -16  -3    0.59    1.94
   2  14  -3   -2.36    1.59
 -14  16   3    2.42    1.83
  16  -2   3    1.63    2.16
 -14  16   3    2.52    2.05
  -2 -14   3    0.96    1.87
   5  11  -3   14.40    2.06
 -16   5  -3   15.85    2.24
  11 -16  -3   13.07    2.70
 -11  16   3   11.19    2.60
 -11  16   3   19.74    2.30
  -5 -11   3   16.43    2.29
  16  -5   3   16.57    2.86
   8 -16  -3    5.37    2.06
 -16   8  -3    2.51    1.60
   8   8  -3    4.01    1.57
  -8  16   3    3.46    2.19
  -8  16   3    5.74    1.76
  -8  -8   3    3.24    1.64
  16  -8   3    3.50    2.40
  -8  -8   3    4.28    1.14
   5 -16  -3   69.85    4.40
  11   5  -3   74.76    4.12
  11   5  -3   70.92    4.62
 -16  11  -3   69.91    3.74
  -5  16   3   74.84    3.80
 -11  -5   3   68.73    3.83
  16 -11   3   70.84    4.63
  -5  16   3   75.91    5.21
   2 -16  -3    0.04    1.99
 -16  14  -3   -2.13    1.40
  14   2  -3   -2.07    1.87
  14   2  -3   -0.38    2.04
  -2  16   3    0.45    1.34
 -14  -2   3   -1.04    1.61
  16 -14   3   -0.15    1.92
  17  -1  -3   43.49    3.99
  17  -1  -3   46.43    4.08
 -16  17  -3   44.69    3.89
  -1 -16  -3   44.66    4.47
 -17   1   3   45.54    4.07
  16 -17   3   49.26    4.85
   1  16   3   40.85    3.34
 -16  20  -3    1.30    2.30
  20  -4  -3    0.67    2.68
  -4 -16  -3    6.07    2.83
 -20   4   3    3.38    2.24
   4  16   3   -0.14    2.34
  16 -20   3    0.25    2.83
  23  -7  -3   24.64    4.74
  -7 -16  -3   26.31    4.62
 -16  23  -3   29.65    4.12
 -23   7   3   26.68    4.03
  16 -23   3   24.71    5.15
  26 -10  -3    0.20    4.96
 -16  26  -3    1.13    3.61
 -10 -16  -3   11.00    4.94
 -26  10   3   -4.84    4.03
  16 -26   3    4.33    4.99
  29 -13  -3    3.47    6.74
 -13 -16  -3    3.06    5.97
 -29  13   3   26.16    6.08
  16 -29   3    8.69    6.92
 -17 -11  -3   29.37    6.20
 -11  28  -3   18.59    5.11
  28 -17  -3   20.73    6.72
  11 -28   3   25.80    6.29
 -28  17   3   28.14    5.85
  25 -17  -3   24.12    5.58
  -8  25  -3   13.14    4.13
   8 -25   3   16.95    4.60
 -25  17   3   29.21    4.85
  -5  22  -3   49.58    4.68
 -17  -5  -3   54.90    5.55
  22 -17  -3   62.30    6.67
   5 -22   3   70.23    5.79
 -22  17   3   51.53    5.63
  17   5   3   59.99    6.31
 -17  -2  -3    2.18    3.56
  19 -17  -3   -0.45    2.72
  -2  19  -3    1.65    2.44
 -17  -2  -3    3.63    2.75
 -19  17   3    3.24    2.67
  17   2   3    3.40    2.72
 -19  17   3    1.03    2.25
   2 -19   3    6.28    2.95
  16 -17  -3   33.87    4.05
   1  16  -3   35.98    3.27
 -16  17   3   39.83    4.19
 -16  17   3   34.58    3.42
  17  -1   3   30.91    4.01
  -1 -16   3   40.89    3.97
  13 -17  -3    2.50    2.20
 -17   4  -3    1.57    1.71
   4  13  -3    1.64    1.55
 -13  17   3    3.14    1.83
  -4 -13   3    1.17    1.80
 -13  17   3    0.85    2.07
  17  -4   3   -0.52    1.92
 -17   7  -3   42.02    3.15
   7  10  -3   45.11    3.28
  10 -17  -3   51.23    4.29
  -7 -10   3   44.64    2.80
  17  -7   3   44.52    4.31
 -10  17   3   34.96    3.64
  -7 -10   3   45.31    3.36
 -10  17   3   41.80    3.17
  10   7  -3    3.44    1.72
   7 -17  -3    1.90    1.87
 -17  10  -3    3.96    1.74
 -10  -7   3    3.79    1.08
 -10  -7   3    1.96    1.69
  -7  17   3    2.70    2.24
  -7  17   3    0.13    1.41
 -10  -7   3    1.10    0.82
  17 -10   3    1.06    1.89
   4 -17  -3   20.19    3.03
  13   4  -3   25.38    3.18
 -17  13  -3   25.52    3.06
  13   4  -3   19.37    2.86
  -4  17   3   28.62    2.89
 -13  -4   3   26.03    2.81
  17 -13   3   24.04    3.30
 -17  16  -3   22.95    2.89
   1 -17  -3   23.14    3.59
  16   1  -3   25.51    3.50
  -1  17   3   29.92    3.07
  17 -16   3   18.73    3.49
 -16  -1   3   25.59    3.27
  19  -2  -3    1.27    2.81
 -17  19  -3    3.04    2.25
  19  -2  -3    5.43    3.01
  -2 -17  -3    6.94    3.04
 -19   2   3   -0.47    2.22
  17 -19   3    2.12    3.12
   2  17   3    5.10    2.29
  -5 -17  -3   26.10    4.41
  22  -5  -3   26.48    4.44
 -22   5   3   20.86    3.84
  17 -22   3   23.75    4.44
 -17  25  -3    1.81    3.88
  -8 -17  -3   -0.31    4.42
  25  -8  -3    0.18    4.60
 -25   8   3    3.32    3.86
  17 -25   3   -5.34    4.09
 -17  28  -3   19.86    5.45
 -11 -17  -3   24.02    6.17
  28 -11  -3   18.35    6.65
  17 -28   3   21.53    6.64
 -28  11   3   13.86    5.41
  -9  27  -3   -3.70    4.42
 -18  -9  -3   -3.40    5.19
  27 -18  -3   -7.60    5.50
 -27  18   3  -10.21    4.19
   9 -27   3   -1.08    4.99
  24 -18  -3    6.01    4.38
 -18  -6  -3    1.26    3.74
  -6  24  -3    3.12    3.64
  18   6   3   -7.79    3.84
   6 -24   3    9.33    5.09
 -24  18   3   -8.33    3.00
  -3  21  -3    5.14    2.96
  21 -18  -3    9.60    3.92
 -18  -3  -3    8.57    3.27
 -21  18   3   12.37    3.45
  18   3   3    3.48    3.55
   3 -21   3    0.59    3.32
   0  18  -3   -1.46    1.93
 -18   0  -3    0.09    2.12
  18 -18  -3    6.80    3.20
   0 -18   3    1.28    2.62
 -18  18   3    2.54    2.75
  18   0   3    0.40    2.89
 -18  18   3    1.52    2.23
  15 -18  -3   41.22    4.28
 -18   3  -3   33.99    3.31
   3  15  -3   37.34    3.28
 -15  18   3   34.52    3.46
  -3 -15   3   32.60    3.69
 -15  18   3   50.45    4.60
  18  -3   3   31.99    4.04
   6  12  -3    1.49    1.60
 -18   6  -3   -0.94    1.71
  12 -18  -3    5.19    2.35
  -6 -12   3    4.88    2.14
  18  -6   3    2.01    2.55
 -12  18   3   -0.15    2.48
 -12  18   3   -1.42    1.55
   9   9  -3   36.12    3.36
 -18   9  -3   27.58    3.13
   9 -18  -3   39.52    4.14
  -9  18   3   39.65    4.32
  18  -9   3   43.55    4.04
  -9  -9   3   35.05    3.26
  -9  18   3   37.11    3.13
  -9  -9   3   33.85    2.91
  -9  -9   3   34.91    2.41
  12   6  -3    3.29    2.07
  12   6  -3   -1.78    1.88
 -18  12  -3   -0.07    1.53
   6 -18  -3    2.07    2.08
 -12  -6   3   -0.82    1.86
  -6  18   3    0.57    1.73
  18 -12   3   -0.48    2.34
 -18  15  -3   42.05    3.48
   3 -18  -3   33.45    4.28
  15   3  -3   39.67    3.95
  -3  18   3   34.41    3.03
  18 -15   3   35.66    4.19
  18   0  -3    5.82    2.98
   0 -18  -3   -4.75    2.48
 -18  18  -3    1.40    2.11
  18   0  -3   -0.94    2.62
 -18   0   3   -2.50    2.41
  18 -18   3    4.89    3.04
   0  18   3   -0.13    2.08
 -18  21  -3   41.34    4.35
  -3 -18  -3   38.75    5.24
  21  -3  -3   40.03    4.99
  18 -21   3   34.81    5.00
 -21   3   3   41.06    4.86
 -18  24  -3    1.08    3.46
  24  -6  -3   -5.95    4.19
  -6 -18  -3   10.14    3.98
  18 -24   3   -5.46    4.46
 -24   6   3   -1.98    3.55
  -9 -18  -3   14.61    5.70
  27  -9  -3   12.97    6.82
 -18  27  -3    8.70    4.22
 -27   9   3   26.64    5.49
  18 -27   3   14.32    6.14
  29 -19  -3    3.06    6.92
  10 -29   3    9.01    6.64
  26 -19  -3   29.59    6.47
  -7  26  -3   32.37    5.31
 -19  -7  -3   34.31    6.10
   7 -26   3   30.86    5.85
 -26  19   3   31.27    5.52
  -4  23  -3    4.60    3.53
 -19  -4  -3    4.17    3.66
  19   4   3    8.67    4.49
 -23  19   3    4.49    3.61
   4 -23   3    7.76    3.68
 -19  -1  -3   47.26    5.25
  20 -19  -3   32.62    5.15
  -1  20  -3   37.53    4.49
   1 -20   3   52.96    5.40
  19   1   3   39.90    5.23
 -20  19   3   36.82    4.27
 -19   2  -3   -1.46    2.17
  17 -19  -3    4.81    2.75
   2  17  -3    2.77    2.35
 -17  19   3    2.88    2.66
 -17  19   3    2.31    2.52
  -2 -17   3    3.08    2.68
  19  -2   3    1.68    3.01
 -19   5  -3   30.50    3.28
  14 -19  -3   33.49    4.50
   5  14  -3   35.60    3.60
 -14  19   3   30.35    3.36
  -5 -14   3   30.65    3.78
 -14  19   3   28.50    4.61
  19  -5   3   29.55    3.98
  11 -19  -3   -1.93    2.35
   8  11  -3   -3.60    1.84
 -19   8  -3   -1.80    1.89
  19  -8   3    0.49    2.20
 -11  19   3   -0.43    2.59
 -11  19   3   -1.03    1.87
   8 -19  -3    8.44    2.62
 -19  11  -3   18.17    2.68
  11   8  -3   16.02    2.65
 -11  -8   3   21.54    2.97
  19 -11   3   16.19    3.30
  -8  19   3   14.40    2.60
   5 -19  -3   14.04    2.98
  14   5  -3   12.26    2.68
 -19  14  -3   11.88    2.35
  14   5  -3    6.72    2.81
  19 -14   3   11.25    3.34
  -5  19   3   11.51    2.40
 -14  -5   3   10.50    2.47
   2 -19  -3   11.45    3.22
  17   2  -3    8.77    3.08
 -19  17  -3    5.68    2.65
  17   2  -3    7.91    2.91
  -2  19   3    9.68    2.44
  19 -17   3    9.25    3.18
 -17  -2   3    5.55    2.65
 -17  -2   3   11.65    2.86
  20  -1  -3   25.14    4.31
  -1 -19  -3   16.92    3.94
 -19  20  -3   12.11    3.44
  20  -1  -3   13.26    3.96
  19 -20   3   23.46    4.41
   1  19   3   13.37    3.05
 -20   1   3   19.05    3.49
  23  -4  -3    5.85    4.46
  -4 -19  -3   -0.84    4.02
 -19  23  -3    0.50    2.99
  19 -23   3   -2.84    3.74
 -23   4   3   -0.82    3.70
 -19  26  -3   33.68    5.38
  -7 -19  -3   40.22    6.42
  19 -26   3   26.13    6.58
 -26   7   3   23.81    4.67
 -10 -19  -3   -8.50    6.55
 -29  10   3    1.38    5.91
  19 -29   3    4.05    6.04
  28 -20  -3    5.52    6.31
 -20  -8  -3    3.09    6.02
  -8  28  -3    4.75    5.17
   8 -28   3    0.63    6.16
 -28  20   3    1.44    5.87
  25 -20  -3    8.64    5.54
  -5  25  -3   10.28    3.95
 -20  -5  -3   16.67    4.81
   5 -25   3    4.57    4.69
  20   5   3    5.71    5.13
 -25  20   3    3.21    3.73
  -2  22  -3   -2.73    3.63
  22 -20  -3    7.64    4.40
 -20  -2  -3    8.92    3.86
  20   2   3   -0.82    3.79
   2 -22   3    3.36    3.88
 -22  20   3   -1.21    3.41
   1  19  -3   15.06    2.99
  19 -20  -3    9.83    4.07
 -19  20   3   13.34    3.76
  -1 -19   3   21.43    3.78
  20  -1   3   19.31    3.92
 -19  20   3   16.09    3.32
  16 -20  -3    1.70    3.18
   4  16  -3   -4.99    2.30
 -20   4  -3   -3.23    2.11
  20  -4   3   -3.19    2.85
  -4 -16   3    1.78    2.73
 -16  20   3    3.26    3.16
 -16  20   3    0.41    2.16
  13 -20  -3   28.00    4.05
   7  13  -3   28.26    3.36
 -20   7  -3   30.03    3.53
 -13  20   3   28.09    3.47
  20  -7   3   28.09    4.32
 -13  20   3   24.36    4.61
  -7 -13   3   31.91    3.77
  10 -20  -3    0.77    2.77
 -20  10  -3    1.71    2.13
  10  10  -3    0.94    2.14
 -10  20   3    3.10    2.29
 -10 -10   3    2.96    1.74
 -10 -10   3   -0.40    1.46
 -10 -10   3   -1.74    2.04
  20 -10   3   -1.76    2.43
  13   7  -3   44.52    4.19
   7 -20  -3   39.34    4.36
 -20  13  -3   36.38    3.53
 -13  -7   3   42.08    4.25
  20 -13   3   45.91    4.75
  -7  20   3   39.15    3.87
  16   4  -3   -1.20    2.92
  16   4  -3    5.35    2.96
 -20  16  -3    0.35    2.09
   4 -20  -3    7.60    2.85
 -16  -4   3    0.75    2.49
  20 -16   3   -3.98    2.71
  -4  20   3   -1.47    1.99
   1 -20  -3   28.26    4.45
  19   1  -3   25.55    4.52
  19   1  -3   30.36    4.27
 -20  19  -3   27.75    3.96
 -19  -1   3   25.82    3.96
  20 -19   3   22.81    4.70
 -19  -1   3   24.69    3.77
  -1  20   3   25.82    3.40
  22  -2  -3    1.01    3.87
 -20  22  -3   -0.80    3.26
  -2 -20  -3    7.00    3.61
 -22   2   3    2.51    3.44
  20 -22   3   -1.79    3.97
 -20  25  -3   26.63    4.98
  -5 -20  -3   18.06    5.47
 -25   5   3   26.90    4.91
  20 -25   3   23.53    5.43
  -8 -20  -3    3.66    6.05
 -28   8   3    2.56    5.70
  20 -28   3    0.74    6.31
 -21  -6  -3   24.74    6.40
  27 -21  -3    4.44    6.46
  -6  27  -3    2.04    4.71
 -27  21   3   10.75    5.25
   6 -27   3    9.13    6.01
  -3  24  -3   34.43    5.01
 -21  -3  -3   38.41    5.57
  24 -21  -3   45.31    6.81
  21   3   3   48.27    6.48
 -24  21   3   36.66    5.51
   3 -24   3   39.44    5.75
  21 -21  -3    9.43    6.31
   0  21  -3   -2.10    3.60
 -21   0  -3   10.22    3.77
  21   0   3    2.11    3.78
 -21  21   3    1.36    3.40
   0 -21   3    1.79    3.65
   3  18  -3   40.40    4.69
 -21   3  -3   41.54    4.28
  18 -21  -3   31.02    5.03
 -18  21   3   36.46    4.31
  21  -3   3   34.01    4.85
  -3 -18   3   40.45    5.19
 -18  21   3   35.53    4.70
  15 -21  -3    3.04    2.94
   6  15  -3    3.50    2.54
 -21   6  -3    0.21    2.35
  21  -6   3   -0.72    3.22
  -6 -15   3   -0.05    2.70
 -15  21   3   -1.07    2.63
   9  12  -3   29.87    3.54
  12 -21  -3   30.58    4.29
 -21   9  -3   32.98    3.79
  21  -9   3   20.65    3.82
  -9 -12   3   31.13    4.02
 -12  21   3   32.00    3.99
  -9 -12   3   29.82    3.18
 -21  12  -3    2.99    2.43
   9 -21  -3   -5.68    2.54
  12   9  -3   -4.81    2.57
 -12  -9   3    0.31    2.40
  -9  21   3    2.56    2.14
  21 -12   3    2.54    3.23
   6 -21  -3    9.60    3.27
 -21  15  -3    8.57    2.82
  15   6  -3    8.13    3.04
 -15  -6   3   10.65    3.15
  21 -15   3   10.51    3.87
  -6  21   3   10.17    2.88
   3 -21  -3    8.76    3.17
  18   3  -3   11.74    3.61
 -21  18  -3   14.08    3.02
  18   3  -3   11.77    3.95
 -18  -3   3    6.13    3.08
  21 -18   3   19.78    4.17
  -3  21   3   11.22    2.98
 -18  -3   3    9.95    3.29
  21   0  -3   16.11    4.76
 -21  21  -3    9.80    3.47
  21   0  -3   18.77    4.79
   0 -21  -3   14.07    4.23
 -21   0   3   16.40    3.84
  21 -21   3   17.09    7.68
 -21   0   3   15.87    3.66
 -21  24  -3   14.88    4.12
  -3 -21  -3   14.44    5.22
 -24   3   3   10.73    4.40
  21 -24   3    2.98    5.43
  -6 -21  -3   -3.80    5.93
 -21  27  -3    5.78    4.52
  21 -27   3   -7.58    5.35
  26 -22  -3    0.30    6.05
 -22  -4  -3    3.84    5.35
  -4  26  -3    3.82    4.97
 -26  22   3   -6.39    4.14
   4 -26   3   -5.93    5.56
  22   4   3   -6.83    5.71
 -22  -1  -3   13.04    4.78
  -1  23  -3   17.71    4.40
  23 -22  -3   11.30    5.42
   1 -23   3   10.43    4.91
  22   1   3    8.48    5.21
 -23  22   3    9.88    4.37
   2  20  -3   -0.51    3.39
  22  -2   3    3.44    4.24
  -2 -20   3    5.59    3.81
 -20  22   3   12.24    3.44
  17 -22  -3   20.64    4.49
   5  17  -3   13.84    3.33
 -22   5  -3   16.87    3.19
 -17  22   3   12.79    3.88
  22  -5   3   17.99    4.35
  -5 -17   3   15.76    3.87
 -22   8  -3    2.03    2.55
   8  14  -3   -1.29    2.82
  14 -22  -3    0.69    3.51
  22  -8   3    0.39    3.10
 -14  22   3    0.65    2.45
  -8 -14   3    3.21    2.93
  11 -22  -3   29.90    4.72
 -22  11  -3   25.27    3.55
  11  11  -3   26.66    3.58
 -11 -11   3   25.85    3.64
 -11 -11   3   26.76    2.94
  22 -11   3   26.73    4.52
 -11  22   3   19.04    3.18
  14   8  -3    2.24    2.80
 -22  14  -3   -1.13    2.64
   8 -22  -3    1.81    3.29
  22 -14   3   -3.20    3.44
  -8  22   3    2.56    2.62
 -14  -8   3    3.11    2.83
   5 -22  -3   46.52    6.04
 -22  17  -3   34.97    4.18
  17   5  -3   38.03    4.87
  17   5  -3   36.04    4.83
 -17  -5   3   39.96    4.58
 -17  -5   3   44.53    4.85
  -5  22   3   36.72    4.11
  22 -17   3   40.69    5.66
 -22  20  -3    5.37    3.39
  20   2  -3   -2.38    4.40
   2 -22  -3    0.00    3.29
  22 -20   3    7.53    4.28
  -2  22   3    1.55    3.23
 -20  -2   3   -5.19    3.51
 -22  23  -3   22.61    4.45
  -1 -22  -3   14.29    5.17
 -23   1   3   19.44    4.64
  22 -23   3   24.77    5.97
 -22  26  -3   -2.35    4.17
  -4 -22  -3   -5.57    5.44
  22 -26   3   -0.75    5.90
  25 -23  -3   12.73    6.37
 -23  -2  -3   -0.31    5.08
  -2  25  -3    4.70    4.52
  23   2   3    2.92    5.76
 -25  23   3    0.32    4.58
   2 -25   3   10.65    5.90
   1  22  -3   32.74    4.85
 -23   1  -3   29.89    5.34
  22 -23  -3   33.26    6.12
  23  -1   3   29.30    5.56
 -22  23   3   23.25    4.47
   4  19  -3    3.66    3.52
  19 -23  -3    8.46    4.80
  23  -4   3    3.19    4.34
 -19  23   3    4.68    3.46
  -4 -19   3   11.24    4.16
  16 -23  -3   22.55    4.98
 -23   7  -3   23.13    3.60
   7  16  -3   27.58    4.07
  -7 -16   3   26.50    4.39
  23  -7   3   23.03    5.02
 -16  23   3   30.98    4.29
  13 -23  -3    2.94    3.38
  10  13  -3    6.31    3.12
 -23  10  -3   -1.27    2.82
 -10 -13   3    1.61    3.26
 -13  23   3    2.33    3.02
  23 -10   3   -4.38    3.69
  10 -23  -3   24.59    4.90
 -23  13  -3   20.11    3.66
  13  10  -3   27.90    3.99
 -10  23   3   22.80    3.76
  23 -13   3   20.52    4.67
 -13 -10   3   24.19    3.89
   7 -23  -3    7.22    3.41
  16   7  -3   -0.39    3.47
 -23  16  -3    4.28    2.89
  23 -16   3    7.01    4.24
 -16  -7   3   11.82    3.60
  -7  23   3    3.42    3.12
  19   4  -3   13.49    4.99
 -23  19  -3    0.41    3.14
 -19  -4   3    3.75    3.98
  -4  23   3    6.25    3.34
  23 -19   3    6.10    4.71
   1 -23  -3    8.94    4.44
 -23  22  -3    4.91    4.01
 -22  -1   3    7.43    4.46
  23 -22   3    8.63    4.78
 -23  25  -3    3.39    4.62
  -2 -23  -3   -1.35    5.23
  23 -25   3    0.99    6.12
  27 -24  -3   -2.85    7.17
   3 -27   3    1.74    6.69
  24 -24  -3    3.41    5.80
 -24   0  -3  -10.21    5.15
   0  24  -3    4.82    4.92
  24   0   3   -2.24    5.66
 -24  24   3    3.33    3.98
   0 -24   3   -2.09    5.20
   3  21  -3   20.27    4.58
  21 -24  -3   11.01    4.99
 -21  24   3    6.27    4.30
  24  -3   3   15.88    5.21
  18 -24  -3   -2.56    4.33
   6  18  -3    3.72    3.90
 -18  24   3    1.96    3.23
  -6 -18   3    8.36    4.13
 -24   9  -3   18.96    3.82
   9  15  -3   12.07    3.87
 -15  24   3   16.33    3.92
  -9 -15   3   17.61    4.26
  24  -9   3   19.14    4.53
  12 -24  -3    3.53    4.65
  12  12  -3    2.31    3.62
 -24  12  -3   -0.83    2.94
  24 -12   3   -0.48    4.19
 -12  24   3    2.79    3.49
 -12 -12   3    5.07    3.81
  15   9  -3   25.82    4.73
  24 -15   3   25.14    5.77
 -24  18  -3   -3.36    2.99
  18   6  -3    4.67    6.73
   6 -24  -3    2.01    4.02
  24 -18   3   -2.55    3.98
 -18  -6   3    3.22    4.00
  -6  24   3    0.46    3.52
   3 -24  -3   28.18    5.11
 -24  21  -3   18.51    4.40
  24 -21   3   34.17    5.91
   0 -24  -3   -4.87    5.28
 -24  24  -3    1.24    4.46
  24 -24   3    8.94    6.07
  -3 -24  -3   18.67    6.94
  24 -27   3   19.02    6.74
 -25  -1  -3   17.59    6.42
  26 -25  -3   25.87    6.89
  25   1   3   15.92    9.87
   2  23  -3    4.76    5.15
 -25   2  -3    8.51    5.03
  23 -25  -3   -6.34    5.71
  25  -2   3  -12.37    5.57
 -23  25   3   -3.68    4.72
   5  20  -3   33.28    5.38
  20 -25  -3   36.40    6.42
  25  -5   3   26.51    6.31
 -20  25   3   25.12    4.75
   8  17  -3   -7.17    4.90
  17 -25  -3   -4.92    4.19
  25  -8   3   -1.27    4.63
 -17  25   3   -1.43    3.66
  14 -25  -3   29.36    5.40
  11  14  -3   29.38    4.87
 -14  25   3   27.96    4.62
  25 -11   3   26.77    5.61
  11 -25  -3    4.21    4.43
 -25  14  -3    0.58    3.40
  25 -14   3    8.35    4.91
 -11  25   3   -0.40    3.44
 -25  17  -3    4.30    3.89
   8 -25  -3    2.34    4.27
  25 -17   3   12.43    5.21
  -8  25   3    7.89    3.72
   5 -25  -3    6.48    4.94
 -25  20  -3   13.15    4.06
  -5  25   3    7.85    4.29
  25 -20   3   11.77    5.38
 -25  23  -3   -2.04    4.74
   2 -25  -3    0.11    5.69
  25 -23   3    6.28    5.42
  -1 -25  -3  -11.84    6.51
  25 -26   3    8.35    7.45
  25 -26  -3   14.91    7.22
 -26   1  -3   16.89    6.89
  26  -1   3   -9.19    6.52
  22 -26  -3    1.48    5.83
  26  -4   3    9.01    6.23
 -22  26   3    2.29    4.81
  19 -26  -3   14.93    5.93
 -19  26   3   21.67    4.61
  26  -7   3   18.18    5.94
  16 -26  -3    1.68    4.39
 -26  10  -3   -4.90    5.32
  26 -10   3   -7.16    4.96
 -16  26   3    3.37    4.07
  13 -26  -3   45.29    6.66
 -26  13  -3   53.53    6.14
  26 -13   3   43.31    6.38
 -13  26   3   43.20    5.08
  10 -26  -3    8.56    4.54
 -26  16  -3    0.34    3.94
  26 -16   3    9.58    5.47
 -10  26   3    3.58    3.93
   7 -26  -3   22.97    5.61
 -26  19  -3   24.06    4.93
  26 -19   3   26.71    6.38
  -7  26   3   23.93    4.73
   4 -26  -3    2.13    4.91
 -26  22  -3   -7.53    4.67
  26 -22   3   -0.03    5.92
   1 -26  -3   11.13    6.64
  26 -25   3   22.97    7.80
  24 -27  -3   15.16    7.49
 -27   3  -3   37.83    7.20
  27  -3   3   42.10    8.21
  21 -27  -3   -5.68    5.28
 -21  27   3    2.65    4.33
  27  -6   3    3.89    6.16
  18 -27  -3    6.82    5.94
 -18  27   3   19.65    4.62
  27  -9   3   25.60    6.34
  15 -27  -3    7.29    5.02
 -27  12  -3   14.21    4.67
  27 -12   3   12.63    6.08
 -15  27   3   -1.26    4.02
 -27  15  -3    3.97    4.56
  12 -27  -3    0.41    4.63
 -12  27   3    8.30    4.33
  27 -15   3    8.35    5.59
   9 -27  -3    1.79    5.52
 -27  18  -3   -0.28    4.43
  27 -18   3   10.22    6.06
  -9  27   3    7.20    4.41
 -27  21  -3   10.42    4.98
   6 -27  -3   18.08    6.30
  27 -21   3   16.80    6.09
   3 -27  -3    2.75    6.92
  27 -24   3   15.93    6.45
  20 -28  -3    5.68    6.56
 -20  28   3   -1.54    5.13
  28  -8   3   -5.46    6.42
  17 -28  -3   20.47    6.80
  28 -11   3   -3.31    6.05
 -17  28   3   11.03    4.69
  14 -28  -3   13.27    5.51
 -28  14  -3    0.13    4.56
  28 -14   3    3.88    6.14
 -14  28   3    6.75    4.78
 -28  17  -3    9.46    5.07
  11 -28  -3   23.35    5.98
 -11  28   3   13.64    4.84
  28 -17   3    3.74    6.26
   8 -28  -3    1.84    5.99
 -28  20  -3    8.51    5.03
  28 -20   3    7.62    6.83
  19 -29  -3   -3.91    7.08
  29 -10   3    0.95    6.98
  16 -29  -3    0.70    5.79
 -16  29   3   14.37    6.86
  29 -13   3    1.55    6.73
 -29  16  -3   -2.28    5.13
  13 -29  -3   -1.57    6.22
 -13  29   3    1.96    5.27
  29 -16   3   12.15    6.00
  10 -29  -3   -3.12    6.27
  29 -19   3    8.01    7.23
 -10  29   3   -0.84    6.35
   0   1  -4    2.58    0.38
  -1   0  -4    3.28    0.62
   0   1  -4    2.29    0.60
   1  -1  -4    1.97    0.52
   0  -1   4    3.78    0.66
   3  -2  -4   28.96    1.32
  -2  -1  -4   29.98    1.45
   3  -2  -4   27.17    1.16
  -1   3  -4   28.41    1.25
   3  -2  -4   30.07    1.44
  -3   2   4   28.16    1.34
   2   1   4   29.12    1.41
   2   1   4   30.63    1.46
   1  -3   4   30.94    1.20
   2   0  -4  477.75   11.75
   0  -2  -4  506.63   11.85
   0  -2  -4  475.13   11.59
  -2   2  -4  489.33   11.38
   2   0  -4  442.34   11.04
   2   0  -4  492.23   11.59
   2  -2   4  482.96   11.59
  -2   0   4  464.83   11.71
   0   2   4  472.96   11.62
  -3  -2  -4    6.22    0.81
   5  -3  -4    7.92    0.94
   5  -3  -4    6.49    0.82
   5  -3  -4    6.63    0.94
  -2   5  -4    6.40    0.80
   3   2   4    5.64    0.74
   2  -5   4    6.99    0.86
   3   2   4    4.65    0.39
  -5   3   4    7.76    0.93
   3   2   4    7.24    1.03
   2  -3  -4   92.26    3.03
   2  -3  -4   92.50    2.85
   2  -3  -4   95.44    2.86
  -3   1  -4   92.62    2.47
  -3   1  -4   93.74    3.15
  -2   3   4   93.80    2.74
   3  -1   4   96.09    3.04
  -1  -2   4   94.56    3.11
  -2   3   4   92.56    3.00
   3  -1   4  103.67    3.17
  -1  -2   4   92.28    2.41
   4  -1  -4    0.87    0.38
   4  -1  -4    0.72    0.47
  -3   4  -4    0.18    0.37
  -1  -3  -4    0.53    0.48
   4  -1  -4    0.97    0.49
  -1  -3  -4    0.22    0.44
   3  -4   4    0.88    0.47
   1   3   4    0.68    0.44
  -4   1   4   -0.50    0.35
   1   3   4    0.27    0.55
   1   3   4    0.00    0.21
  -3   7  -4    0.39    0.57
   7  -4  -4   -0.41    0.63
   7  -4  -4    1.06    0.71
  -4  -3  -4    0.38    0.65
   7  -4  -4   -0.13    0.69
  -4  -3  -4    0.75    0.66
   4   3   4   -0.23    0.68
   3  -7   4    0.49    0.68
   3  -7   4   -0.28    0.60
  -7   4   4   -0.01    0.48
  -7   4   4   -0.02    0.64
   4   3   4    0.57    0.53
   4   3   4    0.43    0.38
   4  -4  -4  834.66   19.62
   0   4  -4  780.17   19.41
  -4   0  -4  780.60   18.83
   4  -4  -4  811.20   19.49
  -4   0  -4  824.08   19.54
   4   0   4  810.75   19.41
   0  -4   4  823.93   19.19
  -4   4   4  800.99   19.46
   4   0   4  839.27   19.82
  -4   3  -4    0.61    0.36
   3   1  -4    0.36    0.42
   1  -4  -4   -0.67    0.45
   3   1  -4   -0.30    0.25
   3   1  -4    1.41    0.53
   1  -4  -4    0.42    0.52
   4  -3   4   -0.31    0.54
  -3  -1   4    0.31    0.45
  -1   4   4    0.08    0.31
   4  -3   4    0.14    0.52
  -1   4   4    0.03    0.44
   6  -2  -4  732.77   17.73
  -2  -4  -4  715.59   17.49
  -4   6  -4  728.35   17.42
   6  -2  -4  709.46   17.28
  -2  -4  -4  727.68   17.75
   6  -2  -4  723.26   17.33
   4  -6   4  723.41   17.59
   2   4   4  729.89   17.88
  -6   2   4  666.30   17.21
   4  -6   4  728.58   17.71
   2   4   4  708.71   16.81
   2   4   4  725.22   17.38
  -5  -4  -4    1.93    0.91
  -4   9  -4    3.00    0.86
  -5  -4  -4    1.27    0.71
   9  -5  -4    1.34    0.90
   9  -5  -4    3.43    1.10
   5   4   4    2.06    0.59
   5   4   4    2.41    0.67
  -9   5   4    1.51    0.63
   4  -9   4    2.80    0.95
   4  -9   4    2.81    0.93
  -9   5   4    2.08    0.91
   5   4   4    3.50    1.13
  -1   6  -4   39.97    1.79
  -5  -1  -4   37.89    1.37
   6  -5  -4   39.06    1.98
   6  -5  -4   39.09    1.92
  -5  -1  -4   36.80    1.73
   1  -6   4   33.62    1.70
  -6   5   4   36.76    2.12
   1  -6   4   38.13    1.78
   5   1   4   38.43    1.40
   5   1   4   39.45    1.67
  -6   5   4   38.16    1.88
   2   3  -4    8.29    0.91
   3  -5  -4    8.22    1.02
  -5   2  -4    7.14    0.64
   3  -5  -4    9.25    1.11
  -3   5   4    6.38    0.72
  -3   5   4    8.36    1.02
   5  -2   4    9.00    1.11
  -2  -3   4    6.46    0.64
   5  -2   4    8.00    1.05
   5   0  -4    0.16    0.51
  -5   5  -4    0.80    0.51
   0  -5  -4    0.76    0.64
   5   0  -4    0.91    0.55
   5   0  -4    0.71    0.46
   0   5   4   -0.36    0.46
  -5   0   4    0.40    0.44
   5  -5   4    0.55    0.58
   0   5   4    0.27    0.35
   5  -5   4    0.20    0.62
  -3  -5  -4    3.60    0.90
  -3  -5  -4    5.16    1.06
   8  -3  -4    4.78    0.94
   8  -3  -4    5.94    1.10
   8  -3  -4    4.33    0.88
  -5   8  -4    3.76    0.91
   5  -8   4    5.42    1.05
  -8   3   4    5.08    0.74
  -8   3   4    4.29    0.97
   3   5   4    4.90    1.07
   5  -8   4    5.04    1.15
   3   5   4    4.80    0.63
  11  -6  -4    4.02    1.42
  -5  11  -4    4.20    1.09
  -6  -5  -4    6.79    1.11
  11  -6  -4    1.57    1.02
  -6  -5  -4    2.86    1.06
   6   5   4    5.19    0.90
   5 -11   4    4.84    1.32
   6   5   4    4.71    0.87
   6   5   4    3.77    1.38
   5 -11   4    3.77    1.21
 -11   6   4    3.56    1.17
 -11   6   4    4.12    0.92
   8  -6  -4  702.97   17.78
  -6  -2  -4  700.44   17.19
   8  -6  -4  656.13   17.50
  -2   8  -4  710.31   17.56
  -8   6   4  704.65   17.72
   6   2   4  699.09   18.06
  -8   6   4  694.56   17.47
   6   2   4  748.30   16.92
   2  -8   4  750.97   17.72
   6   2   4  709.59   16.87
   1   5  -4    0.93    0.55
  -6   1  -4    1.75    0.45
   5  -6  -4    1.28    0.75
   5  -6  -4    1.74    0.94
   6  -1   4    1.30    0.73
  -1  -5   4    2.34    0.63
  -5   6   4    1.02    0.62
   6  -1   4    0.64    0.64
  -5   6   4    1.38    0.59
   2  -6  -4  619.10   15.51
   2  -6  -4  610.41   15.15
   4   2  -4  607.80   14.93
   4   2  -4  610.55   14.49
  -4  -2   4  607.04   14.42
  -4  -2   4  544.55   15.03
   6  -4   4  573.09   15.69
  -2   6   4  613.27   14.62
  -2   6   4  658.38   15.28
   7  -1  -4    1.06    0.62
  -1  -6  -4    0.14    0.71
  -1  -6  -4    1.44    0.77
   7  -1  -4    1.21    0.70
  -6   7  -4    0.09    0.60
   7  -1  -4    0.31    0.66
  -7   1   4    1.11    0.47
   6  -7   4    0.07    0.80
   1   6   4    1.44    0.68
   1   6   4    0.48    0.49
   6  -7   4    0.99    0.77
  10  -4  -4  336.94   10.82
  -6  10  -4  357.75   10.13
  -4  -6  -4  336.23    9.85
  10  -4  -4  349.18    9.66
  -4  -6  -4  344.92    9.31
   6 -10   4  346.04    9.95
   4   6   4  334.88    9.08
   4   6   4  356.19    9.07
   6 -10   4  352.46    9.75
   4   6   4  351.88   10.02
 -10   4   4  348.14    8.95
 -10   4   4  344.03   10.57
  -7  -6  -4    0.28    1.10
  -6  13  -4    1.16    1.01
  -7  -6  -4    0.34    1.09
  13  -7  -4    1.48    1.62
 -13   7   4    0.18    0.85
   7   6   4   -0.49    0.84
 -13   7   4    1.21    1.22
   6 -13   4    3.47    1.62
   7   6   4    0.62    1.29
   6 -13   4   -0.17    1.34
   7   6   4    0.86    0.90
  -3  10  -4    4.16    1.01
  10  -7  -4    5.72    1.28
   7   3   4    5.44    0.75
 -10   7   4    3.56    1.01
   7   3   4    7.61    1.49
   3 -10   4    5.01    1.25
   3 -10   4    6.79    1.29
 -10   7   4    4.17    0.93
   7  -7  -4    5.07    1.10
   7  -7  -4    6.17    1.22
   0   7  -4    5.69    0.94
  -7   0  -4    4.67    0.91
  -7   0  -4    3.47    0.67
   7   0   4    5.14    0.81
   7   0   4    5.82    0.84
   0  -7   4    3.80    0.87
   0  -7   4    3.66    0.84
  -7   7   4    4.53    0.97
   7   0   4    3.52    1.13
  -7   7   4    4.39    0.98
  -7   3  -4    0.97    0.53
   3   4  -4    1.90    0.68
   4  -7  -4    2.44    0.97
   4  -7  -4    1.74    0.83
  -4   7   4    2.07    0.63
   7  -3   4    1.43    0.85
   7  -3   4    1.79    0.83
  -4   7   4    1.23    0.68
  -3  -4   4    1.07    0.54
   1  -7  -4    0.05    0.86
   6   1  -4    0.82    0.71
   6   1  -4    0.44    0.63
  -7   6  -4   -0.84    0.50
   1  -7  -4    1.78    0.77
  -1   7   4    0.25    0.49
  -1   7   4   -0.29    0.63
   7  -6   4    1.09    0.66
   7  -6   4    0.00    0.74
  -6  -1   4    0.10    0.43
   9  -2  -4   -0.31    0.82
   9  -2  -4   -0.55    0.88
  -2  -7  -4    0.66    0.83
  -7   9  -4   -0.07    0.72
  -2  -7  -4    0.07    0.84
   7  -9   4   -0.23    0.85
   2   7   4    0.62    0.57
  -9   2   4    0.31    0.46
   7  -9   4    0.42    1.00
   2   7   4    1.93    0.81
  12  -5  -4    6.04    1.49
  -5  -7  -4    7.03    1.49
  -7  12  -4    4.19    1.21
  12  -5  -4    6.22    1.63
  -5  -7  -4    5.28    1.20
   7 -12   4    7.91    1.89
 -12   5   4    5.43    1.38
   5   7   4    7.20    1.15
   5   7   4    4.55    0.96
 -12   5   4    5.49    0.91
   7 -12   4    3.77    1.72
  -7  15  -4   -1.10    1.16
  -8  -7  -4    2.65    1.31
  -8  -7  -4    3.53    1.73
  15  -8  -4    3.92    1.83
 -15   8   4    1.50    1.10
   7 -15   4    5.70    2.46
   8   7   4    3.85    1.24
   8   7   4    1.24    1.52
   7 -15   4    1.88    1.61
 -15   8   4    1.59    1.61
  -8  -4  -4  267.58    7.40
  -4  12  -4  273.42    8.16
  -8  -4  -4  259.76    8.38
  12  -8  -4  269.77    8.45
   8   4   4  268.67    7.36
   4 -12   4  286.08    8.37
   4 -12   4  274.00    8.38
   8   4   4  272.30    8.72
 -12   8   4  275.04    7.86
   8   4   4  258.99    6.76
 -12   8   4  269.09    8.35
  -8  -1  -4    0.94    0.93
   9  -8  -4   -1.33    0.93
  -1   9  -4    2.03    0.83
  -9   8   4    0.65    0.83
   8   1   4   -0.18    0.93
   8   1   4    0.01    0.58
   1  -9   4   -0.43    0.85
  -9   8   4    0.62    0.85
   1  -9   4    0.49    0.85
  -8   2  -4  619.16   15.43
   6  -8  -4  659.56   16.27
   2   6  -4  655.22   15.96
   6  -8  -4  612.79   16.24
  -2  -6   4  637.61   15.65
  -2  -6   4  610.64   15.51
   8  -2   4  664.71   15.70
  -6   8   4  614.45   16.79
   8  -2   4  652.13   16.51
  -6   8   4  618.82   15.85
   5   3  -4    1.38    0.64
  -8   5  -4    0.66    0.54
   3  -8  -4    1.33    0.88
   3  -8  -4    0.29    0.90
   5   3  -4   -0.40    0.62
  -5  -3   4    1.44    0.68
   8  -5   4    0.90    0.86
  -3   8   4    0.65    0.74
   8  -5   4   -0.44    0.62
  -3   8   4    1.61    0.67
  -5  -3   4    0.46    0.53
   0  -8  -4  464.90   12.66
   8   0  -4  487.29   12.48
   8   0  -4  467.52   12.09
   0  -8  -4  477.93   12.46
  -8   8  -4  469.51   12.21
   0   8   4  476.57   12.28
  -8   0   4  459.18   11.32
   8  -8   4  458.67   12.30
   8  -8   4  471.23   12.81
   0   8   4  478.26   11.76
  -3  -8  -4   -0.40    1.10
  11  -3  -4    1.16    1.13
  -8  11  -4    0.57    0.88
  -3  -8  -4   -2.67    1.16
  11  -3  -4   -1.21    1.00
   3   8   4   -1.25    0.91
   8 -11   4    0.42    1.24
   8 -11   4    2.07    1.36
   3   8   4    1.20    0.74
 -11   3   4    0.27    0.57
 -11   3   4    1.63    1.01
  14  -6  -4  251.07    8.57
  -8  14  -4  232.76    8.61
  -6  -8  -4  248.00    7.38
  14  -6  -4  243.08    8.09
  -6  -8  -4  254.06    8.36
   8 -14   4  238.58    8.42
 -14   6   4  239.00    8.01
 -14   6   4  255.14    6.95
   6   8   4  243.59    6.92
   6   8   4  244.88    6.97
  -8  17  -4   -1.13    1.43
  17  -9  -4   -2.84    1.94
  -9  -8  -4    0.08    1.48
  -9  -8  -4    2.08    1.76
 -17   9   4    2.20    1.34
   8 -17   4   -3.34    1.89
 -17   9   4   -1.60    1.57
   9   8   4   -0.48    1.44
  -5  14  -4   12.25    2.01
  -9  -5  -4   11.67    1.38
  14  -9  -4   11.11    2.22
  -9  -5  -4   10.83    2.11
   5 -14   4    8.10    1.80
 -14   9   4   10.50    2.17
   5 -14   4   11.56    2.20
 -14   9   4   10.72    1.57
   9   5   4   10.02    1.46
   9   5   4   10.52    2.10
  -9  -2  -4    0.30    0.83
  -2  11  -4   -0.08    0.84
  -9  -2  -4   -0.25    0.84
  11  -9  -4   -0.33    1.05
 -11   9   4    0.59    0.94
   9   2   4    0.63    0.84
 -11   9   4   -1.34    0.91
   2 -11   4    0.34    1.14
   8  -9  -4    1.49    0.98
   8  -9  -4    1.21    1.31
   1   8  -4    3.42    0.95
  -9   1  -4    1.65    0.74
  -1  -8   4    0.34    0.86
   9  -1   4    2.41    0.76
   9  -1   4    0.70    1.14
  -1  -8   4    2.78    0.88
  -8   9   4    3.35    1.05
  -8   9   4    2.04    0.91
   5  -9  -4    1.80    0.92
  -9   4  -4    0.34    0.65
   4   5  -4    1.52    0.78
   5  -9  -4    0.82    1.14
  -4  -5   4    0.67    0.69
   9  -4   4    0.44    0.90
  -4  -5   4    0.83    0.54
  -5   9   4    1.97    0.89
   9  -4   4   -0.52    0.95
  -5   9   4    0.91    0.76
   2  -9  -4    0.86    0.96
   7   2  -4    0.11    0.74
  -9   7  -4    0.12    0.70
   7   2  -4   -1.05    0.73
   2  -9  -4   -1.19    0.80
   9  -7   4   -0.11    0.90
  -7  -2   4    0.34    0.51
  -2   9   4    1.25    0.68
  -1  -9  -4    2.80    1.07
  10  -1  -4    0.28    0.95
  10  -1  -4    1.75    1.06
  -9  10  -4    0.30    0.93
  -1  -9  -4    1.09    1.01
   1   9   4    1.23    0.75
   9 -10   4    0.24    1.10
 -10   1   4    0.87    0.47
   1   9   4    0.50    0.94
  13  -4  -4    7.72    1.77
  -4  -9  -4   11.17    1.99
  -9  13  -4   11.20    2.97
  -4  -9  -4    8.66    1.56
  13  -4  -4   11.00    1.88
   4   9   4    9.53    1.27
   9 -13   4    5.82    1.58
   4   9   4   10.56    1.52
 -13   4   4    8.33    1.02
 -13   4   4    9.61    1.76
  -7  -9  -4    2.27    2.13
  -7  -9  -4    5.26    1.59
  16  -7  -4    3.25    1.92
  -9  16  -4    3.96    1.65
 -16   7   4    4.13    1.15
   7   9   4    4.09    1.43
 -16   7   4    3.26    1.64
 -10  -9  -4    6.51    2.01
  19 -10  -4    2.12    2.49
 -10  -9  -4    8.15    2.47
  -9  19  -4    4.88    2.04
   9 -19   4    8.36    2.75
 -19  10   4    6.74    1.72
 -19  10   4   11.86    2.62
 -10  -6  -4  258.46    7.25
  16 -10  -4  277.88   10.50
 -10  -6  -4  217.85    9.55
  -6  16  -4  242.80    8.30
   6 -16   4  252.51    8.86
 -16  10   4  253.10    8.58
  10   6   4  240.92   10.00
  10   6   4  266.24    7.61
 -16  10   4  256.26    7.83
  13 -10  -4    1.64    1.51
 -10  -3  -4    1.85    1.00
   3 -13   4    5.70    1.61
 -13  10   4    0.74    1.17
   3 -13   4    0.89    1.57
  10   3   4    0.82    1.33
  10   3   4    2.89    1.12
 -13  10   4    2.09    1.17
   0  10  -4  250.70    7.52
 -10   0  -4  247.08    6.94
  10 -10  -4  246.54    7.96
  10   0   4  256.02    6.71
 -10  10   4  247.44    7.67
 -10  10   4  248.87    7.64
   0 -10   4  255.50    7.56
   0 -10   4  247.23    7.37
  10   0   4  241.58    7.11
   7 -10  -4    0.53    1.38
 -10   3  -4    0.59    0.70
   7 -10  -4    0.62    1.07
   3   7  -4    0.34    0.91
  10  -3   4    1.82    1.08
  -7  10   4    0.23    0.88
  -3  -7   4    0.98    0.72
  -3  -7   4    1.34    0.86
  10  -3   4    0.12    0.95
  -7  10   4   -0.32    0.82
   6   4  -4  372.82   10.30
   4 -10  -4  413.69   10.87
 -10   6  -4  383.13   10.13
   4 -10  -4  363.24   10.77
  -4  10   4  376.93   10.53
  -6  -4   4  385.55    9.56
  -4  10   4  383.82   10.09
  10  -6   4  368.94   10.92
  -6  -4   4  378.94    9.84
   1 -10  -4    3.75    1.33
 -10   9  -4    3.04    1.06
   1 -10  -4    3.39    1.31
   9   1  -4    4.82    1.23
   9   1  -4    6.03    1.16
  -9  -1   4    4.42    0.50
  -1  10   4    2.85    0.93
  -1  10   4    3.04    1.04
  10  -9   4    4.62    1.34
  12  -2  -4  223.47    7.42
 -10  12  -4  222.51    7.10
  -2 -10  -4  217.94    7.14
  -2 -10  -4  218.36    7.56
  12  -2  -4  228.92    7.19
 -12   2   4  224.88    5.70
   2  10   4  230.55    6.52
 -12   2   4  219.42    7.34
  10 -12   4  229.14    7.77
  15  -5  -4    5.05    1.84
 -10  15  -4    3.44    1.40
  15  -5  -4    3.60    1.77
  -5 -10  -4   -0.02    2.03
  -5 -10  -4    3.97    1.60
 -15   5   4    3.81    0.93
 -15   5   4    6.52    1.71
  10 -15   4    5.78    1.84
   5  10   4    3.13    1.27
  -8 -10  -4  138.34    6.66
  18  -8  -4  145.08    6.63
 -10  18  -4  143.70    6.09
  -8 -10  -4  140.13    6.50
 -18   8   4  141.98    4.93
 -18   8   4  142.84    6.40
  10 -18   4  152.27    7.07
   8  10   4  148.08    5.38
 -10  21  -4   -1.85    2.07
  21 -11  -4   -2.23    2.91
 -11 -10  -4   -1.02    2.87
 -21  11   4    6.19    2.39
  10 -21   4    1.81    2.41
 -11  -7  -4    1.14    2.04
 -11  -7  -4    2.80    1.47
  18 -11  -4   -0.72    2.33
  -7  18  -4   -1.87    1.59
  11   7   4    4.75    2.43
   7 -18   4    3.51    1.99
 -18  11   4    2.15    1.54
 -18  11   4    0.67    1.78
  11   7   4   -1.06    1.73
  -4  15  -4   -0.72    1.14
 -11  -4  -4    0.66    1.00
 -11  -4  -4   -2.45    1.56
  15 -11  -4   -1.37    1.96
 -15  11   4   -1.56    1.28
  11   4   4   -0.09    1.25
  11   4   4   -2.23    1.81
   4 -15   4    0.81    1.60
 -15  11   4    1.44    1.45
  -1  12  -4    2.79    1.16
 -11  -1  -4    3.00    1.10
  12 -11  -4    3.25    1.57
  11   1   4    2.31    1.52
 -12  11   4    1.92    1.28
   1 -12   4    0.86    1.29
  11   1   4    2.02    1.18
   1 -12   4    3.65    1.46
   2   9  -4    4.68    1.18
 -11   2  -4    4.82    1.07
   9 -11  -4    6.16    1.70
  -2  -9   4    4.56    1.07
  11  -2   4    4.69    1.43
  11  -2   4    5.59    1.02
  -2  -9   4    5.56    1.18
  -9  11   4    6.07    1.43
  -9  11   4    4.75    1.21
 -11   5  -4    2.33    0.90
   6 -11  -4    1.90    1.15
   5   6  -4    2.12    0.96
   6 -11  -4    0.90    1.37
  -5  -6   4    2.53    0.74
  11  -5   4    3.61    1.38
  -5  -6   4    2.14    0.97
  11  -5   4    1.23    1.20
   8   3  -4    6.03    1.24
   3 -11  -4    7.90    1.61
   8   3  -4    7.55    1.31
 -11   8  -4    7.07    1.49
   3 -11  -4    7.54    1.60
  -8  -3   4    7.67    1.15
  11  -8   4    8.84    1.73
  -3  11   4    8.56    1.25
  -8  -3   4    9.14    0.74
  -8  -3   4    8.55    0.97
  -3  11   4    7.16    1.52
 -11  11  -4   -0.13    0.95
   0 -11  -4   -0.44    1.34
  11   0  -4   -1.44    1.16
  11   0  -4    0.27    1.09
   0 -11  -4    1.18    1.25
   0  11   4    1.07    0.93
   0  11   4    0.90    1.23
  11 -11   4   -0.60    1.27
  14  -3  -4    1.68    1.58
 -11  14  -4    0.85    1.23
  -3 -11  -4    2.63    1.48
  14  -3  -4    1.33    1.53
  -3 -11  -4   -1.09    1.46
   3  11   4    1.65    1.23
 -14   3   4    1.18    0.61
 -14   3   4    3.07    1.45
  -6 -11  -4    0.84    1.84
 -11  17  -4    1.41    1.62
   6  11   4    4.68    1.58
  11 -17   4    4.61    2.23
 -17   6   4    2.55    1.81
  20  -9  -4   -0.39    2.59
 -11  20  -4    3.12    1.96
  -9 -11  -4    3.76    2.54
  11 -20   4   -1.70    2.26
 -20   9   4    0.15    2.03
 -12 -11  -4    2.72    3.47
  23 -12  -4    1.68    3.67
 -11  23  -4    3.64    4.29
  11 -23   4    1.41    3.30
 -23  12   4   -0.91    3.21
  -8  20  -4  111.26    5.62
 -12  -8  -4  119.11    4.05
  20 -12  -4  114.93    6.72
 -12  -8  -4  116.84    6.14
 -20  12   4  109.43    5.77
   8 -20   4  104.17    6.42
 -12  -5  -4    0.49    1.82
  -5  17  -4   -0.11    1.53
  17 -12  -4    3.21    2.15
  12   5   4    0.22    1.61
 -17  12   4   -0.46    1.56
   5 -17   4   -1.25    1.91
 -17  12   4    1.11    1.62
  12   5   4   -0.44    1.92
  14 -12  -4  201.57    7.86
  -2  14  -4  209.30    7.14
 -12  -2  -4  210.95    6.50
  12   2   4  214.74    6.71
 -14  12   4  199.48    7.31
   2 -14   4  215.35    7.39
 -14  12   4  209.79    7.11
  12   2   4  211.36    8.80
   1  11  -4    2.60    1.14
  11 -12  -4    1.72    1.36
 -12   1  -4    1.70    1.05
 -11  12   4    1.23    1.33
  12  -1   4    1.34    1.57
  -1 -11   4    2.87    1.22
 -11  12   4    1.19    1.51
  -1 -11   4   -0.27    1.17
   4   8  -4  316.44    9.01
 -12   4  -4  309.38    8.63
   8 -12  -4  306.76    9.74
  -4  -8   4  302.06    8.47
  -8  12   4  306.67    9.37
  -4  -8   4  308.06    8.82
  12  -4   4  322.99    8.69
  12  -4   4  311.43    9.88
  -8  12   4  324.19    9.12
   5 -12  -4    1.44    1.14
   5 -12  -4   -2.20    1.56
   7   5  -4    0.10    0.92
 -12   7  -4   -0.01    0.86
  -7  -5   4    0.90    0.89
  -7  -5   4    0.99    0.81
  -5  12   4   -0.07    0.95
  -5  12   4    2.13    1.22
  -7  -5   4    0.27    0.57
  12  -7   4   -2.39    1.12
   2 -12  -4  325.97    9.57
 -12  10  -4  303.37    8.92
  10   2  -4  307.14    9.09
  10   2  -4  296.48    8.90
   2 -12  -4  304.56    9.67
  -2  12   4  311.29    9.43
  -2  12   4  299.23    9.06
  12 -10   4  296.62    9.73
  -1 -12  -4    3.45    1.60
  -1 -12  -4    3.11    1.56
  13  -1  -4    1.87    1.46
  12 -13   4    2.48    1.64
 -13   1   4   -0.43    2.87
   1  12   4    2.37    1.53
   1  12   4    4.20    1.23
  16  -4  -4  196.32    7.42
 -12  16  -4  197.44    7.15
  -4 -12  -4  188.79    7.56
  16  -4  -4  194.20    7.74
 -16   4   4  205.82    7.50
  12 -16   4  206.35    8.14
   4  12   4  202.93    6.38
  -7 -12  -4    0.05    2.32
  19  -7  -4    1.36    2.56
 -12  19  -4    4.45    1.91
  12 -19   4    1.55    2.46
 -19   7   4    2.56    2.24
   7  12   4    2.29    1.97
 -10 -12  -4  103.32    6.66
 -12  22  -4   92.54    5.69
  22 -10  -4   95.39    6.90
  12 -22   4   95.97    6.92
 -22  10   4  102.39    6.01
 -12  25  -4   -4.98    3.02
  25 -13  -4   -3.88    4.46
 -13 -12  -4    8.21    4.71
  12 -25   4   -2.19    3.69
 -25  13   4   10.74    3.68
 -13  -9  -4   -1.62    3.08
  22 -13  -4    4.55    3.33
  -9  22  -4   -0.15    2.63
   9 -22   4   -1.84    3.16
 -22  13   4    2.93    3.05
  -6  19  -4    0.13    1.76
  19 -13  -4   -0.65    2.55
 -13  -6  -4    1.23    2.28
  13   6   4    0.23    2.62
 -19  13   4    0.35    2.06
 -19  13   4    1.51    1.92
   6 -19   4   -1.32    2.15
 -13  -3  -4    4.45    2.02
  -3  16  -4    2.17    1.56
  16 -13  -4    6.51    2.10
 -13  -3  -4    3.50    1.65
   3 -16   4    4.20    1.87
  13   3   4    3.06    1.78
  13   3   4    3.59    2.16
 -16  13   4    0.72    1.75
 -16  13   4    1.49    1.71
  13 -13  -4    2.97    3.35
 -13   0  -4    2.80    1.33
   0 -13   4    1.45    1.67
  13   0   4    0.41    1.55
   0 -13   4    2.74    1.61
 -13  13   4   -0.09    1.30
  13   0   4    4.08    1.72
 -13  13   4    3.96    1.68
 -13   3  -4    3.17    1.17
  10 -13  -4    1.98    1.53
   3  10  -4    2.64    1.17
 -10  13   4    2.87    2.22
  -3 -10   4    3.83    1.28
  13  -3   4    2.87    1.59
  -3 -10   4    3.70    1.35
 -10  13   4    3.35    1.45
   7 -13  -4    1.30    1.72
   6   7  -4   -0.28    0.97
   7 -13  -4   -0.02    1.31
 -13   6  -4    0.68    1.04
  -6  -7   4    0.79    1.07
  13  -6   4    2.55    1.50
  -7  13   4    0.05    0.93
  13  -6   4    2.20    1.74
  -7  13   4    0.59    1.22
   4 -13  -4    3.62    1.98
   9   4  -4    4.28    1.27
   4 -13  -4    3.18    1.43
 -13   9  -4    6.64    1.36
   9   4  -4    5.28    1.47
  -4  13   4    4.38    1.29
  -4  13   4    4.39    1.35
  -9  -4   4    3.41    1.16
  -9  -4   4    4.78    0.75
  -9  -4   4    4.81    0.62
  13  -9   4    2.93    1.65
  12   1  -4   11.92    1.97
   1 -13  -4    9.58    2.05
  12   1  -4   14.55    2.04
 -13  12  -4   13.44    1.98
   1 -13  -4   13.16    2.40
  -1  13   4   11.69    1.98
  13 -12   4   12.72    3.72
  -1  13   4   14.99    1.69
  15  -2  -4    2.96    1.81
  -2 -13  -4    3.26    1.82
  15  -2  -4    4.68    1.90
 -13  15  -4    8.69    1.81
 -15   2   4    5.99    1.76
  13 -15   4    3.07    1.84
   2  13   4    4.90    1.48
  18  -5  -4    0.56    2.27
  -5 -13  -4    0.69    1.98
 -13  18  -4    1.74    2.07
  18  -5  -4    3.35    2.74
  13 -18   4   -0.11    2.35
 -18   5   4    0.78    2.07
   5  13   4    3.35    1.76
  -8 -13  -4    2.94    2.89
  21  -8  -4    5.28    3.05
 -13  21  -4    3.57    2.47
  13 -21   4    5.21    3.23
 -21   8   4    0.31    2.70
  24 -11  -4    1.52    4.14
 -13  24  -4   -1.65    2.68
 -11 -13  -4   -0.36    3.88
 -24  11   4    2.69    3.50
  13 -24   4   -1.57    3.45
 -14 -13  -4    2.83    5.18
 -13  27  -4    6.08    4.34
  27 -14  -4   -3.12    5.55
  13 -27   4   -1.91    5.41
 -27  14   4   21.24    4.97
 -14 -10  -4   42.87    5.72
 -10  24  -4   55.81    5.59
  24 -14  -4   47.23    6.13
 -24  14   4   44.75    5.51
  10 -24   4   40.39    5.36
 -14  -7  -4    5.21    2.97
  -7  21  -4    6.49    2.58
  21 -14  -4    2.02    3.15
   7 -21   4    3.53    3.00
  14   7   4    3.98    2.95
 -21  14   4    1.51    2.75
 -14  -4  -4  133.79    6.55
 -14  -4  -4  132.76    5.46
  18 -14  -4  136.63    6.76
  -4  18  -4  140.80    6.13
   4 -18   4  131.24    6.51
  14   4   4  136.09    7.03
  14   4   4  130.12    5.79
 -18  14   4  143.67    6.00
 -18  14   4  122.79    6.06
  -1  15  -4   -0.72    1.34
  15 -14  -4   -0.77    2.04
 -14  -1  -4    1.32    1.43
  14   1   4    1.55    1.84
  14   1   4    2.15    1.76
 -15  14   4   -0.07    1.53
   1 -15   4    2.81    2.23
   2  12  -4  223.29    9.22
  12 -14  -4  246.25    8.86
 -14   2  -4  250.11    7.46
  -2 -12   4  247.43    8.07
 -12  14   4  242.18    8.08
 -12  14   4  255.77    8.38
  14  -2   4  256.34   10.10
   9 -14  -4    5.92    1.77
   5   9  -4    5.69    1.53
 -14   5  -4    3.17    1.23
  14  -5   4    2.47    1.67
  -9  14   4    5.69    1.83
  -5  -9   4    6.42    1.42
  -9  14   4    4.74    1.55
  14  -5   4    2.63    1.65
  -5  -9   4    3.87    1.42
   6 -14  -4  299.16    9.56
   6 -14  -4  270.31    9.19
   8   6  -4  278.35    8.54
 -14   8  -4  288.51    8.49
  -6  14   4  275.77    8.41
  -8  -6   4  280.33    7.80
  -6  14   4  257.68    9.55
  -8  -6   4  288.29    7.34
  -8  -6   4  284.48    8.32
   3 -14  -4   10.96    2.53
  11   3  -4    8.24    2.69
 -14  11  -4    9.65    1.80
  11   3  -4    7.80    1.83
   3 -14  -4    6.68    2.16
  14 -11   4    9.01    2.06
 -11  -3   4    4.97    1.43
  -3  14   4    7.28    1.50
  14   0  -4  199.22    7.02
  14   0  -4  186.33    7.06
 -14  14  -4  187.63    6.92
   0 -14  -4  197.57    7.68
   0  14   4  198.18    6.39
  14 -14   4  186.15    7.69
 -14  17  -4    1.20    1.68
  17  -3  -4    0.72    2.11
  17  -3  -4   -2.84    2.27
  -3 -14  -4    1.45    1.97
 -17   3   4    1.33    1.80
  14 -17   4    1.42    2.05
   3  14   4    1.72    1.88
  20  -6  -4   87.74    5.82
  -6 -14  -4   87.25    5.98
 -14  20  -4   82.12    5.07
 -20   6   4   87.21    5.36
  14 -20   4   89.25    5.94
  23  -9  -4    3.05    3.78
 -14  23  -4    1.81    2.85
  -9 -14  -4    7.44    3.50
 -23   9   4   -0.26    3.10
  14 -23   4    0.86    3.53
  26 -12  -4   54.35    7.03
 -12 -14  -4   52.52    6.47
 -14  26  -4   43.02    5.40
 -26  12   4   49.70    5.96
  14 -26   4   43.65    6.64
  29 -15  -4   -0.63    6.97
 -15 -14  -4   -6.68    6.04
  14 -29   4   -7.89    5.23
 -29  15   4    0.77    6.40
  26 -15  -4    4.45    5.34
 -11  26  -4    9.53    4.24
 -15 -11  -4   -5.43    4.30
 -26  15   4    1.89    4.16
  11 -26   4    5.22    4.25
 -15  -8  -4    1.98    3.40
  23 -15  -4   -1.16    3.82
 -23  15   4    3.27    3.89
   8 -23   4   -1.06    3.45
  20 -15  -4    1.69    2.99
  -5  20  -4    1.22    2.16
 -15  -5  -4   -1.56    2.47
   5 -20   4   -2.74    2.67
  15   5   4   -0.50    2.53
 -20  15   4    0.59    2.31
 -20  15   4    6.29    2.60
  17 -15  -4    8.10    2.72
 -15  -2  -4    4.10    1.89
  -2  17  -4    1.49    2.00
 -17  15   4    7.87    2.31
  15   2   4    8.67    2.36
 -17  15   4    8.04    2.55
   2 -17   4    5.77    2.50
  15   2   4    6.10    2.61
  14 -15  -4    1.27    1.92
   1  14  -4    2.43    1.72
 -15   1  -4    2.22    1.54
 -14  15   4   -0.84    1.70
  -1 -14   4    3.52    1.95
 -14  15   4    3.59    1.76
  15  -1   4   -1.96    2.00
 -15   4  -4    3.70    1.40
  15  -4   4    4.81    1.95
  -4 -11   4    3.58    1.48
 -11  15   4    5.01    1.72
 -11  15   4    0.98    1.37
  -4 -11   4    3.98    1.58
   8 -15  -4    0.56    1.75
   7   8  -4    1.84    1.67
 -15   7  -4   -0.32    1.27
  -8  15   4   -0.76    1.54
  15  -7   4    0.81    1.59
  -7  -8   4   -1.13    1.15
  -8  15   4   -0.05    1.16
  -7  -8   4    0.10    0.94
   5 -15  -4   -0.63    1.50
 -15  10  -4   -0.37    1.13
  10   5  -4   -0.89    1.34
  10   5  -4    1.02    1.50
  -5  15   4    4.31    2.51
 -10  -5   4   -0.48    0.51
  15 -10   4    0.03    2.02
  -5  15   4   -3.29    1.93
 -10  -5   4    0.44    1.28
  13   2  -4   -0.25    1.48
  13   2  -4   -1.25    1.70
   2 -15  -4    1.32    1.87
 -15  13  -4    1.07    1.42
  -2  15   4    2.08    1.61
 -13  -2   4    0.25    1.49
  15 -13   4    1.00    1.83
  -1 -15  -4   -2.57    2.04
  16  -1  -4   -2.62    1.92
 -15  16  -4    1.07    1.88
  16  -1  -4   -0.36    2.22
   1  15   4    2.26    1.58
 -16   1   4   -0.09    1.70
  15 -16   4    0.59    2.07
  19  -4  -4    4.43    2.56
  -4 -15  -4    4.13    2.79
  19  -4  -4    5.79    3.17
 -15  19  -4    4.63    2.31
   4  15   4    2.96    1.99
 -19   4   4    5.25    2.45
  15 -19   4    5.86    2.84
  22  -7  -4    3.74    3.43
  -7 -15  -4    6.81    3.42
 -15  22  -4   -3.26    2.44
 -22   7   4    2.42    3.05
  15 -22   4    1.55    3.67
  25 -10  -4   14.68    4.70
 -15  25  -4    0.20    3.79
 -25  10   4    6.31    3.98
  15 -25   4    9.34    4.77
  28 -13  -4   -3.74    6.10
 -13 -15  -4   -3.92    5.55
 -15  28  -4    1.27    4.94
  15 -28   4   -3.47    5.69
 -28  13   4    3.70    4.32
 -16 -12  -4   25.78    6.34
  28 -16  -4    8.10    6.44
 -12  28  -4   28.92    5.62
 -28  16   4   23.41    5.80
  12 -28   4   19.70    6.01
  -9  25  -4    8.11    3.48
  25 -16  -4    1.28    5.18
 -25  16   4    6.93    4.03
   9 -25   4   -5.23    4.40
  -6  22  -4   80.17    5.38
  22 -16  -4   86.01    7.16
 -16  -6  -4   79.45    6.27
   6 -22   4   75.38    6.54
  16   6   4   76.90    6.28
 -22  16   4   79.99    6.00
  19 -16  -4    2.96    2.96
 -16  -3  -4    3.26    2.58
  -3  19  -4   -3.47    2.19
   3 -19   4   -0.30    2.53
 -19  16   4   -0.98    2.33
 -19  16   4    2.91    2.21
  16   3   4    1.07    2.70
   0  16  -4  112.90    5.35
 -16   0  -4  115.44    4.76
  16 -16  -4  109.30    6.42
 -16  16   4  107.32    5.79
   0 -16   4  113.58    5.62
 -16  16   4  110.87    5.44
  16   0   4  106.84    5.95
  13 -16  -4    5.37    2.03
   3  13  -4    9.05    2.03
 -16   3  -4    6.85    1.78
  -3 -13   4   11.79    2.26
 -13  16   4    9.98    2.30
  16  -3   4    6.47    2.17
 -13  16   4    9.49    2.16
 -16   6  -4  164.00    5.80
  10 -16  -4  163.13    6.97
   6  10  -4  158.61    6.00
 -10  16   4  168.18    6.78
  -6 -10   4  159.40    5.94
 -10  16   4  150.07    5.91
  -6 -10   4  153.67    5.33
  16  -6   4  158.36    6.90
 -16   9  -4    3.26    1.99
   7 -16  -4    0.99    1.76
  -9  -7   4    0.81    1.20
  -9  -7   4    0.62    0.86
  -9  -7   4    1.16    1.48
  -7  16   4   -0.24    1.45
  16  -9   4   -0.30    1.88
  -7  16   4    4.14    2.07
  12   4  -4  184.49    7.14
 -16  12  -4  195.86    6.94
  12   4  -4  203.58    7.19
   4 -16  -4  198.19    7.92
  16 -12   4  194.64    8.17
 -12  -4   4  199.79    6.73
 -16  15  -4    3.04    1.66
  15   1  -4    3.95    2.10
  15   1  -4    4.61    2.27
   1 -16  -4    2.74    2.13
  -1  16   4    1.92    1.63
  16 -15   4    5.75    2.39
  -2 -16  -4  142.05    6.91
  18  -2  -4  135.80    6.72
 -16  18  -4  148.87    6.71
  18  -2  -4  144.54    6.97
 -18   2   4  145.04    6.81
  16 -18   4  143.63    7.65
   2  16   4  142.20    5.90
  -5 -16  -4    2.04    3.13
  21  -5  -4    1.73    3.15
 -16  21  -4    0.84    2.71
 -21   5   4    3.80    2.44
  16 -21   4    5.22    3.34
 -16  24  -4   47.94    5.07
  -8 -16  -4   49.94    6.42
  24  -8  -4   43.96    5.81
  16 -24   4   38.86    7.25
 -24   8   4   58.59    5.43
 -11 -16  -4   -0.05    4.99
  27 -11  -4   -7.54    5.45
 -16  27  -4   -5.78    4.22
  16 -27   4   -2.89    4.60
 -27  11   4    1.94    4.63
  27 -17  -4   12.92    5.91
 -10  27  -4    7.85    4.11
 -17 -10  -4   -3.81    5.07
  10 -27   4    2.46    5.10
 -27  17   4   -3.85    4.35
  -7  24  -4    2.29    3.37
  24 -17  -4   -9.91    4.64
 -17  -7  -4    7.33    4.05
   7 -24   4    2.78    4.03
 -24  17   4    5.73    3.46
 -17  -4  -4    3.33    3.08
  21 -17  -4    4.34    3.63
  -4  21  -4    4.87    2.75
  17   4   4    4.73    3.50
 -21  17   4   -2.25    4.36
 -21  17   4   -2.54    2.83
   4 -21   4    3.09    3.25
  -1  18  -4   -1.35    2.03
  18 -17  -4    1.22    2.82
  17   1   4    6.30    2.96
 -18  17   4   -3.72    2.43
   1 -18   4   -2.21    2.49
 -18  17   4   -1.46    2.20
  15 -17  -4    7.70    2.60
 -17   2  -4   12.52    2.19
   2  15  -4    9.04    2.09
 -15  17   4    9.90    2.49
 -15  17   4   11.53    2.83
  -2 -15   4    8.39    2.43
  17  -2   4    5.57    2.73
 -17   5  -4    1.12    1.60
   5  12  -4    0.37    1.77
  12 -17  -4   -0.38    1.90
  17  -5   4   -1.09    1.83
 -12  17   4   -2.94    2.24
  -5 -12   4    0.29    1.70
 -12  17   4   -3.00    1.66
 -17   8  -4    4.94    1.73
   9 -17  -4    6.82    2.37
   8   9  -4    3.51    1.62
  17  -8   4    3.47    2.09
  -9  17   4   -0.16    2.28
  -9  17   4   -1.30    1.65
  -8  -9   4    4.00    1.65
  -8  -9   4    3.66    1.66
  -8  -9   4    2.57    1.26
 -17  11  -4   -0.86    1.54
  11   6  -4    4.02    1.89
   6 -17  -4    3.14    2.34
  -6  17   4   -0.92    1.61
  17 -11   4    2.92    2.11
 -11  -6   4    3.34    1.81
  14   3  -4    5.81    2.33
  14   3  -4    2.92    2.14
 -17  14  -4    2.94    2.05
   3 -17  -4    5.30    2.31
  -3  17   4    2.89    1.80
 -14  -3   4    1.42    1.98
  17 -14   4    5.82    2.72
  17   0  -4    1.90    2.52
   0 -17  -4    2.00    2.54
  17   0  -4    2.06    2.68
 -17  17  -4    6.74    2.13
 -17   0   4    5.14    2.35
   0  17   4    4.20    1.94
  17 -17   4   -4.28    2.65
  20  -3  -4    1.33    3.41
  20  -3  -4   -3.76    3.06
 -17  20  -4    2.07    2.35
  -3 -17  -4   -6.42    2.38
  17 -20   4    2.21    3.33
   3  17   4    0.80    3.84
 -20   3   4    2.88    2.80
  23  -6  -4   12.46    4.27
  -6 -17  -4   16.79    3.85
 -17  23  -4   16.58    3.53
  17 -23   4    9.77    4.25
 -23   6   4   14.66    3.97
  -9 -17  -4   -0.10    4.79
  26  -9  -4   -4.27    5.28
 -17  26  -4   -2.02    3.56
 -26   9   4   -1.69    4.21
  17 -26   4    1.46    4.97
 -12 -17  -4   19.47    6.35
 -29  12   4   12.29    5.78
  17 -29   4   18.43    6.96
 -18 -11  -4   -1.63    6.15
  29 -18  -4   -6.03    7.36
  11 -29   4   -9.20    6.32
  -8  26  -4   46.62    5.84
  26 -18  -4   71.44    8.15
 -18  -8  -4   63.88    7.78
 -26  18   4   39.56    5.67
   8 -26   4   43.79    6.33
 -18  -5  -4   10.48    4.07
  -5  23  -4   12.87    3.27
  23 -18  -4   13.45    5.22
   5 -23   4   13.83    4.20
 -23  18   4   14.83    3.71
  18   5   4   18.73    4.82
  20 -18  -4  102.56    7.41
  -2  20  -4   96.48    5.56
 -18  -2  -4  105.51    6.64
 -20  18   4  102.87    6.04
 -20  18   4  106.41    6.40
   2 -20   4  106.70    6.60
  18   2   4  108.30    7.16
  17 -18  -4    1.42    2.73
 -18   1  -4    0.00    2.05
   1  17  -4   -0.33    2.27
 -17  18   4   -2.92    2.06
  18  -1   4   -2.33    2.38
  -1 -17   4    2.93    2.44
 -17  18   4   -2.15    2.62
  14 -18  -4  129.91    6.73
   4  14  -4  134.07    5.90
 -18   4  -4  127.05    5.32
  18  -4   4  136.45    7.03
 -14  18   4  122.95    5.86
  -4 -14   4  124.10    6.87
 -18   7  -4    1.22    1.79
  11 -18  -4    3.04    2.12
   7  11  -4    0.03    1.71
  -7 -11   4    2.54    1.84
 -11  18   4    0.81    1.66
 -11  18   4   -3.13    2.24
  18  -7   4    1.30    2.41
   8 -18  -4  126.03    6.36
 -18  10  -4  124.12    5.49
  10   8  -4  135.57    5.73
 -10  -8   4  124.26    5.52
 -10  -8   4  123.81    4.34
  18 -10   4  116.58    6.56
 -10  -8   4  126.84    4.01
  -8  18   4  133.10    5.59
 -18  13  -4    2.20    1.74
  13   5  -4    0.05    2.10
  13   5  -4   -1.33    2.22
   5 -18  -4    0.75    2.27
  -5  18   4    0.63    1.76
  18 -13   4    2.65    2.34
 -13  -5   4    4.14    1.95
 -18  16  -4  113.61    5.70
  16   2  -4  107.92    6.05
   2 -18  -4  106.71    6.20
  16   2  -4  101.21    6.95
  18 -16   4  105.45    6.77
 -16  -2   4  121.77    6.07
 -16  -2   4  113.59    8.14
  -2  18   4  112.44    5.19
 -18  19  -4    4.38    2.65
  19  -1  -4   -2.51    3.07
  19  -1  -4   -4.86    3.03
  -1 -18  -4   -0.14    2.99
  18 -19   4    2.67    2.96
 -19   1   4    1.61    2.89
   1  18   4    6.05    2.35
  -4 -18  -4   85.50    6.93
  22  -4  -4   70.90    6.48
 -18  22  -4   68.05    5.28
 -22   4   4   66.22    5.72
  18 -22   4   69.07    6.53
 -18  25  -4    2.23    3.45
  25  -7  -4    8.49    5.81
  -7 -18  -4   -7.81    4.33
  18 -25   4    2.06    4.24
 -25   7   4    4.46    4.04
 -18  28  -4   26.23    5.88
 -10 -18  -4   44.95    7.40
  18 -28   4   43.72    7.39
 -28  10   4   43.90    6.50
 -19  -9  -4    2.54    5.76
  -9  28  -4   -1.64    4.90
  28 -19  -4    7.29    6.81
 -28  19   4   14.75    5.35
   9 -28   4    3.08    5.88
  25 -19  -4   -0.54    5.14
 -19  -6  -4    1.31    4.51
  -6  25  -4   -2.22    3.86
   6 -25   4    1.83    4.49
  19   6   4    4.90    4.86
 -25  19   4    6.97    4.14
  22 -19  -4   -0.68    3.61
 -19  -3  -4    3.18    3.74
  19   3   4    3.25    3.87
   3 -22   4   -8.48    3.45
 -22  19   4   -2.95    2.83
   0  19  -4    0.19    2.34
  19 -19  -4    5.53    3.54
   0 -19   4    1.44    3.07
 -19  19   4   -0.19    2.91
  19   0   4   -0.46    2.99
 -19  19   4    5.40    2.66
  16 -19  -4    3.85    2.93
 -19   3  -4    1.79    2.08
   3  16  -4   -0.76    2.30
  -3 -16   4   -3.27    2.34
  19  -3   4   -6.01    2.79
 -16  19   4    3.00    3.02
 -16  19   4   -2.80    1.99
   6  13  -4    7.19    2.23
 -19   6  -4    2.86    2.09
  13 -19  -4    4.41    2.64
  -6 -13   4    5.19    2.21
 -13  19   4    9.96    3.20
  19  -6   4    3.11    2.43
 -13  19   4    5.92    2.12
  10 -19  -4   -1.44    2.18
   9  10  -4    1.58    1.86
 -19   9  -4    2.05    1.91
  -9 -10   4   -1.43    2.02
  19  -9   4    3.05    2.42
 -10  19   4    4.95    1.98
  -9 -10   4    2.42    1.72
  -9 -10   4    2.11    1.45
   7 -19  -4    0.42    2.48
  12   7  -4    4.23    2.19
 -19  12  -4    0.49    1.95
  -7  19   4    3.95    2.04
  19 -12   4    2.69    2.25
 -12  -7   4    3.71    2.22
   4 -19  -4   10.33    2.77
  15   4  -4    5.36    2.67
 -19  15  -4    6.82    2.36
  15   4  -4    9.10    2.69
 -15  -4   4    6.28    2.32
  -4  19   4    7.60    2.18
  19 -15   4    6.85    2.91
   1 -19  -4    7.74    3.01
 -19  18  -4    3.51    2.28
  18   1  -4    6.31    3.18
  18   1  -4    3.65    2.94
  19 -18   4   -1.63    2.94
 -18  -1   4    5.21    2.64
 -18  -1   4    2.57    2.41
  -1  19   4    7.78    2.40
  21  -2  -4   13.20    4.16
  -2 -19  -4    1.96    3.33
 -19  21  -4    5.07    5.07
  21  -2  -4    2.89    3.84
  19 -21   4    1.70    3.43
 -21   2   4    1.33    3.44
 -19  24  -4    2.81    3.81
  -5 -19  -4   -1.96    4.46
 -24   5   4    8.01    4.05
  19 -24   4   13.84    4.51
 -19  27  -4   11.62    4.87
  -8 -19  -4    8.58    6.09
  19 -27   4   20.24    6.51
 -27   8   4   21.46    5.34
  27 -20  -4    9.14    5.85
  -7  27  -4    0.20    4.19
 -20  -7  -4    4.17    5.76
 -27  20   4   13.97    4.71
   7 -27   4   -2.02    5.66
 -20  -4  -4   42.15    5.69
  24 -20  -4   35.64    6.60
  -4  24  -4   59.86    6.15
   4 -24   4   38.54    6.05
 -24  20   4   42.13    5.51
  20   4   4   48.46    6.38
 -20  -1  -4    4.40    3.64
  -1  21  -4   -5.53    3.04
  21 -20  -4    2.43    4.08
 -21  20   4    2.27    3.25
   1 -21   4   -4.37    3.46
  20   1   4    6.37    4.11
  18 -20  -4   92.75    7.16
   2  18  -4   84.76    5.60
 -18  20   4   77.67    5.36
  20  -2   4   85.96    6.24
  -2 -18   4   87.19    5.90
 -18  20   4   82.31    6.57
   5  15  -4    2.57    2.02
 -20   5  -4    3.39    2.21
  15 -20  -4    0.79    2.80
  20  -5   4    3.04    2.89
  -5 -15   4    6.51    2.71
 -15  20   4   -0.10    2.13
 -15  20   4    1.84    3.01
  12 -20  -4  127.84    7.16
   8  12  -4  138.77    6.17
 -20   8  -4  148.97    6.16
  20  -8   4  135.28    7.22
  -8 -12   4  144.81    6.59
 -12  20   4  141.34    6.31
   9 -20  -4    2.81    2.55
 -20  11  -4    3.66    2.04
  11   9  -4    2.93    2.31
 -11  -9   4    5.61    1.19
 -11  -9   4    4.21    1.31
  20 -11   4    0.71    2.89
  -9  20   4    6.21    2.28
 -11  -9   4    6.17    2.34
   6 -20  -4   94.68    6.11
 -20  14  -4   99.62    5.50
  14   6  -4  108.34    5.92
  20 -14   4  100.79    6.42
  -6  20   4  104.83    5.44
 -14  -6   4   99.76    5.37
   3 -20  -4    1.70    2.67
  17   3  -4    0.50    2.61
  17   3  -4    6.35    3.19
 -20  17  -4   -1.22    2.43
  -3  20   4    0.39    2.35
 -17  -3   4    2.43    2.82
 -17  -3   4   -2.17    2.30
  20 -17   4    3.24    3.36
  20   0  -4   60.73    6.00
  20   0  -4   61.30    5.79
 -20  20  -4   65.48    7.65
   0 -20  -4   58.19    6.21
 -20   0   4   58.92    5.73
  20 -20   4   60.38    6.21
 -20   0   4   70.23    5.71
   0  20   4   61.77    4.88
 -20  23  -4    4.13    3.54
  -3 -20  -4   -6.01    4.28
  20 -23   4    7.08    4.86
 -23   3   4    0.07    3.31
  -6 -20  -4   37.06    6.38
 -20  26  -4   26.53    5.18
 -26   6   4   45.83    5.82
  20 -26   4   34.48    6.92
 -21  -5  -4    6.28    5.33
  -5  26  -4   -6.29    3.88
  26 -21  -4    6.99    6.09
 -26  21   4   -6.97    4.54
   5 -26   4   -2.33    5.30
  21   5   4   -0.44    5.50
 -21  -2  -4    4.84    4.44
  -2  23  -4    2.44    3.89
  23 -21  -4    7.36    4.55
 -23  21   4    0.79    3.49
  21   2   4    1.45    4.07
   2 -23   4    8.84    4.76
  20 -21  -4    3.31    4.25
   1  20  -4   -1.96    3.08
  -1 -20   4   -4.31    3.70
  21  -1   4   -1.01    3.52
 -20  21   4    1.43    2.97
   4  17  -4    5.80    2.93
  17 -21  -4   -0.22    3.12
 -21   4  -4   -1.70    2.51
 -17  21   4   -1.53    3.81
  21  -4   4    1.38    3.48
 -17  21   4   -4.76    2.37
  -4 -17   4   -3.96    2.87
 -21   7  -4   -3.99    2.25
  14 -21  -4   -1.41    2.70
   7  14  -4   -2.05    2.02
  21  -7   4    1.06    2.86
 -14  21   4   -1.29    2.54
  -7 -14   4   -0.02    2.60
 -21  10  -4   14.78    2.86
  10  11  -4   12.00    2.65
  11 -21  -4    9.89    3.15
 -10 -11   4   11.76    2.84
 -10 -11   4   11.27    2.31
  21 -10   4   14.73    3.43
 -11  21   4   16.11    2.83
   8 -21  -4   -2.04    2.58
  13   8  -4   -1.03    2.48
 -21  13  -4    0.90    2.42
 -13  -8   4    1.50    2.60
  21 -13   4    2.54    2.99
  -8  21   4    1.24    2.42
  16   5  -4   -0.58    2.96
  16   5  -4   -2.84    2.87
 -21  16  -4    1.33    2.63
   5 -21  -4   -1.16    2.76
  21 -16   4    3.83    3.14
  -5  21   4   -1.27    2.35
 -16  -5   4    0.53    2.72
 -21  19  -4    6.77    2.93
  19   2  -4    2.71    3.86
   2 -21  -4    5.65    3.86
  21 -19   4    1.06    3.55
  -2  21   4    2.86    2.78
 -19  -2   4    1.07    3.33
  -1 -21  -4    6.00    4.37
 -21  22  -4    1.09    3.52
  21 -22   4    0.86    4.56
 -21  25  -4   10.24    4.40
  -4 -21  -4   12.71    5.40
  21 -25   4   15.34    5.85
 -25   4   4    7.38    4.65
  -7 -21  -4    2.41    6.18
  21 -28   4    7.68    6.83
 -28   7   4    3.10    6.14
  28 -22  -4   29.43    7.58
 -22  -6  -4    4.88    6.45
   6 -28   4   17.33    6.90
  -3  25  -4   -2.05    3.90
  25 -22  -4   -0.58    5.82
 -22  -3  -4    3.75    5.06
 -25  22   4   -1.54    4.31
   3 -25   4    1.40    5.26
  22   3   4   -3.14    5.39
 -22   0  -4   57.60    7.01
   0  22  -4   55.41    5.53
  22 -22  -4   48.06    6.75
   0 -22   4   66.12    6.96
  22   0   4   60.05    7.05
 -22  22   4   44.97    5.48
  19 -22  -4    5.37    4.45
   3  19  -4    1.58    3.34
  22  -3   4    4.89    3.67
  -3 -19   4   -1.61    3.35
 -19  22   4    4.81    3.15
 -19  22   4    0.02    4.11
   6  16  -4   98.72    6.12
  16 -22  -4   96.36    7.13
 -22   6  -4   92.88    5.60
  22  -6   4   98.41    7.45
  -6 -16   4  114.70    6.47
 -16  22   4   95.85    6.31
   9  13  -4    8.35    3.06
  13 -22  -4   13.04    3.73
 -22   9  -4   10.46    2.83
  -9 -13   4    9.96    2.93
  -9 -13   4   10.59    3.24
  22  -9   4    6.55    3.73
 -13  22   4    8.72    3.06
 -22  12  -4   81.80    5.31
  12  10  -4   79.04    5.74
  10 -22  -4   78.41    6.80
 -10  22   4   85.15    5.18
 -12 -10   4   88.39    5.74
  22 -12   4  100.17    6.80
   7 -22  -4    5.71    3.18
  15   7  -4   -3.48    2.95
 -22  15  -4    6.12    2.68
 -15  -7   4    6.37    3.55
  -7  22   4    2.90    2.80
  22 -15   4    4.98    3.74
  18   4  -4   85.84    6.65
   4 -22  -4   86.01    6.64
 -22  18  -4   76.83    6.31
  22 -18   4   84.06    7.07
 -18  -4   4   85.10    6.43
  -4  22   4   78.59    5.63
   1 -22  -4   10.20    4.36
 -22  21  -4    1.44    3.51
  21   1  -4    2.65    7.23
  22 -21   4   11.59    4.81
 -21  -1   4    0.74    4.39
  -2 -22  -4   43.24    6.54
 -22  24  -4   43.80    5.35
  22 -24   4   46.87    7.42
  -5 -22  -4   -7.87    5.96
  22 -27   4   -5.72    6.07
 -23  -4  -4    0.95    6.06
  27 -23  -4    3.49    6.91
  -4  27  -4   -1.00    5.60
   4 -27   4    1.50    6.37
  23   4   4    3.33    6.48
 -23  -1  -4    4.54    5.22
  -1  24  -4    3.73    4.56
 -24  23   4    0.82    3.92
  23   1   4   -0.34    5.23
   1 -24   4   -1.70    5.16
   2  21  -4   -1.31    4.03
  21 -23  -4    3.90    4.90
  -2 -21   4   -0.30    4.35
 -21  23   4    6.47    3.55
  23  -2   4    5.47    4.79
   5  18  -4    3.13    3.32
 -18  23   4   -0.51    3.49
  -5 -18   4    3.44    3.69
  23  -5   4   -0.65    4.18
 -23   8  -4    1.74    2.88
   8  15  -4    8.53    3.47
  15 -23  -4    3.77    4.00
  23  -8   4    6.52    3.60
  -8 -15   4    3.06    3.34
  12 -23  -4    5.52    3.66
 -23  11  -4   -1.20    2.79
  11  12  -4    1.57    3.17
 -11 -12   4   -2.27    3.76
  23 -11   4   -4.11    3.36
 -12  23   4   -0.42    2.85
  14   9  -4    6.18    3.55
   9 -23  -4    2.27    3.73
 -23  14  -4    4.80    3.05
  -9  23   4    1.44    2.78
  23 -14   4    2.13    3.43
   6 -23  -4    3.18    4.04
  17   6  -4   13.86    3.96
  23 -17   4   10.51    4.45
  -6  23   4    8.74    3.30
 -23  20  -4    3.08    3.64
   3 -23  -4    4.05    3.81
  20   3  -4    3.29    6.31
  -3  23   4    1.38    3.79
  23 -20   4   -0.77    4.88
 -20  -3   4   -0.99    4.45
 -23  23  -4   12.91    4.57
   0 -23  -4   13.46    4.84
  23   0  -4   13.43    5.91
 -23   0   4    9.32    4.72
  23 -23   4   -0.56    5.54
 -23  26  -4    2.52    4.47
  -3 -23  -4  -11.03    5.56
  23 -26   4   -0.83    6.41
  -2  26  -4   18.46    5.88
  26 -24  -4   32.74    7.59
 -24  -2  -4   40.11    6.87
  24   2   4   31.74    7.29
  23 -24  -4    0.66    5.81
 -24   1  -4   -5.43    4.71
   1  23  -4    2.24    4.94
  24  -1   4   12.69    5.58
 -23  24   4   -0.53    4.37
   4  20  -4   52.13    6.30
  20 -24  -4   49.75    6.62
 -20  24   4   55.32    6.32
  24  -4   4   71.64    8.00
  17 -24  -4   -0.05    4.34
   7  17  -4    4.80    3.76
 -17  24   4    1.36    3.63
  10  14  -4   56.62    5.85
 -24  10  -4   49.21    5.48
  14 -24  -4   57.49   10.59
  24 -10   4   47.23    5.99
 -14  24   4   44.81    5.47
  13  11  -4    5.10    3.74
 -24  13  -4    4.23    3.15
  24 -13   4    3.23    4.37
 -24  16  -4   73.32    6.12
   8 -24  -4   74.34    6.79
  16   8  -4   84.34    6.74
  24 -16   4   83.40    7.21
 -24  19  -4   -3.13    3.46
   5 -24  -4    2.81    4.44
  24 -19   4    4.13    4.70
  -5  24   4    8.89    3.89
   2 -24  -4   24.09    5.51
 -24  22  -4   23.56    4.81
  24 -22   4   17.05    5.74
 -24  25  -4    8.88    4.40
  -1 -24  -4    0.11    5.95
  24 -25   4   16.10    6.59
  25 -25  -4   12.47    6.94
   0  25  -4   13.82    6.12
 -25   0  -4   24.05    6.30
  25   0   4    6.71    6.44
  22 -25  -4    9.92    6.03
   3  22  -4   -9.95    4.73
  25  -3   4    0.67    5.62
 -22  25   4    1.33    4.53
   6  19  -4   11.07    4.33
  19 -25  -4    3.53    5.34
  25  -6   4   16.68    5.44
 -19  25   4    9.41    3.95
  16 -25  -4   -1.19    4.56
   9  16  -4   -8.30    3.94
 -16  25   4   -0.68    3.33
  25  -9   4   -2.77    4.22
  13 -25  -4    9.64    4.33
  12  13  -4    4.38    4.31
  25 -12   4   11.22    4.28
 -13  25   4    1.29    3.57
  10 -25  -4   -0.13    4.56
 -25  15  -4   -1.80    3.41
  15  10  -4   -2.36    4.38
  25 -15   4    0.62    4.16
 -10  25   4    1.20    3.58
 -25  18  -4   -1.74    3.80
   7 -25  -4    3.13    4.67
  -7  25   4    0.65    3.82
  25 -18   4    9.25    5.44
   4 -25  -4    4.42    4.62
 -25  21  -4    6.04    4.46
  25 -21   4    3.11    4.83
 -25  24  -4   -3.75    5.03
   1 -25  -4   13.78    6.14
  25 -24   4    5.95    6.72
  24 -26  -4   29.77    7.49
 -26   2  -4   21.02    6.39
  26  -2   4   20.79    7.09
  21 -26  -4   -0.69    5.70
  26  -5   4   -0.68    5.60
 -21  26   4   -8.18    3.99
  18 -26  -4   33.09    6.27
  26  -8   4   38.52    6.06
 -18  26   4   40.33    5.63
 -26  11  -4   14.61    5.78
  15 -26  -4    5.41    5.01
  26 -11   4   -3.79    4.98
 -15  26   4   -4.55    3.38
 -26  14  -4   32.35    4.92
  12 -26  -4   49.07    6.74
  26 -14   4   41.14    6.48
 -12  26   4   46.95    5.38
   9 -26  -4    4.75    5.26
 -26  17  -4    2.83    4.11
  26 -17   4    4.79    5.48
  -9  26   4    5.00    4.10
   6 -26  -4   28.66    6.43
 -26  20  -4   33.51    5.07
  26 -20   4   33.05    6.85
   3 -26  -4   -6.24    5.36
 -26  23  -4    8.46    5.22
  26 -23   4   -8.65    5.39
  23 -27  -4    1.71    6.54
 -27   4  -4   21.15    6.28
  27  -4   4    4.50    6.77
  20 -27  -4   -7.41    6.07
  27  -7   4   -2.56    5.63
 -20  27   4    3.07    4.37
  17 -27  -4    4.18    5.78
 -17  27   4    5.92    4.58
  27 -10   4    8.27    6.14
 -27  13  -4    8.43    4.33
  14 -27  -4    3.90    5.32
 -14  27   4   -3.23    3.98
  27 -13   4    7.78    5.83
  11 -27  -4    4.80    5.49
 -27  16  -4   12.14    4.91
 -11  27   4   18.79    4.84
  27 -16   4   10.52    6.02
   8 -27  -4    3.06    5.63
 -27  19  -4    1.70    4.78
  27 -19   4   -3.15    5.82
  -8  27   4   -0.51    4.66
   5 -27  -4   -2.09    5.86
 -27  22  -4    7.25    5.34
  27 -22   4    0.05    6.40
  22 -28  -4    4.51    6.61
  28  -6   4   40.91    7.95
  19 -28  -4    0.69    6.24
  28  -9   4    1.52    6.37
 -19  28   4   -1.94    5.11
  16 -28  -4   43.86    7.50
  28 -12   4   31.51    7.11
 -16  28   4   46.64    6.20
  13 -28  -4    2.52    5.81
 -28  15  -4   -3.59    4.58
 -13  28   4   -7.19    3.87
  28 -15   4   -1.08    5.86
 -28  18  -4   37.36    6.00
  10 -28  -4   41.87    6.84
  28 -18   4   41.11    7.93
 -10  28   4   45.13    5.82
   7 -28  -4   -0.95    6.54
 -28  21  -4   11.42    8.38
  28 -21   4   -4.37    5.80
  18 -29  -4    2.74    6.50
  29 -11   4   16.79    7.18
  15 -29  -4   11.89    6.98
  29 -14   4    8.07    6.60
 -15  29   4    5.99    5.40
 -29  17  -4   -0.53    5.26
  12 -29  -4   -4.75    6.49
  29 -17   4    5.96    5.96
 -12  29   4   -0.50    5.20
   0  -1  -5    0.63    0.35
   1   0  -5    0.56    0.59
   0  -1  -5    0.71    0.52
   0  -1  -5    0.45    0.28
   1   0  -5    0.07    0.20
  -1   1  -5    0.69    0.32
   1   0  -5    0.19    0.30
  -1   0   5    0.49    0.56
   0   1   5    0.24    0.36
   1  -1   5    0.56    0.56
   0   1   5   -0.43    0.43
   1  -1   5    1.50    0.40
   0   2  -5    0.32    0.39
   2  -2  -5    0.45    0.42
   2  -2  -5    0.77    0.35
  -2   0  -5    1.12    0.66
   2  -2  -5    1.01    0.58
  -2   0  -5    0.26    0.20
   0   2  -5   -0.52    0.55
   0  -2   5    0.29    0.28
   2   0   5    0.54    0.45
   2   0   5    0.46    0.52
   0  -2   5   -0.58    0.58
  -2   2   5    0.09    0.46
  -2   3  -5   -0.33    0.35
  -1  -2  -5    0.10    0.41
   3  -1  -5    1.12    0.58
   3  -1  -5    0.49    0.43
  -1  -2  -5   -0.13    0.53
   3  -1  -5   -0.17    0.27
   1   2   5    0.13    0.20
   1   2   5   -0.19    0.44
   1   2   5    0.87    0.51
   2  -3   5    0.57    0.45
  -3   1   5   -0.29    0.45
   2  -3   5   -0.17    0.65
   1   2   5    0.47    0.17
   4  -3  -5   23.07    1.19
  -3  -1  -5   22.00    1.40
   4  -3  -5   20.26    1.41
  -1   4  -5   21.37    1.18
  -4   3   5   20.62    1.28
   1  -4   5   20.03    1.08
   3   1   5   19.98    1.37
   3   1   5   20.01    1.31
   1  -3  -5    1.57    0.48
   2   1  -5    1.45    0.62
   1  -3  -5    0.20    0.68
  -3   2  -5    1.17    0.68
  -3   2  -5    1.43    0.35
   2   1  -5    1.43    0.48
   3  -2   5    1.46    0.72
   3  -2   5    1.18    0.49
  -1   3   5    1.61    0.37
  -2  -1   5    1.40    0.57
  -1   3   5    1.16    0.66
  -2  -3  -5    3.61    0.76
  -2  -3  -5    4.70    0.86
   5  -2  -5    5.44    0.88
   5  -2  -5    3.94    0.77
  -3   5  -5    4.06    0.72
   5  -2  -5    4.70    0.67
  -5   2   5    4.00    0.69
   3  -5   5    4.91    0.83
   2   3   5    3.98    0.35
   2   3   5    4.30    0.75
   2   3   5    4.50    0.94
   6  -4  -5   47.78    2.03
   6  -4  -5   49.18    2.39
  -4  -2  -5   45.22    2.12
  -2   6  -5   51.21    2.09
   6  -4  -5   49.84    2.20
   4   2   5   50.05    2.07
   4   2   5   44.67    1.37
   4   2   5   48.08    2.43
  -6   4   5   44.81    2.04
   2  -6   5   47.76    2.05
  -6   4   5   46.79    2.19
  -4   1  -5    6.51    1.02
   1   3  -5    6.15    0.76
   3  -4  -5    6.34    0.83
   3  -4  -5    6.94    0.94
  -4   1  -5    6.61    0.52
   4  -1   5    7.56    1.00
   4  -1   5    7.07    1.01
  -3   4   5    5.71    0.76
  -1  -3   5    7.37    1.04
  -3   4   5    6.08    0.86
  -1  -3   5    6.81    0.58
   0  -4  -5   -0.60    0.59
   0  -4  -5    0.97    0.56
  -4   4  -5    0.88    0.44
   4   0  -5    0.89    0.55
   4   0  -5   -0.60    0.58
   4   0  -5    0.50    0.33
   0   4   5    0.03    0.49
  -4   0   5    0.29    0.48
   4  -4   5    0.13    0.50
   0   4   5    0.35    0.30
   7  -3  -5    1.65    0.78
  -3  -4  -5    1.56    0.76
   7  -3  -5    2.10    0.83
  -4   7  -5    0.33    0.58
   7  -3  -5    0.90    0.68
  -3  -4  -5    0.13    0.65
   4  -7   5    1.60    0.78
   4  -7   5    0.03    0.67
  -7   3   5    0.90    0.54
   3   4   5    0.29    0.74
   3   4   5    0.42    0.32
  -7   3   5    2.44    0.83
   3   4   5    0.52    0.62
  -5  -3  -5   12.13    1.35
  -5  -3  -5   13.85    1.47
   8  -5  -5   14.39    1.43
  -3   8  -5   11.93    1.22
   8  -5  -5   11.17    1.41
   8  -5  -5   11.70    1.58
   5   3   5   11.22    0.81
   3  -8   5   11.87    1.42
  -8   5   5   11.61    1.24
   5   3   5   13.23    1.23
   5   3   5   15.25    1.73
  -8   5   5    9.67    1.31
   3  -8   5   11.49    1.33
  -5   0  -5    1.16    0.69
   5  -5  -5    1.54    0.70
   5  -5  -5    2.52    0.88
  -5   0  -5    2.21    0.37
   0   5  -5    2.28    0.65
   5   0   5    2.46    0.84
  -5   5   5    3.11    0.84
  -5   5   5    2.89    0.73
   0  -5   5    2.54    0.60
   5   0   5    2.48    0.71
  -5   3  -5   11.20    0.81
   2  -5  -5   11.31    1.19
   3   2  -5   11.55    1.02
   2  -5  -5   11.06    1.22
  -3  -2   5   10.94    1.15
  -2   5   5    9.60    0.83
  -3  -2   5   10.67    0.63
   5  -3   5   12.48    1.38
  -2   5   5   11.28    1.13
   5  -3   5   11.40    1.15
  -5   6  -5   11.76    1.03
  -1  -5  -5   10.91    1.27
   6  -1  -5   10.40    1.01
  -1  -5  -5   10.81    1.18
   6  -1  -5   11.90    1.20
   6  -1  -5   10.62    1.17
   1   5   5   10.86    1.16
  -6   1   5    9.52    0.97
   5  -6   5    9.34    1.12
   1   5   5   12.26    0.76
   9  -4  -5    0.69    0.82
  -4  -5  -5    2.16    1.02
  -4  -5  -5    1.23    0.84
   9  -4  -5   -0.06    0.89
  -5   9  -5    1.01    0.71
   4   5   5    0.67    0.48
   4   5   5    3.15    1.16
   4   5   5    0.38    0.78
  -9   4   5    1.36    0.64
   5  -9   5    0.67    0.91
  -9   4   5    1.98    0.96
   5  -9   5    1.62    0.96
  -6  -4  -5    2.04    0.93
  -6  -4  -5    3.46    1.20
  -4  10  -5    2.66    0.90
  10  -6  -5    1.96    1.18
  10  -6  -5    1.95    1.11
   4 -10   5    4.63    1.21
   6   4   5    3.21    0.71
   6   4   5    3.13    0.88
 -10   6   5    2.30    0.95
   6   4   5    3.97    1.23
 -10   6   5    2.10    0.85
   4 -10   5    2.77    1.17
  -6  -1  -5    5.45    0.62
   7  -6  -5    5.71    0.97
  -6  -1  -5    5.13    0.94
  -1   7  -5    4.86    0.93
   7  -6  -5    4.11    1.16
  -7   6   5    5.95    1.07
   6   1   5    5.65    0.69
   6   1   5    5.46    0.85
  -7   6   5    4.29    0.94
   1  -7   5    5.88    0.94
   6   1   5    5.11    1.21
   1  -7   5    5.75    1.00
   2   4  -5   60.41    2.41
  -6   2  -5   61.53    2.03
   4  -6  -5   64.99    2.74
  -2  -4   5   62.83    2.04
   6  -2   5   62.12    2.74
   6  -2   5   62.30    2.62
  -4   6   5   62.74    2.60
  -4   6   5   62.37    2.35
   1  -6  -5    6.31    1.11
  -6   5  -5    7.82    0.91
   1  -6  -5    7.22    1.14
   5   1  -5    5.82    0.95
   5   1  -5    6.94    0.96
   5   1  -5    5.88    0.75
  -1   6   5    6.43    0.75
  -5  -1   5    6.53    0.86
   6  -5   5    6.94    1.19
  -6   8  -5    1.39    0.74
  -2  -6  -5    1.18    0.84
   8  -2  -5    2.82    0.91
  -2  -6  -5   -0.02    0.77
   8  -2  -5    1.15    0.77
   6  -8   5    2.15    0.90
   6  -8   5    2.99    0.92
   2   6   5    2.43    0.56
  -8   2   5    1.66    0.58
   2   6   5    1.09    0.77
  -5  -6  -5    5.60    1.55
  -6  11  -5    6.93    1.26
  -5  -6  -5    7.11    1.30
  11  -5  -5    6.21    1.38
  11  -5  -5    6.26    1.56
   5   6   5    7.64    1.84
 -11   5   5    7.66    1.08
   6 -11   5    9.03    1.59
   6 -11   5    9.33    1.59
   5   6   5    9.99    1.24
 -11   5   5    8.88    1.51
  -7  -5  -5   47.32    2.58
  12  -7  -5   48.17    3.02
  -7  -5  -5   45.66    2.91
  -5  12  -5   46.57    2.67
 -12   7   5   50.17    2.58
   5 -12   5   50.79    3.28
   7   5   5   50.97    2.18
 -12   7   5   48.03    2.91
   7   5   5   47.46    2.23
   5 -12   5   46.98    2.86
   7   5   5   51.79    3.21
  -2   9  -5    7.96    1.23
  -7  -2  -5    8.11    0.88
  -7  -2  -5    6.39    1.07
   9  -7  -5    6.47    1.32
   7   2   5   10.28    1.61
   2  -9   5    8.51    1.32
  -9   7   5   11.69    1.42
   2  -9   5    7.81    1.42
   7   2   5    7.76    0.92
  -9   7   5    9.67    1.38
   7   2   5    9.70    1.04
  -7   1  -5  103.76    3.63
   1   6  -5  101.01    3.51
  -7   1  -5  100.03    2.96
   6  -7  -5   94.50    3.74
   6  -7  -5   97.43    3.69
  -6   7   5  102.72    3.53
   7  -1   5  104.20    3.44
   7  -1   5  105.33    3.97
  -1  -6   5  100.98    3.26
  -6   7   5   93.05    3.68
  -7   4  -5   27.36    1.40
   4   3  -5   29.37    1.76
   3  -7  -5   27.47    1.81
   3  -7  -5   28.35    2.04
  -4  -3   5   24.48    1.65
   7  -4   5   28.83    1.92
   7  -4   5   28.16    1.96
  -3   7   5   28.47    1.77
  -4  -3   5   26.45    1.27
  -3   7   5   26.36    1.40
   7   0  -5    6.33    1.09
  -7   7  -5    5.17    0.92
   0  -7  -5    6.90    1.21
   7   0  -5    5.57    0.91
   0  -7  -5    4.84    1.06
   7   0  -5    6.61    0.93
   0   7   5    6.13    1.00
   0   7   5    6.96    0.83
   7  -7   5    6.22    1.17
   7  -7   5    5.05    1.08
  -7   0   5    6.71    0.81
  10  -3  -5   39.72    2.25
  -3  -7  -5   37.52    2.41
  10  -3  -5   38.65    2.47
  -3  -7  -5   38.56    2.30
  -7  10  -5   36.25    2.14
   7 -10   5   33.74    2.40
 -10   3   5   32.27    2.26
 -10   3   5   35.23    1.74
   7 -10   5   35.99    2.65
   3   7   5   34.39    1.84
   3   7   5   34.16    2.50
  13  -6  -5    0.41    1.64
  13  -6  -5    3.16    1.40
  -6  -7  -5    3.62    1.42
  -6  -7  -5    0.99    1.18
   6   7   5    4.70    1.70
   6   7   5    1.20    1.11
   7 -13   5    1.49    1.45
   7 -13   5    3.65    1.92
 -13   6   5    2.90    0.93
 -13   6   5    2.50    1.34
   6   7   5    2.22    0.90
  -8  -6  -5    1.83    1.23
  -8  -6  -5    1.19    1.36
  14  -8  -5    1.08    1.39
   8   6   5    0.81    1.55
   8   6   5   -1.17    1.00
 -14   8   5    1.88    1.07
   6 -14   5    2.34    2.15
   6 -14   5    1.84    1.56
  11  -8  -5    3.08    1.19
  -8  -3  -5    3.36    1.06
  -3  11  -5    3.78    1.07
   3 -11   5    3.31    1.23
   8   3   5    3.44    0.83
 -11   8   5    4.57    1.28
   8   3   5    2.29    1.42
   8   3   5    2.59    0.94
 -11   8   5    3.34    1.03
   3 -11   5    4.23    1.30
   0   8  -5   -0.56    0.69
   8  -8  -5    0.38    1.33
  -8   0  -5    0.97    0.87
   8  -8  -5    1.53    0.92
  -8   0  -5    1.06    0.60
   8   0   5    0.04    0.78
   0  -8   5    0.20    0.80
   8   0   5   -0.45    1.08
  -8   8   5    0.27    0.89
   0  -8   5    2.04    0.89
  -8   8   5    1.58    0.82
  -8   3  -5   19.87    1.30
   5  -8  -5   22.94    1.89
   5  -8  -5   23.64    2.05
   3   5  -5   20.53    1.50
   8  -3   5   21.12    1.86
  -5   8   5   19.54    1.50
  -3  -5   5   21.56    1.31
   8  -3   5   21.81    1.87
   2  -8  -5   24.98    1.96
  -8   6  -5   25.80    1.59
   6   2  -5   26.61    1.50
   6   2  -5   28.00    1.77
   2  -8  -5   23.33    1.83
  -6  -2   5   23.37    1.47
  -2   8   5   25.80    1.46
   8  -6   5   23.30    1.77
   8  -6   5   24.28    1.94
  -6  -2   5   25.94    1.37
  -1  -8  -5   43.38    2.62
  -1  -8  -5   48.26    2.70
  -8   9  -5   49.05    2.44
   9  -1  -5   46.50    4.00
   8  -9   5   53.78    2.73
   1   8   5   51.73    2.06
  -9   1   5   47.06    1.86
   1   8   5   50.90    2.50
   8  -9   5   52.03    2.84
  12  -4  -5   -0.22    1.51
  -4  -8  -5    0.30    1.11
  -4  -8  -5   -0.68    1.10
  -8  12  -5   -0.62    0.92
  12  -4  -5    0.23    1.10
   8 -12   5    0.16    1.17
   4   8   5    2.33    1.18
   8 -12   5    0.55    1.93
   4   8   5    0.11    0.78
 -12   4   5    0.74    0.76
 -12   4   5    1.58    1.31
  -8  15  -5   24.51    2.40
  -7  -8  -5   24.38    3.05
  -7  -8  -5   21.00    2.31
  15  -7  -5   25.78    2.89
   8 -15   5   27.57    3.04
 -15   7   5   20.32    2.00
   7   8   5   22.22    2.08
 -15   7   5   23.55    2.83
  -9  -7  -5   45.63    3.55
  -9  -7  -5   52.12    3.15
  16  -9  -5   55.36    4.04
  -7  16  -5   55.27    3.55
   9   7   5   46.28    3.81
 -16   9   5   54.71    3.02
 -16   9   5   47.31    3.53
   9   7   5   53.61    2.82
   7 -16   5   54.62    3.78
  -9  -4  -5   19.47    1.86
  13  -9  -5   15.11    2.28
  -4  13  -5   18.84    2.44
  -9  -4  -5   17.85    2.29
   9   4   5   15.63    2.30
 -13   9   5   14.03    1.98
   4 -13   5   16.19    2.19
 -13   9   5   16.05    1.92
   9   4   5   17.33    1.69
   4 -13   5   16.52    2.21
  -1  10  -5   34.87    2.20
  10  -9  -5   36.30    2.47
  -9  -1  -5   36.72    1.83
  -9  -1  -5   34.87    2.41
 -10   9   5   33.86    2.33
   1 -10   5   35.00    2.36
   9   1   5   34.38    1.98
 -10   9   5   31.81    2.31
   9   1   5   38.70    3.37
   1 -10   5   34.40    2.28
   9   1   5   33.38    1.71
   7  -9  -5    2.05    1.01
  -9   2  -5    1.63    0.65
   7  -9  -5    0.74    1.27
   2   7  -5    0.99    0.76
  -7   9   5    2.57    0.86
  -2  -7   5    1.04    0.70
  -7   9   5    1.35    0.83
  -2  -7   5    1.05    0.77
   9  -2   5    0.89    0.95
   9  -2   5    2.79    0.93
   4  -9  -5    7.74    1.45
   5   4  -5    5.91    1.07
  -9   5  -5    8.19    1.07
   4  -9  -5    5.95    1.25
  -5  -4   5    6.64    0.90
  -4   9   5    6.56    1.06
  -5  -4   5    8.50    1.16
  -4   9   5    7.41    1.32
   9  -5   5    7.11    1.47
   9  -5   5    5.19    1.24
   1  -9  -5   16.40    1.80
   1  -9  -5   18.82    2.08
  -9   8  -5   18.83    1.53
   8   1  -5   17.97    1.70
   8   1  -5   17.87    1.56
   9  -8   5   18.96    2.10
  -1   9   5   18.89    1.35
  -1   9   5   15.40    1.62
  -8  -1   5   15.79    1.12
  -2  -9  -5    0.74    1.14
  -9  11  -5    1.83    0.98
  11  -2  -5    0.79    1.05
  11  -2  -5    2.80    1.14
  -2  -9  -5    1.80    1.12
   2   9   5    0.37    0.80
 -11   2   5    1.99    0.60
   2   9   5    1.90    1.09
   9 -11   5   -0.10    1.16
  -5  -9  -5   61.81    3.79
  -5  -9  -5   65.65    3.53
  14  -5  -5   59.05    3.96
  -9  14  -5   61.09    3.45
   5   9   5   70.97    3.26
 -14   5   5   65.72    3.95
 -14   5   5   69.61    2.74
   5   9   5   70.71    2.91
   9 -14   5   69.98    3.99
  -8  -9  -5   -1.09    1.67
  -9  17  -5   -1.22    1.36
  -8  -9  -5   -1.49    1.76
  17  -8  -5   -0.23    2.17
 -17   8   5    0.30    1.17
   8   9   5   -1.49    1.40
   9 -17   5    1.83    1.86
 -17   8   5    0.04    1.55
 -10  -8  -5    2.65    2.05
  -8  18  -5   -0.25    1.71
 -10  -8  -5   -0.40    1.74
  18 -10  -5   -0.29    2.28
 -18  10   5   -0.69    2.04
 -18  10   5    1.99    1.60
   8 -18   5    2.24    2.00
  15 -10  -5    6.72    2.09
  -5  15  -5    2.82    1.49
 -10  -5  -5    3.14    1.61
 -10  -5  -5    3.58    1.27
 -15  10   5    3.21    1.61
   5 -15   5    2.98    1.76
  10   5   5    1.79    1.31
 -15  10   5    2.89    1.41
  10   5   5    2.30    1.90
  -2  12  -5   -0.59    1.11
  12 -10  -5    2.05    1.48
 -10  -2  -5   -0.68    0.91
 -10  -2  -5    1.14    1.09
  10   2   5    0.16    1.30
   2 -12   5    1.57    1.25
 -12  10   5    0.33    1.03
  10   2   5    0.90    1.11
 -12  10   5    0.91    1.15
   9 -10  -5   37.74    2.58
 -10   1  -5   36.63    1.90
   1   9  -5   38.82    2.31
  -9  10   5   35.51    2.36
  -9  10   5   37.10    2.43
  10  -1   5   39.46    2.04
  -1  -9   5   41.31    2.33
  -1  -9   5   39.12    2.30
   6 -10  -5    1.23    1.14
   6 -10  -5    2.02    1.32
 -10   4  -5    1.63    0.77
  -6  10   5    2.42    1.20
  -4  -6   5    2.29    0.76
  -6  10   5    1.23    0.80
  -4  -6   5    0.96    0.78
  10  -4   5    2.86    1.20
  10  -4   5    1.67    1.27
   3 -10  -5    9.56    1.74
   3 -10  -5    9.87    1.63
   7   3  -5   11.96    1.37
 -10   7  -5   10.69    1.27
  -3  10   5   11.62    1.32
  -7  -3   5   11.18    1.26
  10  -7   5    7.29    1.64
  -7  -3   5   10.32    1.14
  -3  10   5    9.89    1.47
   0 -10  -5    1.05    1.12
   0 -10  -5   -1.16    1.20
  10   0  -5    1.37    1.03
  10   0  -5    1.03    1.06
 -10  10  -5   -2.06    0.80
  10 -10   5    0.77    1.18
   0  10   5    0.70    0.77
   0  10   5   -0.77    1.13
 -10   0   5    0.29    0.50
  -3 -10  -5   44.74    3.07
  13  -3  -5   36.29    2.78
 -10  13  -5   43.21    2.74
 -13   3   5   42.06    4.90
   3  10   5   37.48    2.12
  10 -13   5   45.25    3.41
 -13   3   5   39.52    1.80
   3  10   5   43.99    2.88
  16  -6  -5    8.97    2.28
  16  -6  -5    9.95    2.39
 -10  16  -5    6.47    1.74
  -6 -10  -5    9.17    2.13
  10 -16   5    8.26    2.26
   6  10   5    9.43    1.57
 -16   6   5    7.65    1.22
 -16   6   5    8.47    1.92
 -10  19  -5   18.08    2.67
  -9 -10  -5   14.37    2.87
  19  -9  -5   13.51    3.05
  10 -19   5   11.87    2.77
 -19   9   5   11.41    2.50
 -19   9   5   17.40    2.02
 -11  -9  -5   31.09    3.89
  20 -11  -5   34.42    4.43
  -9  20  -5   32.57    3.56
 -20  11   5   29.42    3.58
   9 -20   5   31.07    4.05
 -20  11   5   26.06    3.14
  17 -11  -5    6.52    2.28
  -6  17  -5    0.97    1.61
 -11  -6  -5    3.92    2.08
 -11  -6  -5    1.97    1.51
 -17  11   5    1.68    1.64
 -17  11   5    2.29    1.57
  11   6   5    3.51    1.62
  11   6   5   -2.32    2.13
   6 -17   5   -0.20    1.75
  -3  14  -5   16.95    2.12
 -11  -3  -5   18.56    2.89
 -11  -3  -5   18.79    2.04
 -11  -3  -5   21.89    1.90
  14 -11  -5   20.68    2.67
  11   3   5   18.50    2.14
 -14  11   5   17.33    2.28
   3 -14   5   18.02    2.39
  11   3   5   17.42    2.95
 -14  11   5   21.82    2.34
 -11   0  -5    0.91    0.93
  11 -11  -5    2.64    1.46
   0  11  -5   -1.38    1.09
 -11  11   5    1.41    1.23
  11   0   5    2.00    1.38
   0 -11   5    0.07    1.18
   0 -11   5   -0.33    1.20
 -11  11   5    0.35    1.18
   3   8  -5   37.92    2.43
 -11   3  -5   39.38    2.02
   8 -11  -5   37.68    4.30
  11  -3   5   35.60    2.75
  -3  -8   5   39.36    2.20
  11  -3   5   38.91    2.38
  -3  -8   5   40.95    2.28
  -8  11   5   40.08    2.49
  -8  11   5   37.19    2.52
   5 -11  -5    5.37    1.62
 -11   6  -5    4.93    1.04
   6   5  -5    4.05    1.11
  11  -6   5    6.94    1.74
  -6  -5   5    6.32    1.07
  -6  -5   5    5.62    1.14
  -5  11   5    5.06    1.16
  11  -6   5    4.28    1.62
  -6  -5   5    5.44    0.84
   2 -11  -5    7.19    1.64
   9   2  -5    6.67    1.34
   2 -11  -5    5.53    1.70
   9   2  -5    6.40    1.35
 -11   9  -5    5.38    1.30
  -2  11   5    0.43    1.95
  -2  11   5    6.79    1.15
  11  -9   5    6.16    1.75
  -9  -2   5    7.59    0.93
  12  -1  -5   30.17    2.88
 -11  12  -5   29.77    2.55
  -1 -11  -5   31.33    2.82
  -1 -11  -5   27.57    2.83
  12  -1  -5   32.06    2.48
  11 -12   5   34.04    3.09
 -12   1   5   33.82    1.32
   1  11   5   32.68    2.65
   1  11   5   35.72    2.15
  15  -4  -5    9.43    2.22
  15  -4  -5   10.22    2.10
 -11  15  -5   11.84    1.96
  -4 -11  -5   11.30    2.15
 -15   4   5    9.32    1.09
 -15   4   5    9.65    1.99
   4  11   5   12.81    1.63
 -11  18  -5   39.73    3.32
  -7 -11  -5   34.69    3.93
   7  11   5   31.11    2.83
 -18   7   5   33.01    3.33
 -18   7   5   35.59    2.34
  11 -18   5   31.02    4.06
 -11  21  -5    1.63    2.15
  21 -10  -5    2.04    2.89
 -10 -11  -5    0.84    2.47
  11 -21   5    3.72    2.90
 -21  10   5   -0.47    2.63
 -12 -10  -5    2.42    3.40
  22 -12  -5    2.57    3.41
 -10  22  -5    5.19    2.68
 -22  12   5    6.57    2.80
 -12  -7  -5    3.97    1.65
 -12  -7  -5    3.09    2.54
  19 -12  -5    3.30    2.82
  -7  19  -5    5.34    2.26
   7 -19   5    5.49    2.53
  12   7   5    3.67    2.71
 -19  12   5    2.47    1.91
 -19  12   5    2.53    2.17
 -12  -4  -5    4.39    1.96
  16 -12  -5    0.24    2.45
  -4  16  -5    2.40    1.42
 -12  -4  -5    3.35    1.51
  12   4   5    2.28    1.57
  12   4   5    1.86    2.18
 -16  12   5    2.86    1.70
 -16  12   5    1.93    1.66
   4 -16   5    1.92    1.85
 -12  -1  -5   16.43    1.88
  13 -12  -5   20.06    2.74
  12   1   5   19.08    2.61
   1 -13   5   21.07    2.47
  12   1   5   20.85    2.16
   1 -13   5   17.41    2.34
 -13  12   5   18.04    2.28
 -13  12   5   21.64    2.33
   2  10  -5   -1.40    1.02
 -12   2  -5    0.33    0.93
  10 -12  -5    0.68    1.25
  12  -2   5   -1.18    1.24
 -10  12   5   -1.42    1.24
 -10  12   5   -0.64    0.95
  -2 -10   5    1.20    1.17
  -2 -10   5    0.73    1.07
   7 -12  -5   18.81    2.37
   5   7  -5   19.84    1.84
 -12   5  -5   19.15    1.70
   7 -12  -5   16.71    2.23
  12  -5   5   22.17    2.38
  -7  12   5   19.51    1.96
  -5  -7   5   16.88    1.59
  12  -5   5   19.16    2.29
  -5  -7   5   17.86    1.74
  -7  12   5   19.05    2.14
   4 -12  -5    9.53    1.70
   8   4  -5    7.32    1.39
   4 -12  -5   11.42    2.10
   8   4  -5    7.90    1.34
 -12   8  -5    7.58    1.24
  -8  -4   5    7.93    1.25
  -4  12   5   10.06    1.63
  -8  -4   5    8.93    1.18
  12  -8   5    9.02    1.74
  -4  12   5    9.52    1.47
  -8  -4   5    8.44    0.97
   1 -12  -5   46.62    3.41
  11   1  -5   44.36    2.89
 -12  11  -5   41.25    2.62
  11   1  -5   47.76    2.79
   1 -12  -5   47.00    3.17
  -1  12   5   40.30    3.00
  -1  12   5   42.72    2.48
  12 -11   5   38.68    3.17
  -2 -12  -5    0.72    1.73
  -2 -12  -5    0.48    1.82
  14  -2  -5    2.18    1.71
 -12  14  -5    2.45    1.33
  12 -14   5    3.55    1.80
   2  12   5    2.32    1.36
 -14   2   5    2.20    1.46
 -14   2   5    1.04    0.52
  17  -5  -5   17.84    2.95
  17  -5  -5   20.27    2.82
 -12  17  -5   22.42    2.70
  -5 -12  -5   17.35    2.66
   5  12   5   18.57    2.31
 -17   5   5   21.28    2.94
  12 -17   5   19.94    3.18
  -8 -12  -5    3.88    2.45
 -12  20  -5    2.77    2.27
  20  -8  -5    1.56    2.83
 -20   8   5    6.43    2.75
  12 -20   5    6.80    2.96
 -12  23  -5   15.00    4.86
 -11 -12  -5   15.29    3.67
  23 -11  -5   15.50    4.49
 -23  11   5   17.72    3.80
  12 -23   5   29.38    4.71
  24 -13  -5   42.97    5.63
 -11  24  -5   43.87    5.40
 -13 -11  -5   35.67    5.34
 -24  13   5   36.23    4.96
  11 -24   5   47.93    5.81
  21 -13  -5    7.75    3.25
  -8  21  -5   10.81    2.61
 -13  -8  -5    8.16    2.81
 -21  13   5   12.49    3.17
   8 -21   5    5.24    3.24
 -21  13   5   10.76    2.43
  -5  18  -5   38.03    3.31
 -13  -5  -5   39.04    3.98
  18 -13  -5   31.84    4.18
 -18  13   5   29.28    3.47
 -18  13   5   36.88    3.46
  13   5   5   36.75    4.32
   5 -18   5   39.95    4.07
  -2  15  -5    8.72    2.04
 -13  -2  -5   10.55    1.72
  15 -13  -5   14.21    3.17
   2 -15   5   14.37    2.45
  13   2   5    8.93    1.94
 -15  13   5   10.96    3.62
  13   2   5   10.37    2.66
 -15  13   5   11.22    2.15
   1  12  -5   32.47    2.93
 -13   1  -5   28.89    2.23
  12 -13  -5   32.26    2.99
  -1 -12   5   32.64    3.10
 -12  13   5   32.90    2.99
  13  -1   5   29.48    2.97
  -1 -12   5   35.88    2.78
 -12  13   5   27.51    2.58
 -13   4  -5   -0.89    1.02
   4   9  -5    1.09    1.18
   9 -13  -5    1.65    1.38
  -4  -9   5    1.01    1.04
  -9  13   5   -1.24    1.23
  -4  -9   5    0.86    1.10
  13  -4   5   -0.40    1.41
  -9  13   5   -2.32    1.30
  13  -4   5   -1.08    1.36
   6 -13  -5   34.74    3.25
   7   6  -5   32.68    2.39
   6 -13  -5   32.29    2.76
 -13   7  -5   32.99    2.29
  -7  -6   5   34.61    1.81
  -7  -6   5   31.64    2.20
  13  -7   5   32.31    2.89
  -7  -6   5   32.26    2.32
  -6  13   5   35.67    2.72
  -6  13   5   34.27    2.22
  13  -7   5   30.76    3.30
  10   3  -5    4.15    1.58
   3 -13  -5    3.85    1.58
  10   3  -5    5.85    1.53
   3 -13  -5    0.89    1.98
 -13  10  -5    9.12    1.51
  13 -10   5    7.79    1.86
 -10  -3   5    5.75    0.68
  -3  13   5    6.01    1.21
 -10  -3   5    6.70    1.33
 -10  -3   5    5.56    0.71
  -3  13   5    1.80    1.37
  13   0  -5    4.74    1.72
 -13  13  -5    4.06    1.44
   0 -13  -5    7.29    1.91
  13 -13   5    9.14    2.13
   0  13   5    7.02    1.40
  16  -3  -5   21.01    3.23
  -3 -13  -5   18.97    2.99
 -13  16  -5   18.37    2.46
  16  -3  -5   20.10    2.75
 -16   3   5   19.86    2.89
   3  13   5   16.36    2.03
  13 -16   5   15.20    2.80
  -6 -13  -5   -1.89    2.33
  19  -6  -5    0.86    2.49
 -13  19  -5    1.83    2.07
 -19   6   5   -1.00    1.99
  13 -19   5    0.06    2.40
 -13  22  -5   41.15    4.65
  -9 -13  -5   42.10    5.25
  22  -9  -5   43.00    5.47
 -22   9   5   38.32    4.28
  13 -22   5   34.40    4.63
 -13  25  -5   11.27    3.47
  25 -12  -5    3.03    4.51
 -12 -13  -5    7.69    7.39
  13 -25   5   -6.50    4.01
 -25  12   5   -2.10    3.68
 -12  26  -5   -0.36    3.48
 -14 -12  -5    5.95    4.57
  26 -14  -5    5.80    5.27
  12 -26   5    4.56    4.78
 -26  14   5    5.93    3.78
  -9  23  -5    7.13    3.99
  23 -14  -5    9.68    4.10
 -14  -9  -5    3.48    3.62
   9 -23   5   10.07    3.50
  20 -14  -5    0.70    2.84
  -6  20  -5    5.99    2.29
 -14  -6  -5    1.76    2.32
 -20  14   5    5.17    2.35
   6 -20   5   -0.08    2.51
 -20  14   5    6.38    2.41
  14   6   5    5.41    3.07
  -3  17  -5    1.06    1.98
  17 -14  -5    1.31    2.44
 -14  -3  -5    3.72    1.77
 -14  -3  -5    0.68    2.11
   3 -17   5    4.62    2.27
  14   3   5    1.98    2.55
 -17  14   5    0.46    2.11
 -17  14   5    2.38    2.08
 -14   0  -5    3.07    1.94
   0  14  -5    2.46    1.55
  14 -14  -5   -0.07    1.68
   0 -14   5    0.60    1.64
  14   0   5    0.15    1.73
 -14  14   5    2.58    1.61
 -14  14   5    1.79    1.53
   3  11  -5   13.72    2.31
  11 -14  -5   12.08    2.90
 -14   3  -5   16.09    1.87
  14  -3   5   21.66    3.33
  -3 -11   5   16.53    2.17
 -11  14   5   13.28    1.96
 -11  14   5   14.77    2.21
  -3 -11   5   14.36    1.94
   6   8  -5   -0.88    1.22
   8 -14  -5    1.06    1.48
 -14   6  -5    1.53    1.16
  -8  14   5    2.14    1.52
  -6  -8   5   -0.72    0.98
  -6  -8   5    1.11    1.18
  14  -6   5    4.42    2.07
  14  -6   5   -0.91    1.48
  -8  14   5   -0.15    1.46
   5 -14  -5    6.60    2.40
   5 -14  -5    5.58    2.19
 -14   9  -5    7.68    1.46
   9   5  -5    7.20    2.66
   9   5  -5    7.34    1.63
  -5  14   5    6.67    2.03
  -9  -5   5   11.13    1.59
  -9  -5   5    8.35    0.91
  -5  14   5    7.86    1.62
  14  -9   5    6.34    2.21
  -9  -5   5    8.49    1.16
 -14  12  -5   -0.37    1.21
   2 -14  -5   -1.11    2.15
  12   2  -5   -1.33    1.51
  -2  14   5    2.92    1.34
 -12  -2   5    3.27    1.34
  -2  14   5    0.43    2.09
  15  -1  -5   15.66    2.71
  -1 -14  -5   16.26    2.77
 -14  15  -5   14.80    2.42
  15  -1  -5   19.52    2.70
   1  14   5   14.78    1.96
  14 -15   5   17.85    2.87
 -15   1   5   13.27    2.34
  18  -4  -5   -2.85    2.32
 -14  18  -5   -0.17    1.76
  -4 -14  -5    5.35    2.25
 -18   4   5    2.91    1.99
  14 -18   5   -1.10    2.14
   4  14   5    0.67    1.73
  -7 -14  -5   33.93    4.49
 -14  21  -5   30.34    3.93
  21  -7  -5   25.32    4.07
  14 -21   5   29.09    4.29
 -21   7   5   35.40    4.45
 -10 -14  -5   -4.90    3.16
  24 -10  -5    5.21    4.33
 -14  24  -5   -1.98    3.17
  14 -24   5   -0.52    3.92
 -24  10   5    2.90    3.15
  27 -13  -5   10.22    5.85
 -13 -14  -5   16.18    5.36
 -14  27  -5   18.51    4.84
 -27  13   5   12.23    4.80
  14 -27   5   13.43    5.12
  28 -15  -5    9.35    6.43
 -15 -13  -5   20.77    6.34
 -13  28  -5   38.59    5.50
  13 -28   5   27.26    6.83
 -28  15   5   29.16    5.94
 -10  25  -5   19.67    3.94
 -15 -10  -5    2.30    4.68
 -25  15   5   19.02    3.86
  10 -25   5    9.11    4.75
  22 -15  -5   41.76    5.36
 -15  -7  -5   46.03    5.47
  -7  22  -5   44.58    4.34
   7 -22   5   38.82    4.75
  15   7   5   37.00    5.18
 -22  15   5   45.19    4.61
  -4  19  -5    9.39    2.51
  19 -15  -5    8.97    2.97
 -15  -4  -5    9.29    2.62
   4 -19   5   12.56    2.75
 -19  15   5   16.61    2.82
  15   4   5    9.60    3.30
 -19  15   5   16.02    2.77
  16 -15  -5   49.61    4.34
 -15  -1  -5   55.04    3.43
  -1  16  -5   51.11    3.59
  15   1   5   52.08    4.28
 -16  15   5   54.75    4.27
 -16  15   5   51.84    3.85
   2  13  -5    0.10    1.41
 -15   2  -5    2.05    1.42
  13 -15  -5   -1.14    1.68
 -13  15   5   -2.52    1.55
 -13  15   5    0.82    1.45
  -2 -13   5    0.98    1.70
  15  -2   5   -0.98    1.73
 -15   5  -5   42.37    2.69
   5  10  -5   40.66    2.88
  15  -5   5   41.33    4.36
 -10  15   5   38.87    3.56
 -10  15   5   39.04    2.81
  -5 -10   5   42.37    2.70
  -5 -10   5   41.82    3.02
   8   7  -5    2.49    1.52
 -15   8  -5    2.70    1.40
   7 -15  -5    5.14    2.18
   7 -15  -5    1.06    2.53
  -7  15   5    3.37    1.42
  -8  -7   5    3.58    1.05
  -8  -7   5    2.23    1.35
  -7  15   5    3.92    1.94
  15  -8   5    2.15    1.86
  -8  -7   5    2.64    1.36
   4 -15  -5   17.94    2.73
 -15  11  -5   18.57    2.46
  11   4  -5   17.80    2.25
  11   4  -5   17.43    2.40
  -4  15   5   15.25    2.02
 -11  -4   5   16.46    1.98
  15 -11   5   21.26    3.11
  -4  15   5   16.14    2.60
 -15  14  -5   23.59    2.82
  14   1  -5   16.81    2.63
  14   1  -5   21.77    2.69
   1 -15  -5   25.22    3.36
  -1  15   5   19.93    2.38
  15 -14   5   20.82    3.04
  17  -2  -5    3.99    2.36
 -15  17  -5    0.44    1.77
  -2 -15  -5    3.78    2.08
 -17   2   5   -2.42    1.83
  15 -17   5   -0.99    2.12
   2  15   5   -3.27    1.58
 -15  20  -5   34.40    3.65
  20  -5  -5   24.74    3.70
  -5 -15  -5   21.94    3.69
  15 -20   5   22.73    3.99
 -20   5   5   28.81    3.83
 -15  23  -5    5.43    2.98
  -8 -15  -5   -4.42    3.52
  23  -8  -5    2.93    3.54
  15 -23   5    3.98    4.00
 -23   8   5   -0.36    2.78
  26 -11  -5   24.86    6.04
 -15  26  -5   27.06    5.16
 -11 -15  -5   24.81    5.39
  15 -26   5   13.32    5.47
 -26  11   5   25.77    5.12
 -14 -15  -5   -0.17    6.20
  15 -29   5   12.41    6.94
 -29  14   5   12.69    7.74
  27 -16  -5    4.51    5.75
 -11  27  -5    3.50    4.70
 -16 -11  -5    5.37    5.21
 -27  16   5   -2.31    3.96
  11 -27   5   -2.59    5.35
  -8  24  -5    2.47    3.16
 -16  -8  -5    3.08    3.55
  24 -16  -5   -0.04    4.27
 -24  16   5    4.60    3.32
   8 -24   5    6.85    4.36
  -5  21  -5    4.59    2.55
  21 -16  -5    3.35    3.49
 -16  -5  -5    0.16    3.05
   5 -21   5    7.08    3.16
 -21  16   5    3.39    3.18
 -21  16   5   11.47    3.36
  16   5   5    8.06    3.82
  18 -16  -5    4.51    2.67
  -2  18  -5    2.77    2.02
 -16  -2  -5    0.92    2.40
 -18  16   5    0.25    2.49
 -18  16   5    1.04    2.35
  16   2   5   -3.72    2.66
   2 -18   5   -0.91    2.30
   1  15  -5   16.70    2.51
  15 -16  -5   15.88    2.95
 -16   1  -5   15.36    2.21
 -15  16   5   12.51    2.40
  -1 -15   5    8.89    2.41
 -15  16   5   18.50    3.03
  16  -1   5   12.18    2.67
   4  12  -5    1.39    1.49
 -16   4  -5    2.13    1.52
  12 -16  -5    1.42    1.87
  -4 -12   5    6.30    1.88
 -12  16   5    1.42    2.04
 -12  16   5    1.57    1.81
  16  -4   5    1.38    2.10
 -16   7  -5   34.06    2.74
   9 -16  -5   34.94    3.70
   7   9  -5   37.75    3.04
  -7  -9   5   33.90    3.06
  16  -7   5   35.37    3.55
  -9  16   5   39.57    3.69
  -7  -9   5   33.04    2.71
  -7  -9   5   37.79    2.43
  -9  16   5   31.55    2.95
  10   6  -5   -1.24    1.36
   6 -16  -5   -0.68    1.62
 -16  10  -5    0.12    1.47
 -10  -6   5   -0.10    0.75
  -6  16   5    3.93    1.76
  -6  16   5    2.75    2.03
 -10  -6   5   -0.25    0.96
  16 -10   5    0.86    1.83
   3 -16  -5   35.66    3.56
 -16  13  -5   41.48    3.09
  13   3  -5   39.89    3.65
  13   3  -5   37.69    3.42
  16 -13   5   42.57    3.89
 -13  -3   5   39.85    3.18
  -3  16   5   40.80    3.51
  16   0  -5    1.30    2.11
   0 -16  -5   -1.24    2.07
 -16  16  -5   -1.77    1.87
  16   0  -5    2.34    2.30
 -16   0   5    2.55    2.13
  16 -16   5    0.06    2.57
  19  -3  -5   31.19    4.25
 -16  19  -5   23.37    3.27
  -3 -16  -5   41.75    4.28
  19  -3  -5   33.64    4.12
  16 -19   5   37.51    4.80
   3  16   5   32.02    3.82
 -19   3   5   33.69    4.04
 -16  22  -5   -5.42    3.98
  22  -6  -5   -0.27    3.47
  -6 -16  -5   -0.21    3.38
 -22   6   5   -1.07    2.70
  16 -22   5    0.15    3.66
  25  -9  -5   24.66    5.17
 -16  25  -5   15.07    4.35
  -9 -16  -5   19.53    4.99
  16 -25   5   18.69    4.85
 -25   9   5   26.15    4.67
 -16  28  -5    8.46    4.82
 -12 -16  -5    5.14    5.86
  16 -28   5   -6.28    5.79
 -28  12   5    4.54    5.36
  29 -17  -5    2.24    7.23
 -17 -12  -5    7.59    6.37
  12 -29   5   12.33    6.80
  26 -17  -5   29.94    6.43
 -17  -9  -5   34.38    5.88
  -9  26  -5   44.50    5.62
   9 -26   5   28.49    5.92
 -26  17   5   24.63    5.29
  23 -17  -5   11.06    4.71
 -17  -6  -5   10.18    4.01
  -6  23  -5   10.50    3.30
  17   6   5   15.29    4.67
   6 -23   5   12.85    3.99
 -23  17   5   12.11    3.59
 -17  -3  -5   53.84    5.19
  20 -17  -5   53.62    5.38
  -3  20  -5   42.50    4.19
   3 -20   5   37.99    4.92
 -20  17   5   54.36    4.68
  17   3   5   44.19    5.61
 -20  17   5   39.98    4.27
   0  17  -5    1.27    2.19
  17 -17  -5    4.39    3.04
   0 -17   5    4.45    2.47
  17   0   5    3.05    2.57
 -17  17   5    1.14    2.20
 -17  17   5    8.42    2.78
 -17   3  -5   61.49    3.61
  14 -17  -5   69.33    5.20
   3  14  -5   57.22    4.01
  -3 -14   5   60.46    5.85
  17  -3   5   59.17    4.89
 -14  17   5   53.36    6.69
 -14  17   5   54.19    3.85
   6  11  -5    1.07    1.47
  11 -17  -5    3.44    2.12
 -17   6  -5   -1.67    1.58
 -11  17   5    0.33    2.24
  -6 -11   5    1.17    1.66
 -11  17   5   -0.05    1.47
  17  -6   5    3.68    2.11
   9   8  -5   11.01    2.35
   8 -17  -5   15.44    2.83
 -17   9  -5   10.94    1.88
  -9  -8   5   12.07    1.82
  -9  -8   5   10.90    2.10
  -8  17   5   13.92    2.54
  -8  17   5    9.31    1.88
  17  -9   5    9.12    2.55
  -9  -8   5   11.39    1.41
 -17  12  -5    6.62    1.75
  12   5  -5    9.08    2.09
   5 -17  -5    7.16    2.28
  12   5  -5    9.22    2.21
  17 -12   5    4.67    2.63
 -12  -5   5    4.88    1.90
  -5  17   5    6.53    1.83
   2 -17  -5   19.94    3.14
 -17  15  -5   22.71    3.00
  15   2  -5   26.08    3.22
  15   2  -5   23.22    3.12
  -2  17   5   24.25    2.86
 -15  -2   5   23.00    2.89
  17 -15   5   26.16    3.61
  -1 -17  -5    4.57    2.90
  18  -1  -5    9.08    2.99
  18  -1  -5    3.78    3.13
  17 -18   5    3.02    2.73
 -18   1   5    8.94    2.99
   1  17   5    1.71    2.17
  21  -4  -5    6.53    3.43
 -17  21  -5    1.53    2.91
  21  -4  -5    2.15    3.46
  -4 -17  -5    6.14    3.47
 -21   4   5    4.52    3.14
  17 -21   5   10.58    3.93
 -17  24  -5   24.02    4.45
  24  -7  -5   21.51    4.79
 -24   7   5   30.90    4.59
  17 -24   5   18.92    4.70
 -10 -17  -5    3.85    5.07
 -17  27  -5    0.04    4.61
 -27  10   5    4.11    4.68
  17 -27   5   -2.39    5.45
 -10  28  -5    3.27    5.25
 -18 -10  -5    2.78    6.01
  28 -18  -5   -6.41    6.21
  10 -28   5   10.11    5.74
 -28  18   5    4.67    4.75
 -18  -7  -5   -0.01    4.26
  25 -18  -5    9.16    5.36
  -7  25  -5    7.24    3.66
   7 -25   5   -2.51    4.72
 -25  18   5    8.79    4.08
  22 -18  -5    1.16    3.93
 -18  -4  -5    0.09    3.48
   4 -22   5    3.84    3.57
  18   4   5   -1.37    3.23
 -22  18   5   -1.20    3.09
 -18  -1  -5   13.08    3.47
  19 -18  -5   18.02    3.70
  -1  19  -5   15.91    3.14
 -19  18   5   18.85    3.48
 -19  18   5    6.04    3.11
   1 -19   5   18.29    3.39
  18   1   5   11.25    3.62
  16 -18  -5    3.83    2.90
 -18   2  -5    3.96    3.92
   2  16  -5   -1.07    1.81
  18  -2   5    4.02    2.60
 -16  18   5   -0.15    2.74
  -2 -16   5    2.15    2.34
 -16  18   5   -1.20    1.97
 -18   5  -5   15.21    2.72
   5  13  -5    9.96    2.25
  13 -18  -5   12.04    3.19
  -5 -13   5   19.48    5.10
  18  -5   5   15.33    3.17
 -13  18   5   12.40    2.38
 -13  18   5   12.28    2.84
   8  10  -5    2.14    2.03
  10 -18  -5    1.39    2.31
 -18   8  -5   -0.53    1.75
 -10  18   5    0.83    2.32
  -8 -10   5    0.63    1.42
  18  -8   5    1.26    2.55
  -8 -10   5    1.32    1.92
  -8 -10   5    0.88    1.79
 -10  18   5    0.94    2.04
  11   7  -5   37.88    3.56
 -18  11  -5   35.34    3.00
   7 -18  -5   42.44    4.08
  -7  18   5   36.19    3.03
 -11  -7   5   33.86    3.37
  18 -11   5   40.54    4.52
 -11  -7   5   37.66    1.66
  14   4  -5    3.83    2.33
   4 -18  -5   -1.53    2.06
  14   4  -5   -0.93    2.25
 -18  14  -5    2.59    1.85
  18 -14   5    3.61    2.62
 -14  -4   5   -1.14    1.88
  -4  18   5   -1.79    1.82
 -18  17  -5   32.32    3.83
   1 -18  -5   30.35    4.19
  17   1  -5   37.19    4.38
  17   1  -5   26.87    3.63
  18 -17   5   31.19    4.57
 -17  -1   5   34.29    3.78
 -17  -1   5   29.27    3.91
  -1  18   5   31.74    3.63
  -2 -18  -5   -3.38    2.74
  20  -2  -5   -0.76    3.18
  20  -2  -5   -1.85    3.61
 -18  20  -5   -2.64    2.40
  18 -20   5   -3.76    2.99
 -20   2   5    2.76    3.06
  -5 -18  -5   20.77    4.82
 -18  23  -5   30.19    4.32
 -23   5   5   23.30    5.75
  18 -23   5   36.68    6.79
  -8 -18  -5    0.51    5.07
 -18  26  -5   -8.42    4.11
  18 -26   5  -12.47    4.97
 -26   8   5    1.74    4.55
 -11 -18  -5    5.54    6.71
  18 -29   5   11.42    6.87
 -19  -8  -5    0.92    5.46
  27 -19  -5    1.01    6.15
  -8  27  -5    2.02    4.55
 -27  19   5   -1.44    4.81
   8 -27   5    3.50    5.63
 -19  -5  -5   43.74    5.75
  -5  24  -5   22.95    4.23
  24 -19  -5   30.00    5.62
   5 -24   5   58.17    8.97
  19   5   5   37.30    5.99
 -24  19   5   39.74    5.47
  -2  21  -5    0.51    3.08
  21 -19  -5    8.84    4.14
 -19  -2  -5    5.69    3.56
 -21  19   5   -1.80    2.81
  19   2   5    5.05    3.99
   2 -21   5    4.98    3.58
  18 -19  -5   34.62    4.69
   1  18  -5   43.75    4.46
  -1 -18   5   39.54    4.40
 -18  19   5   46.51    4.32
 -18  19   5   48.09    5.25
  19  -1   5   39.13    4.85
   4  15  -5   -3.72    1.92
  15 -19  -5    1.84    2.63
 -19   4  -5    0.36    1.94
 -15  19   5   -0.74    2.07
 -15  19   5   -0.36    2.65
  19  -4   5   -1.57    2.41
  -4 -15   5   -0.52    2.38
 -19   7  -5   24.71    2.99
   7  12  -5   27.91    3.45
  12 -19  -5   23.07    3.85
 -12  19   5   23.96    3.85
  -7 -12   5   25.32    3.12
  19  -7   5   25.78    4.04
 -12  19   5   23.51    3.01
 -19  10  -5    3.56    1.75
   9 -19  -5    2.28    2.62
  10   9  -5    2.64    2.23
  19 -10   5    1.52    2.66
 -10  -9   5    3.87    1.33
 -10  -9   5    4.12    2.00
  -9  19   5    5.39    1.84
 -10  -9   5    2.24    1.65
  13   6  -5    6.95    2.33
 -19  13  -5    6.48    2.36
   6 -19  -5    7.86    2.84
  19 -13   5    9.54    3.10
  -6  19   5   10.91    2.28
 -13  -6   5   11.86    2.92
  16   3  -5   19.93    3.29
 -19  16  -5   14.52    2.93
   3 -19  -5   18.35    3.37
  16   3  -5   13.68    3.22
 -16  -3   5   13.76    2.63
  19 -16   5   17.78    3.63
  -3  19   5   14.45    2.57
 -19  19  -5    3.40    3.01
   0 -19  -5    8.77    3.16
  19   0  -5    3.09    3.58
  19   0  -5    9.95    3.49
 -19   0   5   11.36    3.11
 -19   0   5    7.40    3.18
  19 -19   5    6.26    3.68
   0  19   5    2.46    2.62
  22  -3  -5   19.28    4.57
 -19  22  -5   14.51    3.77
  -3 -19  -5   21.68    4.67
 -22   3   5   23.36    4.23
  19 -22   5   21.35    7.23
 -19  25  -5    0.54    3.66
  -6 -19  -5    7.49    5.06
 -25   6   5    6.31    4.26
  19 -25   5    8.39    5.30
 -19  28  -5   20.35    8.45
  -9 -19  -5   31.76    7.06
  19 -28   5   36.81    6.94
 -28   9   5   36.79    6.45
 -20  -6  -5  -11.76    4.78
  26 -20  -5   -1.23    5.55
  -6  26  -5   -3.30    4.30
 -26  20   5    2.35    4.72
   6 -26   5  -10.84    4.96
 -20  -3  -5   18.38    7.33
  23 -20  -5   14.30    4.73
  -3  23  -5    8.82    3.86
 -23  20   5    6.82    3.65
   3 -23   5    6.92    4.56
  20   3   5   16.96    6.63
  20 -20  -5    4.50    4.02
   0  20  -5   -0.80    2.95
   0 -20   5    0.80    3.36
  20   0   5    5.34    3.87
 -20  20   5    1.11    2.85
   3  17  -5   15.06    3.34
  17 -20  -5   16.81    3.81
 -17  20   5    4.36    2.74
 -17  20   5    9.23    3.58
  20  -3   5   16.13    4.01
  -3 -17   5   11.71    3.30
 -20   6  -5    3.76    2.33
   6  14  -5    4.40    2.48
  14 -20  -5   -1.08    2.53
  20  -6   5    1.35    3.03
  -6 -14   5    0.62    2.62
 -14  20   5    3.82    2.10
 -14  20   5    3.27    3.45
 -20   9  -5   24.76    2.97
   9  11  -5   30.34    3.57
  11 -20  -5   20.11    3.59
  -9 -11   5   26.41    3.01
  20  -9   5   26.57    3.93
 -11  20   5   26.97    3.18
  12   8  -5    2.16    2.41
 -20  12  -5    1.04    2.15
   8 -20  -5    3.38    2.59
  20 -12   5    1.67    2.52
 -12  -8   5    1.54    2.44
  -8  20   5    0.75    2.26
   5 -20  -5   33.10    4.21
 -20  15  -5   29.11    3.64
  15   5  -5   21.38    3.74
  -5  20   5   28.29    3.27
 -15  -5   5   29.77    3.48
  20 -15   5   25.63    4.50
 -20  18  -5    0.34    2.40
   2 -20  -5    0.21    3.19
  18   2  -5   -3.63    3.27
  -2  20   5   -0.83    2.47
  20 -18   5    1.47    3.19
 -18  -2   5    2.11    3.02
 -20  21  -5   16.58    4.03
  21  -1  -5   22.37    5.03
  -1 -20  -5   22.19    4.63
  20 -21   5   24.36    4.83
 -21   1   5   28.06    4.39
 -20  24  -5   -0.68    3.40
  -4 -20  -5    5.49    4.90
 -24   4   5   -4.14    3.91
  20 -24   5   -2.52    4.89
  -7 -20  -5   11.48    6.03
 -20  27  -5    8.37    5.21
 -27   7   5   24.13    5.54
  20 -27   5   22.87    6.92
  28 -21  -5   37.85    7.58
 -21  -7  -5   30.28    7.15
   7 -28   5   41.52    7.12
 -21  -4  -5    2.94    4.75
  -4  25  -5    7.20    4.38
  25 -21  -5   -2.79    5.87
  21   4   5    8.00    5.32
   4 -25   5    8.84    5.38
 -25  21   5    8.25    4.73
  -1  22  -5   39.74    4.92
  22 -21  -5   46.27    6.34
 -22  21   5   36.11    5.19
   1 -22   5   35.47    5.22
  19 -21  -5    1.80    3.91
   2  19  -5    2.54    3.12
 -19  21   5   -0.77    4.08
  -2 -19   5   -1.54    3.53
 -19  21   5    4.58    3.10
  21  -2   5    4.36    3.89
  16 -21  -5   35.18    5.00
   5  16  -5   28.48    3.83
 -21   5  -5   34.10    4.13
 -16  21   5   26.77    4.25
 -16  21   5   30.55    3.87
  -5 -16   5   39.47    4.42
  21  -5   5   36.21    5.02
   8  13  -5   -2.71    2.53
  13 -21  -5    1.75    3.33
 -21   8  -5    3.04    2.42
  21  -8   5   -3.80    3.07
  -8 -13   5    3.87    2.82
  -8 -13   5    5.48    2.76
 -13  21   5    1.06    2.36
  11  10  -5   19.55    3.36
 -21  11  -5   22.14    3.12
  10 -21  -5   10.31    3.32
 -10  21   5   23.19    3.22
 -11 -10   5   17.94    1.78
  21 -11   5   15.55    3.68
 -11 -10   5   23.19    2.59
 -11 -10   5   19.22    3.13
 -21  14  -5   10.30    2.82
  14   7  -5    3.54    2.86
   7 -21  -5    2.97    3.32
  21 -14   5    7.13    3.23
  -7  21   5    3.93    2.59
 -21  17  -5   12.69    2.85
   4 -21  -5    6.90    3.54
  17   4  -5    5.56    3.42
  -4  21   5    8.43    2.77
  21 -17   5   12.85    4.20
  20   1  -5   33.60    5.04
 -21  20  -5   26.05    3.90
   1 -21  -5   23.87    4.22
 -20  -1   5   35.29    4.56
  21 -20   5   24.87    4.87
 -21  23  -5    6.63    3.81
  -2 -21  -5   -1.06    4.46
 -23   2   5    4.36    4.06
  21 -23   5    7.19    4.33
  -5 -21  -5   34.61    6.45
 -21  26  -5   19.76    5.21
  21 -26   5   39.10    7.26
 -26   5   5   27.43    5.57
 -22  -5  -5    3.90    6.23
  -5  27  -5    1.80    5.43
  27 -22  -5   10.03    6.52
   5 -27   5   -0.53    6.30
 -22  -2  -5    6.05    4.28
  -2  24  -5    3.19    4.47
  24 -22  -5    4.18    5.49
  22   2   5    0.06    4.99
 -24  22   5    0.14    3.84
   2 -24   5    4.79    4.96
   1  21  -5   19.50    4.45
  21 -22  -5   31.07    5.16
  22  -1   5   20.36    6.14
 -21  22   5   19.44    4.30
  -1 -21   5   19.56    4.56
  18 -22  -5    3.53    3.72
   4  18  -5    2.49    3.13
  -4 -18   5    7.04    3.54
 -18  22   5    4.21    3.25
 -18  22   5   -7.62    5.96
  22  -4   5   -1.07    3.94
  15 -22  -5   27.15    4.85
 -22   7  -5   32.30    3.68
   7  15  -5   29.35    4.00
  -7 -15   5   39.21    4.77
  22  -7   5   24.77    4.59
 -15  22   5   31.12    4.14
 -22  10  -5   -0.34    2.42
  10  12  -5   -0.69    2.75
  12 -22  -5   -0.08    3.13
 -10 -12   5   -1.34    2.42
  22 -10   5   -0.71    3.06
 -12  22   5   -3.66    2.50
 -22  13  -5   39.07    3.86
  13   9  -5   47.27    5.04
   9 -22  -5   43.56    5.12
  22 -13   5   29.60    4.96
  -9  22   5   42.97    4.47
   6 -22  -5   -0.73    3.57
 -22  16  -5    2.00    2.96
  16   6  -5    4.19    3.38
  -6  22   5   -2.68    2.70
  22 -16   5    0.19    3.40
 -22  19  -5   36.27    4.58
  19   3  -5   31.50    5.03
   3 -22  -5   36.52    5.06
  -3  22   5   30.42    4.01
 -19  -3   5   36.52    4.98
 -22  22  -5    3.63    3.47
   0 -22  -5    2.39    4.64
  22   0  -5    5.29    5.23
 -22   0   5    0.68    4.06
  22 -22   5    1.69    4.37
 -22  25  -5   15.49    4.67
  -3 -22  -5   15.74    5.89
  22 -25   5    7.56    6.19
 -25   3   5   18.40    5.40
  26 -23  -5   10.82    6.92
  -3  26  -5   13.26    5.39
 -23  -3  -5   30.62    6.44
 -26  23   5   16.81    5.69
  23   3   5   31.43    6.79
   0  23  -5   -4.36    4.25
 -23   0  -5    7.81    4.73
  23 -23  -5    8.55    5.59
 -23  23   5    5.18    4.16
  23   0   5    1.27    5.53
   3  20  -5   17.78    4.38
  20 -23  -5   18.90    4.94
  23  -3   5   12.65    5.02
 -20  23   5   14.09    3.81
   6  17  -5    3.00    3.34
  17 -23  -5    0.96    5.35
  23  -6   5    1.65    3.64
 -17  23   5   -1.94    2.78
  14 -23  -5   38.63    5.54
 -23   9  -5   37.41    4.59
   9  14  -5   41.12    4.82
 -14  23   5   52.39    4.73
  23  -9   5   47.18    5.84
 -23  12  -5   -0.85    2.80
  12  11  -5   -2.47    3.29
  11 -23  -5   -0.06    3.68
  23 -12   5    5.02    3.61
 -11  23   5    1.30    2.87
  15   8  -5   24.88    4.18
   8 -23  -5   15.77    4.38
 -23  15  -5   17.49    3.56
  -8  23   5   18.94    3.69
  23 -15   5   25.38    4.53
 -23  18  -5   12.42    3.35
  18   5  -5   11.09    4.30
  -5  23   5   12.35    3.46
 -18  -5   5    9.94    4.21
  23 -18   5    6.52    4.60
  21   2  -5   -0.20    5.25
 -23  21  -5    1.56    4.00
   2 -23  -5    0.88    4.65
  23 -21   5    5.52    4.71
 -21  -2   5    6.22    4.56
 -23  24  -5    9.75    4.21
  -1 -23  -5   13.98    5.91
  23 -24   5   15.23    5.67
 -24   1   5   13.57    5.24
  -4 -23  -5   -1.80    6.57
  23 -27   5   -7.80    6.78
  25 -24  -5   15.00    6.71
  -1  25  -5   -0.60    5.19
 -24  -1  -5    6.98    5.63
  24   1   5    6.93    6.08
 -25  24   5   -6.57    4.12
  22 -24  -5    3.26    5.01
   2  22  -5   -4.00    4.42
 -24   2  -5    4.67    4.71
 -22  24   5   -2.38    4.20
   5  19  -5   11.23    4.26
  19 -24  -5   20.34    5.04
  24  -5   5   15.08    4.95
 -19  24   5    8.62    4.10
   8  16  -5   -2.16    3.83
  16 -24  -5   -4.00    3.49
 -16  24   5    1.98    3.61
  11  13  -5   32.00    4.37
  13 -24  -5   20.73    7.47
 -24  11  -5   23.75    3.73
 -13  24   5   21.94    3.83
  24 -11   5   28.61    6.31
  10 -24  -5    4.85    4.55
  14  10  -5   -4.09    3.74
  17   7  -5   37.52    5.55
   7 -24  -5   31.65    5.50
 -24  17  -5   23.66    4.34
  24 -17   5   22.67    5.35
 -24  20  -5    5.23    4.15
  20   4  -5    6.33    5.23
   4 -24  -5    1.77    4.20
  24 -20   5    8.25    4.56
 -20  -4   5    4.60    4.54
   1 -24  -5   22.77    5.24
  23   1  -5    6.97    6.84
 -24  23  -5   10.01    4.88
  24 -23   5   27.82    6.16
 -23  -1   5   11.26    5.31
  -2 -24  -5   -0.33    6.39
  24 -26   5   -6.57    6.97
 -25   1  -5   40.91    6.93
   1  24  -5   31.05    6.01
  24 -25  -5   49.03    8.03
  25  -1   5   45.55    7.48
 -24  25   5   34.94    5.98
  21 -25  -5   -1.12    4.80
   4  21  -5    1.26    4.34
  25  -4   5    5.56    5.62
 -21  25   5   -9.36    3.85
  18 -25  -5   24.23    5.43
   7  18  -5   35.20    5.18
  25  -7   5   26.53    5.37
 -18  25   5   19.14    4.23
  15 -25  -5    0.41    4.18
  10  15  -5    1.00    3.67
  25 -10   5    3.66    4.67
 -15  25   5    1.73    3.82
  12 -25  -5   22.83    5.14
  13  12  -5   26.56    8.42
 -25  13  -5   16.01    4.69
  25 -13   5   13.33    5.20
 -12  25   5   15.34    3.89
   9 -25  -5   -0.10    4.12
  16   9  -5   12.58    4.50
 -25  16  -5    6.01    3.76
  -9  25   5    6.26    3.86
  25 -16   5    4.48    4.95
   6 -25  -5   10.78    5.13
 -25  19  -5    7.33    4.09
  19   6  -5   19.83    5.33
  25 -19   5   17.92    5.88
  -6  25   5   13.09    4.99
 -19  -6   5    9.46    4.82
 -25  22  -5   -7.94    4.49
   3 -25  -5    9.08    5.72
  25 -22   5   18.78    6.18
   0 -25  -5    2.25    6.28
  25 -25   5   -1.69    6.62
   3  23  -5    1.41    5.25
  23 -26  -5   12.87    6.71
 -26   3  -5    5.23    5.53
 -23  26   5    9.14    4.73
  26  -3   5    9.84    6.35
   6  20  -5    4.57    4.84
  20 -26  -5   -0.91    5.57
 -20  26   5    0.09    3.95
  26  -6   5   -9.33    5.44
  17 -26  -5   13.53    5.77
   9  17  -5    5.33    4.49
  26  -9   5   15.22    5.32
 -17  26   5   15.29    4.75
  12  14  -5   -4.39    4.22
  14 -26  -5   -3.03    4.79
 -14  26   5   -0.23    3.43
  26 -12   5   -3.41    5.10
 -26  15  -5   17.33    4.31
  15  11  -5   13.21    6.96
  11 -26  -5   16.53    5.43
 -11  26   5   10.93    4.27
  26 -15   5   18.33    5.27
   8 -26  -5    8.28    5.26
 -26  18  -5    3.20    3.70
  26 -18   5    1.80    5.68
  -8  26   5    0.87    4.06
   5 -26  -5   32.81    6.73
 -26  21  -5   37.56    5.78
  26 -21   5   31.89    7.09
   2 -26  -5   -2.61    6.31
  26 -24   5   14.64    6.94
  22 -27  -5   24.79    7.24
  27  -5   5   12.82    6.57
  19 -27  -5   -2.42    5.77
 -19  27   5   -1.92    4.56
  27  -8   5   -1.97    5.75
  16 -27  -5   27.36    6.32
  27 -11   5   15.94    5.54
 -16  27   5   14.21    4.78
  13 -27  -5    0.97    5.55
 -27  14  -5    0.65    4.39
 -13  27   5    0.97    4.01
  27 -14   5    4.37    4.93
  10 -27  -5   22.39    5.94
 -27  17  -5    9.44    4.23
 -10  27   5   14.50    4.74
  27 -17   5   22.11    6.50
   7 -27  -5   10.88    5.30
 -27  20  -5    7.86    5.04
  27 -20   5    4.30    6.30
   4 -27  -5   15.85    6.53
  27 -23   5   20.66    6.61
  21 -28  -5   24.84    7.05
  28  -7   5   13.49    7.18
  18 -28  -5    5.94    6.14
 -18  28   5    3.87    5.06
  28 -10   5    4.80    6.55
  15 -28  -5    3.73    6.41
 -15  28   5   11.73    4.93
  28 -13   5    6.72    5.53
  12 -28  -5   -1.24    5.79
 -28  16  -5    3.18    4.95
 -12  28   5  -11.24    4.29
  28 -16   5   12.34    6.29
 -28  19  -5   17.83    5.45
   9 -28  -5   21.94    6.68
  28 -19   5    7.32    6.88
  17 -29  -5   -1.42    5.68
  29 -12   5    5.19    6.60
  14 -29  -5    0.62    6.32
  29 -15   5   11.53    6.89
 -14  29   5    9.02    5.47
  11 -29  -5   -6.12    6.20
 -29  18  -5    5.23    5.73
  29 -18   5  -14.15    6.75
   0   0  -6  455.77   11.74
   0   0  -6  463.99   10.98
   0   0   6  455.41   11.70
   0   0   6  453.07   10.99
   2  -1  -6    5.12    0.91
  -1   2  -6    4.59    0.57
  -1  -1  -6    4.56    0.65
  -1  -1  -6    5.51    0.89
  -1   2  -6    5.18    1.01
  -1  -1  -6    4.50    0.44
   2  -1  -6    4.47    0.60
   1  -2   6    4.80    0.94
  -2   1   6    4.49    0.86
   1   1   6    6.39    0.80
   1  -2   6    5.61    0.66
   1   1  -6    5.30    0.65
   1  -2  -6    5.37    0.62
   1   1  -6    6.46    1.06
   1  -2  -6    5.46    0.97
  -2   1  -6    5.44    0.51
   1  -2  -6    5.19    0.65
  -2   1  -6    3.96    0.88
   2  -1   6    5.54    0.76
  -1  -1   6    4.68    0.37
  -1   2   6    5.32    0.88
  -1  -1   6    5.67    0.87
   4  -2  -6  518.51   13.26
  -2  -2  -6  546.06   13.52
   4  -2  -6  528.51   13.45
  -2   4  -6  537.00   13.08
  -2  -2  -6  553.65   13.40
   4  -2  -6  531.61   12.81
   2  -4   6  518.70   13.88
   2   2   6  552.92   13.46
   2  -4   6  542.30   13.07
   2   2   6  514.67   13.42
  -4   2   6  531.12   13.48
   3  -3  -6    7.11    0.86
   3  -3  -6    7.76    0.91
   0   3  -6    6.52    0.75
  -3   0  -6    5.33    0.93
  -3   0  -6    7.04    0.42
   3  -3  -6    7.32    1.09
  -3   3   6    7.75    1.02
   0  -3   6    6.52    0.62
   0  -3   6    7.47    1.11
   3   0   6    7.23    0.94
  -3   3   6    7.03    0.81
   3   0   6    6.40    0.91
   0  -3  -6    1.23    0.53
   0  -3  -6    1.26    0.76
   3   0  -6    2.08    0.56
   3   0  -6    1.84    0.24
  -3   3  -6    1.98    0.46
   3   0  -6    1.20    0.73
   0   3   6    0.63    0.53
   3  -3   6    1.66    0.62
  -3   0   6    2.65    1.16
   6  -3  -6    7.44    1.10
  -3   6  -6    6.43    0.88
  -3  -3  -6    6.04    1.00
  -3  -3  -6    6.33    1.02
   6  -3  -6    6.05    0.84
   6  -3  -6    6.89    1.10
   3  -6   6    6.07    0.98
   3   3   6    4.50    0.88
  -6   3   6    6.16    0.95
   3   3   6    8.02    1.26
  -6   3   6    5.11    0.95
  -4  -1  -6    2.04    0.82
  -1   5  -6    3.82    0.74
   5  -4  -6    3.12    0.70
   5  -4  -6    3.72    0.97
   5  -4  -6    5.83    1.00
   4   1   6    2.97    0.81
   1  -5   6    3.67    0.69
   4   1   6    3.70    0.94
  -5   4   6    2.04    0.72
  -5   4   6    2.39    0.73
   2  -4  -6  540.86   13.20
   2  -4  -6  513.10   13.47
   2   2  -6  523.13   13.15
  -4   2  -6  546.05   12.69
   2   2  -6  534.25   13.51
  -4   2  -6  523.49   13.71
   4  -2   6  535.20   13.66
   4  -2   6  548.01   13.42
  -2   4   6  537.35   13.50
  -2   4   6  531.99   12.85
  -2  -2   6  515.35   13.49
   5  -1  -6   -0.06    0.69
  -1  -4  -6   -0.52    0.61
  -4   5  -6    0.69    0.55
  -1  -4  -6    0.49    0.60
   5  -1  -6    1.95    0.65
   5  -1  -6    0.14    0.42
  -5   1   6    0.58    0.57
   1   4   6    0.09    0.28
   1   4   6    0.56    0.62
   1   4   6    0.99    0.73
   4  -5   6    1.37    0.68
   8  -4  -6  599.55   14.81
   8  -4  -6  584.35   15.36
  -4   8  -6  591.08   14.91
  -4  -4  -6  585.54   15.32
  -4  -4  -6  605.19   15.04
   4   4   6  587.19   15.44
   4  -8   6  576.81   15.04
   4  -8   6  588.22   15.07
  -8   4   6  599.50   14.80
  -8   4   6  578.01   15.23
   7  -5  -6    4.19    1.00
  -5  -2  -6    5.32    0.51
  -2   7  -6    4.93    0.92
  -5  -2  -6    2.81    0.97
   7  -5  -6    4.14    1.19
   7  -5  -6    6.02    1.20
   5   2   6    4.23    1.02
  -7   5   6    4.90    1.00
   5   2   6    5.95    1.00
  -7   5   6    5.65    0.98
   2  -7   6    5.11    0.95
  -5   1  -6   27.01    1.02
  -5   1  -6   23.52    1.74
   4  -5  -6   24.99    1.49
   4  -5  -6   23.02    1.72
   1   4  -6   22.88    1.43
   5  -1   6   24.91    1.65
  -1  -4   6   26.30    2.82
   5  -1   6   26.20    1.71
  -4   5   6   25.18    1.39
  -4   5   6   22.48    1.57
  -1  -4   6   24.59    1.11
   1  -5  -6    0.86    0.84
   1  -5  -6   -0.04    0.56
   4   1  -6    0.41    0.57
   4   1  -6    0.58    0.78
   4   1  -6    0.22    0.31
  -5   4  -6   -0.12    0.54
   5  -4   6   -0.55    0.79
  -1   5   6   -0.75    0.37
   5  -4   6   -0.03    0.84
  -4  -1   6    0.22    0.59
   7  -2  -6    1.16    0.88
   7  -2  -6    1.47    0.69
  -2  -5  -6    1.66    0.87
  -2  -5  -6    0.46    0.81
   7  -2  -6   -0.17    0.71
  -5   7  -6    1.00    0.65
   2   5   6    1.04    0.78
   2   5   6   -1.12    0.67
   2   5   6    0.92    0.39
   5  -7   6    0.85    0.80
  -7   2   6    1.16    0.64
  -5  -5  -6   -0.35    1.00
  -5  -5  -6    0.47    0.96
  -5  10  -6    0.93    0.84
  10  -5  -6    0.86    1.02
  10  -5  -6   -1.76    0.97
 -10   5   6   -0.53    0.93
   5 -10   6    0.55    0.99
   5   5   6    1.43    0.59
   5   5   6   -0.18    1.06
   5   5   6   -0.47    0.83
   5 -10   6   -0.42    1.19
 -10   5   6    0.57    0.71
  -6  -3  -6   -0.16    0.84
   9  -6  -6    0.46    1.16
   9  -6  -6    0.03    0.86
  -6  -3  -6    0.20    0.87
  -9   6   6   -0.47    0.90
   3  -9   6    0.09    1.03
   6   3   6    0.20    0.51
   3  -9   6    1.68    0.94
   6   3   6    0.55    0.81
   6   3   6    0.24    0.99
  -9   6   6    0.28    0.77
  -6   0  -6  515.42   13.21
   6  -6  -6  521.35   13.32
   0   6  -6  519.84   13.03
   6  -6  -6  522.32   13.11
  -6   0  -6  507.52   12.07
   6   0   6  489.29   12.97
   6   0   6  504.76   13.47
  -6   6   6  489.79   12.95
  -6   6   6  502.21   13.18
   0  -6   6  523.40   12.62
   3  -6  -6    2.59    1.00
   3   3  -6    2.75    0.70
   3  -6  -6    1.65    0.72
  -6   3  -6    1.98    0.55
  -3  -3   6    2.07    0.84
  -3  -3   6    2.05    0.43
  -3   6   6    2.74    0.82
   6  -3   6    4.14    1.09
  -3   6   6    2.04    0.61
   6  -3   6    1.46    0.88
   6   0  -6  757.15   19.16
   6   0  -6  795.27   18.39
  -6   6  -6  787.63   18.79
   6   0  -6  730.08   18.77
   0  -6  -6  785.69   19.34
   0  -6  -6  798.77   19.33
   6  -6   6  772.86   19.33
   0   6   6  766.76   18.27
  -6   0   6  754.14   18.73
   0   6   6  778.00   19.17
  -3  -6  -6   -1.21    0.89
   9  -3  -6    0.33    1.03
   9  -3  -6   -0.58    0.96
  -3  -6  -6    0.01    0.88
  -6   9  -6   -0.31    0.71
   6  -9   6    0.93    0.99
   3   6   6    0.26    0.91
  -9   3   6    0.34    0.65
  -9   3   6    1.23    1.13
   6  -9   6    1.28    1.04
   3   6   6    0.53    0.50
  -6  -6  -6  286.04    8.99
  12  -6  -6  287.67    9.24
  -6  12  -6  287.69    8.58
  -6  -6  -6  294.11    8.42
  12  -6  -6  289.20    8.65
   6 -12   6  279.88    8.72
   6   6   6  284.84    9.22
   6   6   6  297.35    7.93
   6 -12   6  292.46    9.06
 -12   6   6  294.75    8.13
 -12   6   6  289.12    8.91
   6   6   6  266.59    7.75
  -7  -4  -6    1.84    1.10
  11  -7  -6    0.61    1.05
  -4  11  -6    0.12    0.90
  -7  -4  -6    1.52    1.18
   7   4   6    1.43    0.68
   4 -11   6    1.09    1.38
 -11   7   6   -0.82    0.98
   4 -11   6    1.30    1.16
   7   4   6   -0.97    0.90
   7   4   6   -0.19    1.14
 -11   7   6    1.07    0.94
  -7  -1  -6    6.41    0.71
   8  -7  -6    5.92    1.18
  -7  -1  -6    5.75    1.13
  -1   8  -6    5.98    1.09
   1  -8   6    5.67    1.20
   1  -8   6    7.39    1.25
   7   1   6    7.34    1.08
  -8   7   6    7.28    1.19
  -8   7   6    5.35    1.07
   7   1   6    8.52    1.49
   5  -7  -6   12.11    1.51
   2   5  -6   12.41    1.23
  -7   2  -6   12.25    0.91
   5  -7  -6   11.36    1.50
  -2  -5   6   11.34    1.53
  -5   7   6   13.16    1.27
   7  -2   6   13.36    1.49
   7  -2   6   15.90    1.64
  -2  -5   6   12.62    1.03
  -5   7   6   11.16    1.40
   2  -7  -6    0.55    0.75
   5   2  -6    1.48    0.52
   2  -7  -6    1.38    1.02
  -7   5  -6    1.54    0.57
   5   2  -6    1.19    0.71
  -5  -2   6    1.20    0.71
  -2   7   6    0.58    0.59
  -5  -2   6    2.42    0.49
   7  -5   6    1.88    0.89
  -2   7   6    0.69    0.79
   7  -5   6    1.82    0.95
   8  -1  -6    4.11    0.91
  -1  -7  -6    4.31    1.18
  -1  -7  -6    5.79    1.23
  -7   8  -6    5.27    0.98
   8  -1  -6    3.32    1.04
   7  -8   6    4.71    1.17
   1   7   6    4.28    1.11
   1   7   6    4.01    0.69
  -8   1   6    2.72    0.71
   7  -8   6    3.79    1.22
  -4  -7  -6   -0.92    1.06
  11  -4  -6    0.62    1.22
  -4  -7  -6   -1.60    1.00
  11  -4  -6   -0.50    1.09
  -7  11  -6    0.07    0.95
 -11   4   6    0.46    1.05
   7 -11   6   -1.52    0.97
   7 -11   6    0.69    1.37
 -11   4   6    0.57    0.68
   4   7   6    0.09    0.71
   4   7   6   -1.22    0.96
  -7  -7  -6    2.54    1.41
  -7  -7  -6    2.34    1.61
  -7  14  -6    0.59    1.28
  14  -7  -6   -0.40    1.41
  14  -7  -6    0.88    1.65
   7   7   6    3.43    1.05
 -14   7   6   -0.11    1.29
   7   7   6    3.37    1.58
 -14   7   6   -0.16    1.01
   7   7   6    0.50    1.28
   7 -14   6   -0.25    1.48
   7 -14   6    0.52    2.00
  -5  13  -6   10.68    1.71
  -8  -5  -6   10.50    1.60
  -8  -5  -6    8.05    1.69
   8   5   6    9.27    1.30
   8   5   6   10.46    1.25
 -13   8   6    9.98    1.51
 -13   8   6    9.64    1.77
   5 -13   6   10.77    2.02
   5 -13   6    7.66    1.86
   8   5   6    7.34    1.78
  10  -8  -6  335.99    9.80
  -8  -2  -6  342.59    9.34
  -2  10  -6  342.75    9.62
  -8  -2  -6  339.46    8.55
   2 -10   6  319.18    9.41
 -10   8   6  337.57    9.55
 -10   8   6  342.10    9.81
   2 -10   6  348.04    9.63
   8   2   6  349.64    8.87
   8   2   6  337.95    8.66
   7  -8  -6    4.96    1.45
  -8   1  -6    4.71    0.70
  -8   1  -6    4.77    1.11
   1   7  -6    3.36    0.85
   7  -8  -6    3.30    0.99
  -1  -7   6    3.71    0.90
   8  -1   6    3.00    1.13
  -1  -7   6    4.76    0.97
  -7   8   6    4.00    1.07
  -7   8   6    3.85    0.96
   8  -1   6    5.71    1.11
   4   4  -6  612.20   15.12
  -8   4  -6  587.00   14.47
   4  -8  -6  620.29   15.46
   4  -8  -6  579.36   15.41
   8  -4   6  589.34   15.39
   8  -4   6  564.61   15.44
  -4  -4   6  581.36   14.23
  -4   8   6  602.89   15.29
  -4  -4   6  583.37   15.08
  -4   8   6  589.95   14.70
   7   1  -6   -0.60    0.66
   7   1  -6    0.96    0.85
   1  -8  -6   -0.18    0.83
  -8   7  -6    0.65    0.65
  -1   8   6   -0.99    0.75
  -7  -1   6    0.78    0.66
  -1   8   6   -0.99    0.59
   8  -7   6   -1.29    1.01
   8  -7   6   -0.69    0.91
  10  -2  -6  256.11    7.32
  10  -2  -6  252.80    7.92
  -2  -8  -6  261.04    7.80
  -8  10  -6  249.81    7.55
   8 -10   6  262.29    8.37
   2   8   6  259.71    7.50
   2   8   6  252.09    6.70
   8 -10   6  245.51    7.98
 -10   2   6  250.77    6.83
  13  -5  -6   15.72    2.02
  13  -5  -6   15.81    2.39
  -5  -8  -6   17.18    2.40
  -8  13  -6   17.97    1.99
  -5  -8  -6   18.09    2.07
   5   8   6   16.46    1.83
 -13   5   6   17.80    2.29
   8 -13   6   18.49    2.39
 -13   5   6   14.65    1.61
   5   8   6   16.08    1.49
  -8  -8  -6  177.46    7.22
  -8  -8  -6  169.15    6.12
  16  -8  -6  175.72    6.89
  -8  16  -6  167.79    6.48
 -16   8   6  171.53    5.76
   8 -16   6  167.87    7.13
   8   8   6  173.79    5.48
 -16   8   6  179.61    6.81
  15  -9  -6    1.13    1.73
  -9  -6  -6    3.23    1.65
  -6  15  -6    1.84    1.29
  -9  -6  -6    3.83    1.56
 -15   9   6    4.81    1.66
   6 -15   6    2.72    1.75
   9   6   6    1.86    1.24
   9   6   6    0.33    1.92
  12  -9  -6    3.43    2.81
  -9  -3  -6    1.47    1.19
  -9  -3  -6    1.38    0.90
  -9  -3  -6    1.15    1.17
  -3  12  -6    4.20    1.22
 -12   9   6   -0.18    1.15
   9   3   6    1.55    1.00
   3 -12   6    5.44    1.52
   9   3   6    2.37    1.03
 -12   9   6    1.96    1.30
   9   3   6    3.83    1.58
   3 -12   6    2.54    1.29
   0   9  -6    1.13    0.93
   9  -9  -6   -0.02    1.13
  -9   0  -6   -0.83    1.05
  -9   0  -6    1.10    0.70
  -9   9   6    0.10    0.85
   0  -9   6    1.49    0.93
   0  -9   6   -0.03    0.84
   9   0   6    0.73    1.20
  -9   9   6    0.80    1.04
   9   0   6    0.44    0.95
   6  -9  -6    0.08    1.22
   3   6  -6    2.57    0.93
   6  -9  -6    1.83    0.96
  -9   3  -6    2.28    0.70
   9  -3   6    1.44    1.13
  -3  -6   6    3.52    0.78
  -6   9   6    2.98    0.83
   9  -3   6    2.99    1.18
  -6   9   6    1.29    0.98
   6   3  -6    5.48    0.88
   6   3  -6    6.47    1.16
  -9   6  -6    5.97    0.92
   3  -9  -6    3.28    1.15
   3  -9  -6    5.84    1.60
  -6  -3   6    6.15    1.10
  -3   9   6    4.38    0.91
  -6  -3   6    5.86    0.83
  -3   9   6    8.42    1.35
   9  -6   6    5.44    1.47
   9  -6   6    4.03    1.23
   0  -9  -6    0.36    1.29
   9   0  -6    1.71    0.95
  -9   9  -6    1.99    0.95
   0  -9  -6    1.07    1.05
   9   0  -6    1.34    1.12
  -9   0   6    1.62    0.66
   0   9   6    1.08    1.09
   0   9   6    1.54    0.74
   9  -9   6    0.95    1.06
  -3  -9  -6    2.64    1.39
  -3  -9  -6    1.22    1.31
  12  -3  -6   -0.33    1.25
  -9  12  -6    2.17    1.14
  12  -3  -6    2.76    1.36
   9 -12   6    1.94    1.48
   3   9   6    0.66    0.82
   3   9   6    0.18    1.26
 -12   3   6    0.77    0.71
 -12   3   6    0.24    1.25
  -9  15  -6    2.70    1.41
  -6  -9  -6    2.57    2.13
  -6  -9  -6    5.86    2.50
  15  -6  -6    4.44    1.75
  15  -6  -6    3.38    1.86
   6   9   6    3.00    1.21
 -15   6   6    1.98    1.57
 -15   6   6    3.72    1.81
  -9  18  -6    0.67    1.83
  18  -9  -6    1.70    2.15
  -9  -9  -6    0.20    2.12
 -18   9   6   -0.29    1.40
   9 -18   6   -0.70    1.88
 -18   9   6    1.38    1.94
 -10  -7  -6    2.56    2.06
  17 -10  -6    3.85    2.36
  -7  17  -6    1.51    1.61
 -10  -7  -6   -1.00    1.74
 -17  10   6    4.68    1.77
  10   7   6   -2.23    2.23
   7 -17   6    1.37    2.03
 -17  10   6    1.53    1.41
  -4  14  -6  247.63    8.23
 -10  -4  -6  268.24    7.31
  14 -10  -6  266.84    8.84
 -10  -4  -6  259.64    7.63
 -14  10   6  267.60    8.19
 -14  10   6  255.78    8.54
  10   4   6  261.79    7.32
   4 -14   6  259.62    8.58
  11 -10  -6   -1.36    1.14
  -1  11  -6   -0.53    1.02
 -10  -1  -6    0.93    0.80
 -10  -1  -6    2.56    1.13
 -11  10   6    0.12    1.03
   1 -11   6    1.04    1.29
 -11  10   6    1.38    1.07
   1 -11   6   -1.44    1.06
  10   1   6   -0.74    0.89
  10   1   6    0.27    1.27
   2   8  -6  311.69    8.85
   8 -10  -6  321.78    9.28
 -10   2  -6  306.16    7.96
  -2  -8   6  296.66    8.38
  -2  -8   6  295.53    8.29
  -8  10   6  301.12    8.73
  -8  10   6  283.56    8.88
  10  -2   6  305.67    8.39
 -10   5  -6    1.29    0.76
   5 -10  -6   -0.44    1.09
   5   5  -6    1.79    1.05
   5 -10  -6    1.74    1.37
  -5  10   6    0.67    1.01
  -5  -5   6    2.08    0.78
  10  -5   6    1.69    1.15
  -5  10   6    1.88    0.83
  -5  -5   6    1.56    1.01
  10  -5   6    1.38    1.70
 -10   8  -6  333.15    9.13
   2 -10  -6  357.55    9.90
   8   2  -6  326.81    8.78
   8   2  -6  319.45    9.43
  -8  -2   6  325.03    8.55
  10  -8   6  314.03   10.05
  -8  -2   6  327.02    8.64
  -2  10   6  331.84    8.79
  -1 -10  -6    0.40    1.39
  11  -1  -6    0.44    1.13
  -1 -10  -6    0.85    1.13
  11  -1  -6    1.81    1.23
 -10  11  -6    0.33    0.99
 -11   1   6    0.65    0.63
   1  10   6    0.02    0.83
   1  10   6   -0.45    1.23
  10 -11   6    2.95    1.35
 -10  14  -6  194.82    6.76
  14  -4  -6  198.76    6.82
  14  -4  -6  199.21    7.45
  -4 -10  -6  195.84    7.47
  -4 -10  -6  195.39    6.89
 -14   4   6  196.02    5.61
  10 -14   6  202.64    7.44
   4  10   6  197.35    5.80
 -14   4   6  188.48    7.04
  -7 -10  -6    2.46    1.83
  17  -7  -6   -1.16    1.93
 -10  17  -6   -1.58    1.62
 -17   7   6    0.15    1.89
  10 -17   6    1.08    2.06
 -17   7   6   -0.44    1.18
  20 -10  -6  118.29    6.66
 -10 -10  -6  128.14    6.89
 -10  20  -6  115.36    5.92
 -20  10   6  124.65    5.06
  10 -20   6  120.78    6.78
 -20  10   6  119.74    6.11
 -11  -8  -6   -0.67    1.97
  -8  19  -6    2.65    2.15
  19 -11  -6    5.82    2.38
 -11  -8  -6   -1.27    2.36
   8 -19   6    4.59    2.38
 -19  11   6    1.47    2.04
 -19  11   6    3.22    1.86
 -11  -5  -6    5.56    2.13
 -11  -5  -6    3.84    1.54
 -11  -5  -6    2.49    1.46
  16 -11  -6    5.17    2.11
  -5  16  -6    2.84    1.46
 -16  11   6    0.72    1.61
 -16  11   6    0.99    1.58
  11   5   6    4.79    1.98
  11   5   6    4.32    1.90
   5 -16   6    2.38    2.04
 -11  -2  -6    1.36    1.04
 -11  -2  -6    1.71    1.19
  13 -11  -6   -3.19    1.48
  -2  13  -6    0.51    1.40
   2 -13   6   -1.42    1.44
 -13  11   6    1.22    1.38
 -13  11   6   -2.49    1.21
   2 -13   6   -0.62    1.30
  11   2   6    2.21    1.55
  11   2   6    1.00    1.19
 -11   1  -6    0.12    0.82
   1  10  -6   -0.84    0.94
  10 -11  -6   -0.51    1.17
 -10  11   6    0.09    1.27
  -1 -10   6    1.74    1.16
 -10  11   6    0.21    1.02
  11  -1   6   -0.52    1.10
  11  -1   6    0.53    1.33
  -1 -10   6    1.78    1.10
   7 -11  -6   -1.60    1.15
   7 -11  -6   -1.90    1.49
   4   7  -6    0.91    0.93
 -11   4  -6    0.49    0.80
  11  -4   6   -0.59    1.34
  -4  -7   6    0.74    0.89
  -4  -7   6    1.69    0.83
  11  -4   6    0.66    1.34
  -7  11   6    2.95    1.19
  -7  11   6    0.27    0.98
   4 -11  -6    5.49    1.48
   7   4  -6    1.46    1.00
 -11   7  -6    5.38    1.12
   4 -11  -6    3.57    1.73
  -4  11   6    3.48    0.97
  11  -7   6    2.68    1.36
  11  -7   6    4.65    1.84
  -7  -4   6    4.27    1.07
  -7  -4   6    4.05    0.96
  -4  11   6    2.39    1.31
  10   1  -6   11.79    1.56
  10   1  -6    8.80    1.68
   1 -11  -6    9.94    1.90
 -11  10  -6   11.19    1.52
  -1  11   6   11.84    1.77
  11 -10   6   10.23    1.99
 -10  -1   6    9.08    1.09
  -1  11   6   10.08    1.28
  13  -2  -6    1.42    1.51
  -2 -11  -6    4.37    1.82
  -2 -11  -6    2.57    1.41
  13  -2  -6    2.05    1.34
 -11  13  -6    2.42    1.71
 -13   2   6    1.05    0.66
   2  11   6   -2.47    1.46
   2  11   6    1.46    1.06
  11 -13   6   -0.30    1.67
 -13   2   6   -0.65    1.50
  16  -5  -6    7.25    2.35
  -5 -11  -6    6.21    1.94
 -11  16  -6    4.95    1.73
  16  -5  -6    5.63    2.02
   5  11   6    6.86    1.50
  11 -16   6    8.79    2.29
 -16   5   6    7.92    1.21
 -16   5   6    6.41    1.98
 -11  19  -6    5.17    2.01
  -8 -11  -6    4.84    2.32
  19  -8  -6    6.17    2.70
  11 -19   6    3.57    2.70
 -19   8   6    2.63    1.51
 -19   8   6   10.56    2.68
 -11 -11  -6   -0.99    2.69
  22 -11  -6   -1.31    3.35
 -11  22  -6    1.89    2.86
  11 -22   6    5.14    3.01
 -22  11   6   -2.54    2.56
  -9  21  -6    8.52    2.71
 -12  -9  -6    6.97    3.22
  21 -12  -6    0.79    2.98
 -21  12   6    4.66    2.49
 -21  12   6    9.23    2.26
   9 -21   6    5.43    2.78
  18 -12  -6  145.22    6.96
 -12  -6  -6  143.85    6.61
 -12  -6  -6  149.77    5.19
  -6  18  -6  154.98    6.50
 -18  12   6  140.62    6.39
 -18  12   6  137.97    5.88
   6 -18   6  142.13    6.66
  12   6   6  141.29    6.99
 -12  -3  -6   -0.21    1.56
  -3  15  -6    0.47    1.34
 -12  -3  -6    0.52    1.32
  15 -12  -6   -1.64    1.79
  12   3   6   -0.13    1.51
 -15  12   6   -0.53    1.87
  12   3   6    2.18    1.84
 -15  12   6   -0.15    1.44
   3 -15   6    1.55    1.64
   0  12  -6  218.45    7.40
  12 -12  -6  228.34    7.98
 -12   0  -6  221.40    6.37
  12   0   6  208.50    7.91
   0 -12   6  224.03    7.20
 -12  12   6  217.21    7.43
   0 -12   6  214.90    7.14
   9 -12  -6   -0.04    1.41
   3   9  -6    0.27    1.06
 -12   3  -6   -0.83    0.87
  -9  12   6    0.58    1.20
  -9  12   6    0.07    1.22
  12  -3   6    0.88    1.36
  12  -3   6    0.14    1.46
  -3  -9   6    2.43    1.13
  -3  -9   6    0.63    0.96
   6   6  -6  243.82    7.50
 -12   6  -6  242.15    7.01
   6 -12  -6  245.38    8.12
   6 -12  -6  234.19    7.95
  -6  -6   6  236.40    6.61
  12  -6   6  245.02    7.90
  -6  -6   6  229.81    6.79
  -6  -6   6  239.40    7.30
  12  -6   6  231.54    8.10
  -6  12   6  236.73    7.16
  -6  12   6  246.55    7.87
 -12   9  -6    2.59    1.15
   9   3  -6    3.01    1.11
   3 -12  -6    1.05    1.68
   3 -12  -6    4.17    1.50
   9   3  -6    3.68    1.31
  -3  12   6    4.58    1.52
  -3  12   6    3.46    1.10
  -9  -3   6    3.18    0.85
  12  -9   6    2.12    1.54
  -9  -3   6    3.25    1.04
   0 -12  -6  199.01    7.19
   0 -12  -6  190.44    6.99
 -12  12  -6  183.54    6.32
  12   0  -6  190.22    6.27
  12   0  -6  180.40    6.71
   0  12   6  185.60    5.70
   0  12   6  180.12    6.45
 -12   0   6  180.82    4.79
  12 -12   6  183.93    7.16
  15  -3  -6    1.18    1.66
  15  -3  -6    0.47    2.14
 -12  15  -6    0.24    1.35
  -3 -12  -6    3.18    1.67
 -15   3   6    1.12    1.76
  12 -15   6    1.80    2.04
 -15   3   6   -0.22    1.15
   3  12   6    1.15    1.41
  18  -6  -6  118.16    6.13
  -6 -12  -6  123.54    6.37
 -12  18  -6  125.03    5.72
  18  -6  -6  124.15    6.81
 -18   6   6  121.01    4.15
 -18   6   6  120.21    6.11
  12 -18   6  124.11    6.32
 -12  21  -6    3.27    2.50
  21  -9  -6   -3.60    3.01
  -9 -12  -6   -3.02    2.79
 -21   9   6   -2.29    2.34
  12 -21   6    2.28    2.99
  24 -12  -6   42.56    5.91
 -12 -12  -6   51.86    6.45
 -12  24  -6   50.69    5.66
 -24  12   6   42.70    5.04
  12 -24   6   57.06    6.68
 -10  23  -6   -1.94    2.63
  23 -13  -6   -2.72    3.87
 -13 -10  -6    3.74    3.70
  10 -23   6    9.32    3.73
 -23  13   6   -0.66    4.23
  20 -13  -6   -1.09    2.94
  -7  20  -6    1.36    2.36
 -13  -7  -6   -1.14    2.53
 -13  -7  -6    3.51    1.65
   7 -20   6    2.12    2.72
 -20  13   6    4.92    2.32
  13   7   6    1.05    2.68
 -20  13   6    2.76    2.22
 -13  -4  -6   -1.74    1.72
  -4  17  -6   -1.51    1.57
  17 -13  -6    3.43    2.19
   4 -17   6    0.70    1.75
 -17  13   6    1.18    1.83
 -17  13   6    1.26    1.81
  13   4   6   -1.95    2.04
 -13  -1  -6   -0.42    1.17
  14 -13  -6    0.64    1.76
  -1  14  -6    0.56    1.35
 -14  13   6   -0.17    1.60
 -14  13   6    1.02    1.54
   1 -14   6   -0.03    1.62
  13   1   6   -0.01    1.70
   2  11  -6    2.41    1.31
  11 -13  -6    2.58    1.67
 -13   2  -6    2.29    1.09
  13  -2   6   -2.65    1.61
 -11  13   6    4.02    1.60
 -11  13   6    2.04    1.56
  -2 -11   6    1.64    1.35
 -13   5  -6    8.69    1.35
   5   8  -6   11.33    1.74
   8 -13  -6    5.82    1.80
  -5  -8   6    5.92    1.32
  -8  13   6    8.08    1.86
  13  -5   6    9.43    2.07
  -8  13   6    7.71    1.45
  13  -5   6    8.70    1.96
  -5  -8   6    7.28    1.32
   5 -13  -6    5.32    1.82
 -13   8  -6    4.59    1.25
   8   5  -6    2.02    1.36
   5 -13  -6    1.62    1.89
  -8  -5   6    4.89    1.16
  -5  13   6    1.88    1.59
  13  -8   6    2.99    1.66
  -8  -5   6    2.59    0.81
  -8  -5   6    4.23    1.13
  13  -8   6    2.94    2.10
  -5  13   6    4.15    1.26
   2 -13  -6    3.66    2.87
   2 -13  -6   -1.57    2.09
  11   2  -6    0.20    1.45
  11   2  -6    1.06    1.35
 -11  -2   6    0.64    0.49
 -11  -2   6    1.17    1.11
  -2  13   6    1.17    1.06
  13 -11   6    0.64    1.83
  -2  13   6    0.64    1.62
 -11  -2   6   -0.32    0.55
  14  -1  -6    4.13    1.77
 -13  14  -6    1.14    1.56
  -1 -13  -6    1.40    1.90
  14  -1  -6    1.07    1.72
   1  13   6    1.68    1.34
 -14   1   6    3.40    1.90
  13 -14   6    5.13    1.96
  17  -4  -6   -0.38    2.03
  -4 -13  -6    2.32    2.30
  17  -4  -6    1.13    2.15
 -13  17  -6    3.42    2.00
  13 -17   6    1.23    2.31
   4  13   6    2.97    1.58
 -17   4   6   -0.91    1.75
  -7 -13  -6    2.40    2.50
  20  -7  -6   -1.27    2.79
 -13  20  -6   -1.51    2.33
 -20   7   6    2.15    2.29
  13 -20   6    2.45    2.95
 -13  23  -6   10.91    3.26
  23 -10  -6   21.30    4.53
 -10 -13  -6   13.08    3.49
  13 -23   6   16.89    4.31
 -23  10   6   17.15    5.29
  26 -13  -6    4.20    5.19
 -13  26  -6    0.38    3.62
 -13 -13  -6    2.88    4.70
  13 -26   6   -0.38    4.61
 -26  13   6    6.21    3.95
 -14 -11  -6    1.26    4.21
  25 -14  -6   -1.52    4.74
 -11  25  -6    5.22    3.80
 -25  14   6   14.82    4.22
  11 -25   6    0.98    4.46
 -14  -8  -6   79.05    6.32
  22 -14  -6   67.59    6.45
  -8  22  -6   67.92    5.17
   8 -22   6   57.70    5.43
 -22  14   6   71.06    5.83
  19 -14  -6   -0.89    2.40
  -5  19  -6    0.66    1.92
 -14  -5  -6    0.16    2.19
 -19  14   6    0.44    2.11
  14   5   6   -1.23    2.49
   5 -19   6    5.65    2.33
 -19  14   6    1.74    2.47
  -2  16  -6  184.85    7.08
 -14  -2  -6  198.86    6.91
  16 -14  -6  187.84    7.78
 -16  14   6  189.91    7.24
 -16  14   6  191.11    7.42
  14   2   6  179.67    7.87
   2 -16   6  193.20    7.39
   1  13  -6   -2.11    1.32
 -14   1  -6   -0.90    1.19
  -1 -13   6   -0.53    1.54
 -13  14   6    0.16    1.39
  14  -1   6    0.20    1.96
 -13  14   6    3.04    1.75
  10 -14  -6  212.44   11.18
 -14   4  -6  215.33    8.35
 -10  14   6  196.55    7.27
  -4 -10   6  200.38    6.61
  -4 -10   6  207.69    6.54
  14  -4   6  201.61    7.79
   7   7  -6   10.71    1.76
   7 -14  -6    5.50    2.26
 -14   7  -6    7.55    1.49
   7 -14  -6   11.04    3.25
  14  -7   6    7.77    3.31
  -7  -7   6    9.10    1.23
  -7  -7   6    8.40    1.43
  14  -7   6   11.30    2.60
  -7  -7   6    9.50    1.70
  -7  14   6    8.03    1.67
  -7  14   6    8.32    1.89
 -14  10  -6  346.49   10.27
   4 -14  -6  350.96   13.30
  10   4  -6  355.68   10.95
   4 -14  -6  368.44   11.47
  10   4  -6  358.79   10.14
  -4  14   6  358.27   10.93
  14 -10   6  352.21   11.52
 -10  -4   6  354.32    9.88
  -4  14   6  361.71   10.10
 -10  -4   6  351.10    9.03
 -10  -4   6  361.33    8.81
   1 -14  -6    2.51    2.02
 -14  13  -6    0.16    1.25
  13   1  -6    0.48    1.55
  13   1  -6    2.49    1.68
  -1  14   6    1.68    1.32
  14 -13   6    2.84    2.10
  16  -2  -6  196.10    8.08
  -2 -14  -6  180.38    7.77
  16  -2  -6  200.52    7.32
 -14  16  -6  195.90    7.21
  14 -16   6  178.47    7.93
   2  14   6  203.49    6.39
 -16   2   6  198.04    7.77
  19  -5  -6   -0.84    2.57
  -5 -14  -6   -1.67    2.52
 -14  19  -6    3.71    2.30
  19  -5  -6   -4.77    2.47
 -19   5   6    2.49    2.21
  14 -19   6   -2.09    2.40
 -14  22  -6   85.06    5.52
  22  -8  -6   83.72    6.72
  -8 -14  -6   75.96    6.40
  14 -22   6   76.13    6.19
 -22   8   6   73.29    6.03
 -14  25  -6    1.27    3.72
  25 -11  -6   -3.01    4.54
 -11 -14  -6    1.70    3.64
 -25  11   6   -0.66    3.87
  14 -25   6   -0.51    4.60
 -14 -14  -6   16.76    5.89
 -14  28  -6   15.89    4.75
 -28  14   6   20.07    5.14
  14 -28   6   16.61    6.47
  27 -15  -6    5.27    6.05
 -15 -12  -6   -1.94    5.05
 -12  27  -6   -6.09    3.61
 -27  15   6   -1.87    4.08
  12 -27   6   -2.75    5.06
  -9  24  -6   -5.62    2.98
  24 -15  -6    5.22    4.18
 -15  -9  -6   -1.68    3.82
   9 -24   6   -6.32    3.89
 -24  15   6    1.75    3.17
 -15  -6  -6    3.76    3.11
  21 -15  -6    3.01    3.40
  -6  21  -6    0.99    2.34
 -21  15   6   -0.01    2.77
   6 -21   6    3.36    2.67
 -21  15   6    2.60    2.65
  15   6   6   -1.08    3.36
  18 -15  -6   -1.87    2.26
  -3  18  -6    1.23    2.16
 -15  -3  -6   -0.41    2.09
 -18  15   6    0.57    2.00
 -18  15   6   -4.73    2.18
  15   3   6    3.23    2.47
   3 -18   6    0.51    2.23
 -15   0  -6    2.47    1.53
  15 -15  -6    4.71    2.14
   0  15  -6    3.64    1.87
   0 -15   6    4.46    2.12
  15   0   6    4.79    2.17
 -15  15   6    1.83    1.74
 -15  15   6    3.89    1.97
  12 -15  -6   -0.84    1.88
 -15   3  -6    0.33    1.33
   3  12  -6    2.29    1.46
 -12  15   6   -0.68    1.68
  -3 -12   6    0.03    1.48
 -12  15   6    1.28    1.40
  15  -3   6   -2.10    1.63
   6   9  -6    5.97    1.78
 -15   6  -6    6.82    1.58
  -6  -9   6   10.07    1.68
  -6  -9   6    6.93    1.52
  15  -6   6    8.46    3.34
  -9  15   6    9.53    1.85
  -9  15   6    8.92    2.26
   9   6  -6    0.03    1.53
   6 -15  -6    1.38    1.93
 -15   9  -6    3.37    1.47
  -6  15   6    0.56    2.00
  -6  15   6   -0.70    2.14
  -9  -6   6    0.94    1.28
  15  -9   6    0.29    1.99
  -9  -6   6    0.43    0.82
  -9  -6   6    0.83    1.16
  12   3  -6   -1.12    1.71
   3 -15  -6    3.00    1.87
 -15  12  -6   -0.56    1.30
  12   3  -6   -0.07    1.55
  15 -12   6    1.68    2.17
  -3  15   6    1.37    1.38
 -12  -3   6   -1.16    1.37
   0 -15  -6   21.86    3.30
  15   0  -6   14.28    2.54
 -15  15  -6   15.75    2.60
  15   0  -6   16.71    2.62
  15 -15   6   17.64    3.05
   0  15   6   20.06    2.22
 -15   0   6   14.14    2.50
  18  -3  -6    5.04    2.43
 -15  18  -6    4.87    2.01
  18  -3  -6   -2.97    2.69
  -3 -15  -6    1.89    2.35
 -18   3   6   -3.44    1.93
  15 -18   6    2.10    2.42
  -6 -15  -6    2.96    2.82
 -15  21  -6    1.71    2.39
  21  -6  -6   -1.04    3.27
  15 -21   6   -7.10    2.96
 -21   6   6    0.66    2.52
 -15  24  -6    5.00    3.60
  -9 -15  -6   -5.18    4.55
  24  -9  -6   -0.24    4.19
 -24   9   6    3.53    3.26
 -15  27  -6    3.35    4.04
 -12 -15  -6   17.60    5.63
 -27  12   6    6.41    4.44
  15 -27   6    6.19    5.41
 -16 -13  -6   -5.78    6.42
  13 -29   6   11.85    6.78
 -10  26  -6   49.42    5.98
  26 -16  -6   46.41    6.95
 -16 -10  -6   44.39    6.32
  10 -26   6   49.65    6.33
 -26  16   6   35.09    5.27
 -16  -7  -6    5.87    3.67
  -7  23  -6    0.87    3.22
  23 -16  -6   -2.32    4.00
  16   7   6    3.69    3.57
   7 -23   6    1.85    3.65
 -23  16   6    3.81    3.16
  -4  20  -6   80.32    5.16
  20 -16  -6   88.65    6.55
 -16  -4  -6   84.40    5.73
 -20  16   6   78.99    5.44
   4 -20   6   83.55    5.86
  16   4   6   93.45    6.66
 -20  16   6   96.36    5.95
  17 -16  -6    0.66    2.57
  -1  17  -6    1.75    1.85
 -17  16   6    6.02    2.61
   1 -17   6   -2.99    2.17
 -17  16   6    0.64    2.00
  16   1   6    3.36    2.73
   2  14  -6  147.48    6.25
  14 -16  -6  146.00    7.16
 -16   2  -6  158.14    5.46
 -14  16   6  151.50    7.30
  16  -2   6  146.82    6.93
 -14  16   6  147.54    6.21
  -2 -14   6  150.30    6.21
   5  11  -6    0.05    1.58
  11 -16  -6    3.98    1.87
 -16   5  -6    2.51    1.43
 -11  16   6    1.85    1.93
  16  -5   6    4.01    2.10
 -11  16   6    1.91    1.50
  -5 -11   6    6.33    1.75
   8 -16  -6  168.46    7.36
   8   8  -6  179.10    6.68
  -8  -8   6  172.91    6.05
  -8  -8   6  172.61    5.35
  -8  -8   6  179.66    6.07
  16  -8   6  175.53    7.45
  -8  16   6  169.30    7.02
  -8  16   6  169.10    6.22
 -16  11  -6    3.91    1.61
  11   5  -6    3.83    1.78
   5 -16  -6    1.41    1.87
 -11  -5   6    0.41    1.01
  -5  16   6    2.83    1.81
 -11  -5   6   -0.68    1.41
  16 -11   6   -1.84    1.79
 -11  -5   6    1.29    0.60
  14   2  -6  126.26    6.12
  14   2  -6  133.28    5.79
   2 -16  -6  153.42    6.93
 -16  14  -6  126.77    5.51
  -2  16   6  133.36    5.24
  16 -14   6  127.26    6.58
 -14  -2   6  138.76    5.46
  17  -1  -6    5.91    2.93
  -1 -16  -6    5.59    2.39
  17  -1  -6    3.52    2.43
 -16  17  -6    6.98    2.15
 -17   1   6    9.14    2.68
   1  16   6    5.85    2.36
  16 -17   6    3.18    2.58
 -16  20  -6   92.36    5.40
  20  -4  -6   92.02    6.24
  -4 -16  -6   98.86    6.65
  20  -4  -6   77.12    6.76
  16 -20   6   92.97    6.82
 -20   4   6   90.74    5.99
 -16  23  -6    0.83    2.86
  -7 -16  -6   -4.85    3.13
  23  -7  -6    4.97    4.02
 -23   7   6   -2.27    3.85
  16 -23   6   -1.37    3.86
 -16  26  -6   60.56    6.69
 -10 -16  -6   67.11    7.93
 -26  10   6   59.57    6.29
  16 -26   6   65.72    8.32
 -13 -16  -6   -7.18    6.47
  16 -29   6    8.30    6.69
 -17 -11  -6   19.49    6.24
 -11  28  -6   11.37    4.84
  28 -17  -6   -3.33    6.51
  11 -28   6   -7.73    5.80
 -28  17   6    3.01    5.24
 -17  -8  -6    5.94    4.60
  25 -17  -6    0.88    4.75
  -8  25  -6    3.62    4.01
   8 -25   6    0.82    4.52
 -25  17   6    8.25    3.73
  22 -17  -6    1.86    3.48
 -17  -5  -6    7.23    3.60
 -22  17   6    4.45    2.99
   5 -22   6    7.63    3.66
  17   5   6    3.89    3.97
  19 -17  -6    5.79    3.27
  -2  19  -6    6.10    2.67
 -17  -2  -6    4.67    2.39
   2 -19   6    3.04    2.89
 -19  17   6   -0.93    2.88
  17   2   6    2.87    3.20
 -19  17   6   -0.43    2.62
  16 -17  -6    0.00    2.52
   1  16  -6   -1.56    1.77
  -1 -16   6    3.35    2.32
  17  -1   6   -0.21    2.26
 -16  17   6    2.76    2.55
 -16  17   6   -2.39    1.87
 -17   4  -6   -0.63    1.71
  13 -17  -6   -0.64    2.32
   4  13  -6    3.41    2.03
 -13  17   6    2.68    2.04
 -13  17   6    3.02    2.42
  17  -4   6    2.30    2.18
  -4 -13   6    1.91    1.83
  10 -17  -6   -1.15    1.93
 -17   7  -6    1.24    1.60
   7  10  -6    1.34    1.80
  17  -7   6   -0.77    2.26
 -10  17   6    0.79    1.73
  -7 -10   6    4.91    1.80
  -7 -10   6    2.81    1.49
 -10  17   6    0.28    2.30
  -7 -10   6    1.10    1.85
 -17  10  -6   -0.29    1.69
   7 -17  -6    1.25    2.04
  10   7  -6    3.84    1.80
 -10  -7   6    2.88    1.03
 -10  -7   6    2.43    1.29
 -10  -7   6   -2.34    1.54
  -7  17   6    0.51    1.70
  17 -10   6    4.55    2.22
   4 -17  -6    0.77    2.26
  13   4  -6    3.49    2.01
 -17  13  -6    4.06    1.87
  13   4  -6   -0.79    1.95
 -13  -4   6   -0.60    1.69
  -4  17   6    3.96    1.67
  17 -13   6   -0.31    2.20
 -17  16  -6    2.64    1.92
  16   1  -6    2.43    2.56
   1 -17  -6   -4.38    2.42
  16   1  -6    3.65    2.46
  17 -16   6    1.54    2.65
 -16  -1   6    4.31    2.20
  -1  17   6   -2.69    1.70
 -16  -1   6   -0.29    2.05
  19  -2  -6    0.78    2.77
  -2 -17  -6    8.92    2.95
 -17  19  -6    8.11    2.60
  19  -2  -6    5.34    3.28
 -19   2   6    6.53    3.07
  17 -19   6    8.28    3.54
 -17  22  -6   -0.06    3.18
  -5 -17  -6    4.31    3.71
 -22   5   6    0.16    2.91
  17 -22   6    6.23    3.79
 -17  25  -6    8.01    3.71
  -8 -17  -6    6.86    4.79
 -25   8   6    3.67    4.09
  17 -25   6    2.19    5.03
 -11 -17  -6    5.63    5.72
 -17  28  -6   -0.24    4.95
  17 -28   6   -0.08    6.05
 -28  11   6   -7.27    5.07
  27 -18  -6   11.37    6.26
 -18  -9  -6    8.30    5.56
  -9  27  -6    3.40    4.08
 -27  18   6    5.77    4.78
   9 -27   6   12.68    5.82
  24 -18  -6   49.03    6.84
 -18  -6  -6   44.06    5.83
  -6  24  -6   38.71    4.90
   6 -24   6   35.51    5.57
 -24  18   6   51.35    5.82
  18   6   6   46.85    6.39
 -18  -3  -6   10.85    3.63
  21 -18  -6   -0.36    3.70
  -3  21  -6    9.54    3.27
  18   3   6    0.59    3.43
   3 -21   6    4.31    3.44
   0  18  -6   82.33    5.09
  18 -18  -6   89.94    6.47
 -18  18   6   81.44    5.63
 -18  18   6   87.73    6.04
   0 -18   6   83.72    5.51
  18   0   6   85.17    6.48
   3  15  -6   -3.25    1.81
  15 -18  -6   -5.44    2.56
 -18   3  -6    2.63    1.86
 -15  18   6   -3.11    1.94
  -3 -15   6    5.15    3.57
  18  -3   6    0.01    2.67
 -15  18   6    0.61    2.45
   6  12  -6  142.85    6.03
  12 -18  -6  144.00    7.24
  18  -6   6  124.87    7.01
 -12  18   6  139.97    6.16
  -6 -12   6  145.39    5.89
 -12  18   6  140.48    6.96
   9 -18  -6    4.40    2.21
 -18   9  -6    3.22    1.85
   9   9  -6    2.63    2.08
  -9  -9   6    5.50    1.41
  -9  18   6    4.62    1.83
  18  -9   6   -0.11    2.14
  -9  -9   6    5.88    1.93
  -9  -9   6    5.00    1.85
   6 -18  -6  129.21    6.56
  12   6  -6  134.00    6.01
 -18  12  -6  135.24    5.73
  -6  18   6  128.80    5.52
 -12  -6   6  129.20    5.46
  18 -12   6  124.05    6.66
 -18  15  -6    4.10    2.17
   3 -18  -6    0.21    2.68
  15   3  -6    0.66    2.45
  15   3  -6    3.62    2.25
  18 -15   6    6.26    2.67
  -3  18   6   -1.13    1.87
 -15  -3   6    0.30    1.98
  18   0  -6   91.62    6.95
 -18  18  -6  101.07    5.82
  18   0  -6   96.74    6.55
   0 -18  -6   96.56    6.36
  18 -18   6  108.15    6.75
   0  18   6  105.00    5.16
 -18   0   6  100.86    5.58
 -18   0   6  105.19    6.03
  21  -3  -6    0.14    4.01
  -3 -18  -6   -6.05    3.33
 -18  21  -6    1.78    2.92
 -21   3   6    8.67    3.42
  18 -21   6   -1.96    3.77
 -18  24  -6   59.71    6.21
  -6 -18  -6   54.51    6.94
 -24   6   6   53.52    6.65
  18 -24   6   59.37    7.11
 -18  27  -6    5.31    4.79
  -9 -18  -6   -0.06    4.70
 -27   9   6    3.65    5.00
  18 -27   6   11.90    5.99
  26 -19  -6   15.10    5.76
 -19  -7  -6  -11.58    4.64
  -7  26  -6    2.74    3.96
   7 -26   6    4.41    5.32
 -26  19   6    0.67    4.63
  -4  23  -6    1.45    3.14
 -23  19   6    1.34    3.31
   4 -23   6    4.67    4.04
  -1  20  -6    0.74    2.93
 -19  -1  -6    3.26    3.26
  20 -19  -6   -3.26    3.70
 -20  19   6   -3.89    3.98
 -20  19   6   -0.51    5.38
   1 -20   6   -4.14    2.93
  19   1   6    0.60    3.15
  17 -19  -6    7.65    3.17
   2  17  -6    8.58    2.81
  -2 -17   6    9.38    3.05
 -17  19   6    4.96    2.50
 -17  19   6    8.66    3.07
  19  -2   6    2.87    3.19
  14 -19  -6   -1.20    2.31
   5  14  -6    0.98    2.00
 -19   5  -6   -2.77    1.91
 -14  19   6    2.08    2.99
  19  -5   6    2.06    2.67
 -14  19   6   -1.24    1.91
  11 -19  -6   14.03    3.37
   8  11  -6    7.84    2.58
 -19   8  -6    4.99    2.06
 -11  19   6    7.83    2.22
  19  -8   6   10.75    3.11
  -8 -11   6    7.80    2.45
  -8 -11   6    5.72    2.39
  11   8  -6    1.80    1.93
   8 -19  -6    4.30    2.43
 -19  11  -6    2.03    2.00
  -8  19   6    1.34    1.84
 -11  -8   6   -4.30    1.95
  19 -11   6   -5.37    2.58
 -11  -8   6   -0.77    1.30
 -19  14  -6    0.98    1.92
   5 -19  -6    2.43    2.53
  14   5  -6    1.78    2.66
 -14  -5   6   -0.65    2.23
  -5  19   6    2.99    2.20
  19 -14   6   -0.81    2.35
 -19  17  -6    0.86    2.48
  17   2  -6    2.61    3.20
   2 -19  -6   11.08    3.20
 -17  -2   6    5.51    2.94
  19 -17   6    3.66    3.07
  -2  19   6    5.70    2.47
 -19  20  -6   -1.65    2.56
  20  -1  -6   -0.24    3.90
  -1 -19  -6    1.69    3.22
 -20   1   6    6.06    3.50
  19 -20   6   -1.78    3.70
  -4 -19  -6    9.37    4.55
 -19  23  -6    4.01    3.21
 -23   4   6    7.49    3.85
  19 -23   6   18.09    4.58
  -7 -19  -6    7.19    5.32
 -19  26  -6    7.41    4.56
 -26   7   6    3.67    4.58
  19 -26   6    1.34    5.44
 -20  -8  -6   27.45    6.90
  28 -20  -6   39.77    7.77
   8 -28   6   24.07    7.38
 -20  -5  -6    6.92    4.96
  25 -20  -6    7.86    5.42
  -5  25  -6    6.72    3.83
  20   5   6   -0.77    5.18
 -25  20   6   -0.82    3.79
   5 -25   6   14.04    5.14
  -2  22  -6   62.18    6.13
 -20  -2  -6   75.44    7.91
 -22  20   6   58.42    5.60
   2 -22   6   54.43    6.58
  20   2   6   62.84    8.20
   1  19  -6   -0.39    2.86
  19 -20  -6    4.93    3.97
  -1 -19   6    3.50    3.23
 -19  20   6   -1.82    2.68
 -19  20   6    0.70    3.74
  20  -1   6   -2.83    3.62
   4  16  -6   85.32    5.28
  16 -20  -6   81.11    6.18
  -4 -16   6   86.19    5.37
  20  -4   6   89.60    6.90
 -16  20   6   78.61    6.65
 -16  20   6   79.31    5.19
   7  13  -6    0.75    2.29
 -20   7  -6   -2.64    1.97
  13 -20  -6    0.24    2.88
  -7 -13   6   -1.16    2.71
  20  -7   6   -1.86    2.59
 -13  20   6    4.49    2.48
  -7 -13   6    2.02    2.52
  10  10  -6  116.60    6.10
  10 -20  -6  118.63    6.98
 -20  10  -6  117.12    5.45
 -10 -10   6  115.66    6.63
  20 -10   6  106.94    6.68
 -10 -10   6  112.82    4.93
 -10  20   6  111.51    5.67
  13   7  -6    0.16    2.30
 -20  13  -6    2.82    2.04
   7 -20  -6   -4.67    2.48
  20 -13   6    5.03    3.03
  -7  20   6    6.48    2.33
 -20  16  -6   97.77    5.71
  16   4  -6  101.78    6.07
   4 -20  -6  101.67    6.55
  -4  20   6   93.97    5.23
  20 -16   6  102.36    7.39
   1 -20  -6    9.53    3.44
  19   1  -6    2.49    3.87
 -20  19  -6    4.96    3.14
 -19  -1   6    1.84    3.56
  20 -19   6    9.37    3.97
  -2 -20  -6   47.86    7.31
  22  -2  -6   48.31    6.04
 -20  22  -6   49.21    5.69
  20 -22   6   45.98    6.40
 -22   2   6   44.30    5.24
 -20  25  -6   -4.71    4.13
  -5 -20  -6   -5.01    4.89
  20 -25   6    1.39    5.22
 -25   5   6    6.24    4.23
  -8 -20  -6   28.87    7.57
  20 -28   6   29.69    7.74
 -28   8   6   18.79    6.31
  -6  27  -6   -2.00    5.21
 -21  -6  -6    0.66    5.77
  27 -21  -6   -3.20    6.27
 -27  21   6    6.67    5.15
   6 -27   6   -1.31    6.13
  -3  24  -6   -1.59    4.11
 -21  -3  -6    0.67    4.63
  24 -21  -6    3.46    5.04
   3 -24   6    7.99    5.00
  21   3   6   -3.20    5.09
 -24  21   6    2.81    4.20
   0  21  -6    5.79    3.24
 -21   0  -6    8.35    4.77
 -21  21   6    3.11    3.21
  21   0   6    7.20    5.25
   0 -21   6   15.20    4.03
  18 -21  -6   -1.05    3.29
 -18  21   6    0.92    3.56
 -18  21   6   -2.12    3.92
  21  -3   6   -6.46    3.57
  -3 -18   6    0.56    3.21
 -21   6  -6    1.53    2.89
  15 -21  -6    5.21    3.44
   6  15  -6   -0.05    2.74
 -15  21   6    2.42    2.50
  21  -6   6    6.01    3.30
  -6 -15   6    5.07    3.09
   9  12  -6   -0.16    2.72
 -21   9  -6    3.25    2.45
  12 -21  -6   -4.24    2.72
  -9 -12   6   -1.68    2.49
 -12  21   6   -1.23    2.46
  21  -9   6    2.17    3.11
  12   9  -6    6.28    3.06
   9 -21  -6   11.87    3.46
 -21  12  -6    7.94    2.48
  21 -12   6   15.06    3.99
  -9  21   6    5.72    2.58
   6 -21  -6    6.63    3.35
  15   6  -6    5.39    3.11
 -21  15  -6    1.14    2.65
  21 -15   6    0.31    3.34
  -6  21   6    5.47    2.60
 -21  18  -6    1.32    2.99
   3 -21  -6    3.64    3.72
  18   3  -6    7.85    3.81
  -3  21   6    8.06    2.80
  21 -18   6    0.02    3.48
 -18  -3   6    1.17    3.14
   0 -21  -6   -1.40    4.52
 -21  21  -6   -5.17    2.89
  21   0  -6   -4.36    3.97
 -21   0   6    0.54    5.00
  21 -21   6    2.85    3.98
  -3 -21  -6    2.38    4.78
 -21  24  -6    4.25    3.74
  21 -24   6   -1.97    5.31
 -24   3   6    8.78    4.66
  -6 -21  -6    5.08    6.07
 -21  27  -6    5.72    5.08
  21 -27   6   16.49    6.53
 -27   6   6   16.48    5.63
  26 -22  -6   41.34    7.63
  -4  26  -6   49.06    6.48
 -22  -4  -6   60.86    7.38
  22   4   6   33.31    6.92
 -26  22   6   50.29    6.25
 -22  -1  -6    6.88    4.79
  -1  23  -6    1.77    4.07
  23 -22  -6    1.48    4.74
 -23  22   6   -7.55    3.81
  22   1   6    8.42    5.35
   2  20  -6   69.90    6.39
  20 -22  -6   69.41    7.95
 -20  22   6   57.48    6.12
   5  17  -6   -1.15    2.64
  17 -22  -6    1.78    4.02
  22  -5   6    4.04    3.54
 -17  22   6    4.49    3.68
 -22   8  -6   98.32    5.88
  14 -22  -6  119.19    7.55
   8  14  -6  115.20    6.59
 -14  22   6  106.66    6.08
  22  -8   6  112.83    7.30
 -22  11  -6    1.68    2.49
  11  11  -6    4.11    2.96
  11 -22  -6    3.32    3.11
 -11 -11   6   -0.34    1.98
 -11  22   6    4.46    2.93
  22 -11   6    4.63    3.25
 -22  14  -6   49.65    4.74
   8 -22  -6   60.53    5.76
  14   8  -6   52.89    5.02
  22 -14   6   64.95    6.74
  -8  22   6   63.53    4.50
  17   5  -6    3.15    3.68
   5 -22  -6    0.84    3.37
 -22  17  -6    3.22    2.70
  -5  22   6    2.84    3.17
  22 -17   6    9.65    4.27
 -22  20  -6   52.01    5.22
  20   2  -6   48.55    7.84
   2 -22  -6   57.43    6.91
  22 -20   6   59.40    6.75
 -22  23  -6   -2.00    3.84
  23  -1  -6    3.73    5.43
  -1 -22  -6    4.62    4.37
 -23   1   6   -7.25    4.41
  22 -23   6    5.43    5.27
  -4 -22  -6   23.13    6.41
 -22  26  -6   23.34    5.56
  22 -26   6   29.22    7.21
 -26   4   6   18.09    5.82
  25 -23  -6    1.67    6.00
  -2  25  -6   12.64    5.18
 -23  -2  -6    0.14    5.40
  23   2   6    1.62    6.01
 -25  23   6   -1.37    4.84
 -23   1  -6    1.12    4.14
  22 -23  -6   -6.64    5.16
   1  22  -6    3.63    3.68
 -22  23   6    3.46    3.77
  23  -1   6    0.89    4.91
  19 -23  -6    9.56    4.42
   4  19  -6    2.22    3.78
 -19  23   6    1.22    3.10
  23  -4   6    1.88    4.70
   7  16  -6   -6.56    3.08
  16 -23  -6   -0.15    3.79
  23  -7   6   -1.98    3.96
 -16  23   6    1.71    3.37
  10  13  -6   -1.74    3.08
  13 -23  -6    7.03    3.42
 -23  10  -6    0.26    2.92
 -13  23   6    1.20    2.61
  23 -10   6   -0.49    3.35
 -23  13  -6   -1.18    2.89
  13  10  -6   -4.14    3.25
  10 -23  -6   -3.92    3.30
  23 -13   6   -0.97    4.01
 -10  23   6    3.16    2.59
  16   7  -6    8.03    3.80
 -23  16  -6    5.35    2.83
   7 -23  -6    6.19    4.18
  23 -16   6   -0.76    4.79
  -7  23   6   -1.61    3.10
 -23  19  -6    9.98    3.54
  19   4  -6    5.54    4.89
   4 -23  -6    3.19    4.47
 -19  -4   6    0.13    4.40
  23 -19   6    7.03    4.72
  22   1  -6   -7.00    5.35
 -23  22  -6   -1.88    3.58
   1 -23  -6    0.92    4.64
 -22  -1   6   -0.73    4.42
  23 -22   6    6.13    5.49
  -2 -23  -6   20.37    6.31
 -23  25  -6   11.82    4.97
  23 -25   6   20.91    7.07
 -25   2   6   20.81    5.55
 -24   0  -6   42.32    6.35
  24 -24  -6   23.71    7.01
   0  24  -6   30.87    5.96
  24   0   6   18.02    6.35
 -24  24   6   22.26    5.62
   3  21  -6   -2.99    3.96
  21 -24  -6    2.20    4.66
  24  -3   6   -1.57    4.90
 -21  24   6   -5.40    3.87
  18 -24  -6   64.21    7.77
   6  18  -6   47.74    5.47
 -18  24   6   54.52    5.98
  24  -6   6   50.05    6.58
  15 -24  -6    4.42    3.82
 -15  24   6    7.13    3.16
  24  -9   6   11.32    5.99
  12  12  -6   56.63    5.59
  12 -24  -6   48.63    6.66
 -24  12  -6   58.18    5.25
 -12  24   6   58.19    5.67
   9 -24  -6    6.79    4.43
  15   9  -6   -3.13    3.94
  -9  24   6    1.49    3.97
  24 -15   6   -1.05    4.47
   6 -24  -6   64.74    7.54
  18   6  -6   69.63    7.33
 -24  18  -6   62.28    6.03
  24 -18   6   58.81    7.17
  -6  24   6   61.70    8.83
   3 -24  -6    6.56    4.46
 -24  21  -6   -5.20    3.55
  21   3  -6    1.75    5.57
  24 -21   6   -3.84    5.21
 -21  -3   6   -0.40    4.71
  24   0  -6   39.54    7.49
   0 -24  -6   52.71    7.14
 -24  24  -6   36.89    5.87
 -24   0   6   25.07    6.10
  24 -24   6   43.06    7.23
   2  23  -6    7.34    5.10
 -25   2  -6   14.96    5.75
  23 -25  -6    8.24    5.51
 -23  25   6   15.24    4.75
  25  -2   6    8.31    6.26
   5  20  -6  -10.75    4.20
  20 -25  -6    3.11    5.45
  25  -5   6   -2.29    4.63
 -20  25   6   -3.18    4.22
   8  17  -6   20.04    4.58
  17 -25  -6   16.61    5.32
 -17  25   6   14.55    4.06
  25  -8   6   12.40    4.86
  11  14  -6    2.13    4.07
  14 -25  -6   -6.98    4.64
 -14  25   6    0.28    3.69
  25 -11   6    2.07    4.92
 -25  14  -6   15.01    4.10
  11 -25  -6   12.41    5.12
  14  11  -6   13.32    4.34
 -11  25   6   13.97    3.92
  25 -14   6   19.99    4.71
 -25  17  -6    1.81    3.79
  17   8  -6   -4.23    4.59
   8 -25  -6    0.42    4.72
  -8  25   6    5.79    3.76
  25 -17   6    1.74    4.44
 -25  20  -6    7.84    4.55
   5 -25  -6    6.75    5.01
  20   5  -6   -1.50    5.26
 -20  -5   6   23.76    5.54
  25 -20   6   -2.39    5.34
   2 -25  -6   12.39    6.09
 -25  23  -6   13.10    4.88
  25 -23   6    0.97    5.81
   4  22  -6   19.48    5.67
  22 -26  -6   31.77    7.09
  26  -4   6   29.19    6.61
 -22  26   6   18.13    5.60
  19 -26  -6    5.92    5.85
   7  19  -6    8.27    4.71
  26  -7   6    6.53    5.75
 -19  26   6   -3.85    4.33
  16 -26  -6   34.74    6.65
  10  16  -6   30.25    5.35
 -16  26   6   35.19    4.96
  26 -10   6   30.86    6.51
  13  13  -6    5.67    4.74
  13 -26  -6    1.33    4.44
 -13  26   6    3.27    3.90
  26 -13   6    4.92    4.83
  16  10  -6   51.25    6.40
  10 -26  -6   51.88    6.69
 -26  16  -6   37.00    5.17
  26 -16   6   47.21    7.26
 -10  26   6   60.05    6.26
 -26  19  -6    1.10    4.59
   7 -26  -6    0.87    4.53
  26 -19   6   -2.61    5.47
 -19  -7   6    3.58    5.53
   4 -26  -6   39.32    6.65
 -26  22  -6   24.81    5.82
  26 -22   6   33.88    7.25
  21 -27  -6    7.58    6.39
   6  21  -6   18.14    6.20
 -21  27   6   11.41    5.47
  27  -6   6   22.99    6.02
   9  18  -6    3.56    5.61
  18 -27  -6   -9.94    5.52
 -18  27   6    2.42    4.71
  27  -9   6    5.22    5.29
  15 -27  -6    1.98    5.43
 -15  27   6    3.63    4.31
  27 -12   6    3.15    5.11
 -27  15  -6   -4.32    4.52
  12 -27  -6   11.52    5.71
 -12  27   6    1.08    4.15
  27 -15   6   -4.52    5.26
 -27  18  -6   11.40    4.76
   9 -27  -6   11.40    6.03
  27 -18   6   11.37    6.44
   6 -27  -6    9.11    6.06
 -27  21  -6    8.61    5.46
  27 -21   6    8.50    6.81
  20 -28  -6   47.81    7.71
  28  -8   6   30.78    7.35
  17 -28  -6   -4.38    5.46
 -17  28   6   -2.37    4.78
  28 -11   6   -1.12    6.14
  14 -28  -6   22.94    6.82
  28 -14   6   27.93    7.05
 -14  28   6   27.49    5.47
  11 -28  -6   -9.19    6.09
 -28  17  -6    3.61    4.88
 -11  28   6    7.49    4.95
  28 -17   6    2.21    6.42
   8 -28  -6   18.55    6.46
 -28  20  -6   22.30    5.99
  28 -20   6   30.24    7.79
  16 -29  -6    2.60    6.75
  29 -13   6   -6.88    6.78
  13 -29  -6   -7.63    6.36
  29 -16   6   -0.30    6.94
 -13  29   6   -4.01    5.50
   0   1  -7    8.85    1.25
   1  -1  -7    9.98    0.80
  -1   0  -7   10.11    1.29
   1  -1  -7    9.32    0.78
   1  -1  -7    9.35    1.22
   0   1  -7    9.44    0.84
  -1   0  -7    9.20    0.67
  -1   1   7   10.22    1.15
   0  -1   7    9.39    1.25
   1   0   7    8.36    0.90
   0  -1   7    9.01    0.73
   1   0   7    9.23    1.18
   3  -2  -7   25.15    1.19
   3  -2  -7   24.74    1.68
  -2  -1  -7   26.71    1.77
  -2  -1  -7   24.81    0.84
  -1   3  -7   25.04    1.28
   3  -2  -7   22.95    1.52
   2   1   7   25.29    1.50
  -3   2   7   25.95    1.68
   1  -3   7   23.39    1.83
   1  -3   7   25.40    1.22
   2   1   7   26.83    1.76
   0  -2  -7    8.49    0.69
   2   0  -7    5.83    0.47
   2   0  -7    6.40    1.04
  -2   2  -7    7.15    0.70
  -2   2  -7    6.83    1.29
   0  -2  -7    8.16    1.18
   0  -2  -7    8.05    0.88
   2  -2   7    4.03    0.99
   0   2   7    6.25    0.86
  -2   0   7    6.87    1.11
   2  -2   7    6.99    0.92
   0   2   7    9.97    1.25
   5  -3  -7   21.52    1.81
   5  -3  -7   24.37    1.55
  -2   5  -7   24.12    1.41
   5  -3  -7   24.16    1.33
  -3  -2  -7   23.05    1.55
  -3  -2  -7   28.46    1.88
   2  -5   7   23.41    1.39
   3   2   7   21.55    1.64
   3   2   7   21.38    1.62
   2  -5   7   24.28    2.13
  -5   3   7   21.46    1.58
  -3   1  -7   14.19    1.67
   2  -3  -7   20.32    1.69
   1   2  -7   19.62    1.72
   2  -3  -7   16.25    1.13
  -3   1  -7   17.92    0.82
   2  -3  -7   17.76    1.15
   1   2  -7   18.48    1.22
  -2   3   7   18.07    1.14
  -1  -2   7   15.63    1.87
  -2   3   7   18.13    1.53
  -1  -2   7   16.77    0.68
   3  -1   7   17.97    1.33
  -1  -3  -7    5.10    1.03
  -1  -3  -7    6.82    1.09
  -3   4  -7    5.22    0.76
   4  -1  -7    8.06    0.98
   4  -1  -7    6.71    1.10
   3  -4   7    6.23    0.92
   3  -4   7    7.14    1.36
   1   3   7    5.50    0.96
   1   3   7    6.99    1.10
  -3   7  -7    1.88    0.71
  -4  -3  -7    3.08    0.90
   7  -4  -7    1.30    0.86
   7  -4  -7    0.61    1.04
  -4  -3  -7    2.27    0.95
   7  -4  -7   -0.06    0.67
   4   3   7    1.41    1.00
   4   3   7    1.58    0.84
  -7   4   7    1.49    0.92
  -7   4   7    1.04    0.73
   3  -7   7    0.82    0.80
   0   4  -7    0.61    0.54
   4  -4  -7    0.21    0.83
   4  -4  -7   -0.09    0.56
  -4   0  -7   -0.05    0.76
   4  -4  -7    0.07    0.62
  -4   0  -7    0.15    0.24
   0  -4   7    1.44    0.96
   0  -4   7    0.00    0.43
   4   0   7    0.24    0.78
   4   0   7    1.11    0.71
  -4   4   7    0.85    0.72
  -4   4   7    0.05    0.51
   3   1  -7    0.21    0.58
  -4   3  -7    1.25    0.47
   1  -4  -7    0.47    0.90
   1  -4  -7    1.09    0.64
   3   1  -7    1.98    0.91
  -3  -1   7    2.08    0.85
  -1   4   7    0.42    0.41
  -1   4   7    1.92    0.78
   4  -3   7    0.16    0.66
   4  -3   7    0.09    0.77
   6  -2  -7   48.55    2.33
  -2  -4  -7   46.40    2.48
   6  -2  -7   45.09    2.39
  -2  -4  -7   50.42    2.45
  -4   6  -7   46.38    2.09
   6  -2  -7   49.57    1.87
   2   4   7   50.12    2.41
   2   4   7   47.60    2.51
   4  -6   7   49.30    2.35
   2   4   7   48.81    1.33
  -6   2   7   46.45    2.23
   9  -5  -7    0.29    0.89
  -5  -4  -7    2.14    1.02
  -4   9  -7    1.20    0.88
   9  -5  -7    0.83    1.07
   4  -9   7    0.47    0.90
  -9   5   7    0.03    0.79
   5   4   7    0.95    1.03
   4  -9   7    0.05    1.14
  -9   5   7    0.78    0.95
   5   4   7    0.83    0.41
   5   4   7   -0.03    0.90
   6  -5  -7  111.32    3.72
  -1   6  -7  111.30    3.76
   6  -5  -7  104.22    3.97
   6  -5  -7  107.96    4.09
  -5  -1  -7  109.25    4.02
   1  -6   7  109.14    3.47
   5   1   7  113.58    4.17
  -6   5   7  107.00    3.89
  -6   5   7  110.81    3.84
   5   1   7  111.78    3.90
  -5   2  -7    1.29    1.00
  -5   2  -7    2.67    0.49
   3  -5  -7    2.47    0.76
   3  -5  -7    2.50    0.98
   2   3  -7    1.46    0.64
   5  -2   7    1.00    0.73
  -2  -3   7    2.77    0.36
  -2  -3   7    1.75    0.92
  -3   5   7    3.19    0.67
   5  -2   7    1.78    0.93
  -3   5   7    3.14    0.86
   0  -5  -7   22.02    1.86
   5   0  -7   18.37    1.73
   0  -5  -7   20.29    1.64
  -5   5  -7   21.37    1.31
   5   0  -7   19.76    1.50
   5  -5   7   22.18    1.65
  -5   0   7   21.43    1.50
   0   5   7   19.63    1.00
   5  -5   7   16.76    2.00
  -5   8  -7   27.74    1.76
   8  -3  -7   32.25    1.82
  -3  -5  -7   30.05    2.13
  -3  -5  -7   30.62    2.09
   8  -3  -7   33.46    2.14
   5  -8   7   29.90    2.12
  -8   3   7   32.41    1.88
   3   5   7   28.46    2.17
   3   5   7   32.85    2.04
   5  -8   7   30.97    2.03
  -6  -5  -7    0.95    1.17
  -5  11  -7    2.12    1.14
  -6  -5  -7    0.14    1.12
  11  -6  -7    2.08    1.19
  11  -6  -7    1.73    1.36
   5 -11   7    3.83    1.33
   6   5   7    2.68    0.66
 -11   6   7    2.98    1.32
   5 -11   7    3.17    1.39
 -11   6   7    2.23    0.92
   6   5   7   -0.16    1.22
   6   5   7    2.33    1.11
  -6  -2  -7    5.47    1.20
  -2   8  -7    4.62    0.99
  -6  -2  -7    5.64    0.51
   8  -6  -7    4.45    1.07
   8  -6  -7    4.48    1.28
   6   2   7    4.44    1.10
   2  -8   7    5.04    1.08
  -8   6   7    5.51    1.13
  -8   6   7    3.90    1.09
   6   2   7    6.91    1.37
   5  -6  -7   14.42    1.43
  -6   1  -7   12.08    0.79
  -6   1  -7   13.63    1.67
   5  -6  -7   13.10    1.65
   1   5  -7   12.21    1.24
   6  -1   7   12.41    1.61
  -1  -5   7   11.95    1.01
   6  -1   7   15.21    1.61
  -5   6   7   14.65    1.33
  -1  -5   7   10.10    1.48
  -6   4  -7   83.41    2.74
   4   2  -7   81.38    3.13
   2  -6  -7   86.66    3.51
   2  -6  -7   84.75    3.29
  -4  -2   7   83.28    2.20
  -2   6   7   86.12    3.43
   6  -4   7   81.37    3.39
   6  -4   7   85.81    3.62
  -4  -2   7   84.57    3.28
  -2   6   7   86.46    2.75
  -1  -6  -7   23.18    2.02
  -1  -6  -7   21.44    1.78
   7  -1  -7   24.12    1.79
   7  -1  -7   21.78    1.37
  -6   7  -7   20.48    1.48
   1   6   7   23.09    1.07
   1   6   7   20.96    1.68
  -7   1   7   20.21    1.51
   6  -7   7   25.67    1.95
  -6  10  -7    1.03    0.96
  -4  -6  -7    1.51    1.12
  10  -4  -7    0.22    0.88
  10  -4  -7    1.08    1.12
   4   6   7    2.08    1.11
 -10   4   7    1.43    0.79
   6 -10   7    1.41    1.17
 -10   4   7    0.50    1.00
   4   6   7    0.18    0.53
   6 -10   7   -1.17    1.06
  13  -7  -7   25.72    2.86
  13  -7  -7   21.03    2.42
  -7  -6  -7   26.41    2.52
  -7  -6  -7   21.76    2.80
  -6  13  -7   20.80    2.41
 -13   7   7   21.64    2.45
   7   6   7   22.99    1.58
   7   6   7   26.87    2.16
   7   6   7   26.69    2.75
   6 -13   7   23.93    2.81
   6 -13   7   24.44    2.54
 -13   7   7   24.93    2.15
  -7  -3  -7   13.70    1.67
  -7  -3  -7   11.97    2.05
  10  -7  -7   11.44    1.65
  -7  -3  -7   12.79    0.95
  -3  10  -7   14.29    1.55
 -10   7   7   10.67    1.63
 -10   7   7   12.01    1.58
   3 -10   7   12.48    1.58
   7   3   7   15.17    1.71
   7   3   7   14.19    2.32
   3 -10   7   13.72    1.83
   7  -7  -7    2.59    0.99
  -7   0  -7    1.31    0.44
   0   7  -7    0.93    0.84
   7  -7  -7    1.23    1.15
  -7   0  -7    1.49    1.06
   0  -7   7    1.09    0.73
   7   0   7    3.67    1.12
  -7   7   7    1.09    0.83
  -7   7   7    2.32    0.84
   7   0   7    2.88    1.01
   4  -7  -7    1.62    1.25
  -7   3  -7    3.25    0.63
   4  -7  -7    2.40    0.91
   3   4  -7    3.38    0.86
   7  -3   7    2.77    1.01
  -4   7   7    0.84    0.63
  -4   7   7    3.07    1.10
  -3  -4   7    1.24    0.96
   7  -3   7    2.12    1.13
  -3  -4   7    2.66    0.56
   1  -7  -7   34.23    2.21
   6   1  -7   31.31    1.96
   1  -7  -7   31.24    2.38
  -7   6  -7   32.62    1.74
   7  -6   7   32.30    2.26
  -6  -1   7   30.28    1.87
  -1   7   7   32.34    1.51
   7  -6   7   31.89    2.44
  -2  -7  -7    0.90    1.11
   9  -2  -7    2.57    0.95
  -2  -7  -7    0.85    0.97
   9  -2  -7    1.08    0.97
   7  -9   7    1.23    1.01
   7  -9   7    3.41    1.35
   2   7   7    2.02    0.61
  -9   2   7    1.79    0.78
   2   7   7   -0.34    0.95
  12  -5  -7   32.10    2.58
  12  -5  -7   30.81    2.84
  -5  -7  -7   32.27    2.70
  -5  -7  -7   32.17    2.67
  -7  12  -7   32.86    2.32
   5   7   7   34.17    2.47
 -12   5   7   35.40    2.14
   5   7   7   36.17    2.83
   7 -12   7   41.89    3.21
   5   7   7   30.94    1.67
   7 -12   7   35.45    2.81
 -12   5   7   33.79    2.71
  -8  -7  -7   -1.23    1.52
  -8  -7  -7   -0.15    1.63
  15  -8  -7    0.69    1.65
  -7  15  -7    1.25    1.41
   8   7   7    0.13    1.23
   7 -15   7    1.97    1.67
 -15   8   7    0.83    1.48
 -15   8   7    2.18    1.27
   8   7   7    0.97    2.09
  -8  -4  -7    1.49    1.32
  -4  12  -7    1.10    1.11
  12  -8  -7    0.76    1.23
  -8  -4  -7    1.66    0.82
  -8  -4  -7    1.19    1.28
   8   4   7    1.33    1.15
   4 -12   7    2.65    1.37
   8   4   7    1.71    1.43
   8   4   7    1.92    0.85
 -12   8   7    3.65    1.18
 -12   8   7    0.29    1.21
   4 -12   7    4.44    1.52
   9  -8  -7    6.18    1.33
  -1   9  -7    5.84    1.17
  -8  -1  -7    6.02    1.35
  -8  -1  -7    6.82    0.85
   1  -9   7    5.37    1.31
  -9   8   7    6.34    1.30
   1  -9   7    7.16    1.23
   8   1   7    7.23    1.23
  -9   8   7    4.73    1.21
   8   1   7    5.59    1.45
   2   6  -7    0.71    0.81
  -8   2  -7    0.93    0.53
   6  -8  -7    2.88    1.05
   6  -8  -7    0.52    1.40
  -6   8   7    0.94    0.98
   8  -2   7    0.75    1.00
  -6   8   7    1.64    0.76
  -2  -6   7   -0.26    1.03
   8  -2   7    0.67    1.08
  -2  -6   7   -0.16    0.66
   3  -8  -7   10.12    1.56
  -8   5  -7    8.24    1.01
   5   3  -7    8.70    1.28
   3  -8  -7    9.63    1.48
  -5  -3   7    8.15    0.84
  -3   8   7   10.08    1.53
  -5  -3   7   11.36    1.45
  -3   8   7   10.27    1.11
   8  -5   7    8.98    1.70
   8  -5   7    8.91    1.42
  -8   8  -7    4.95    1.03
   8   0  -7    3.17    1.08
   0  -8  -7    3.39    1.06
   0  -8  -7    1.57    1.28
   8   0  -7    3.52    0.88
   0   8   7    1.79    1.16
   0   8   7    4.11    0.76
   8  -8   7    3.16    1.22
  -8   0   7    3.20    0.85
  -3  -8  -7   18.31    2.14
  11  -3  -7   15.21    1.79
  11  -3  -7   14.53    2.07
  -8  11  -7   17.05    1.79
  -3  -8  -7   17.02    2.13
   3   8   7   18.90    2.08
 -11   3   7   14.30    1.97
 -11   3   7   15.87    1.51
   8 -11   7   14.79    3.57
  -8  14  -7    0.26    1.18
  -6  -8  -7    1.76    1.75
  14  -6  -7    2.71    1.90
  -6  -8  -7    0.66    1.60
  14  -6  -7   -3.07    1.45
 -14   6   7    0.18    1.57
   6   8   7    1.54    0.99
 -14   6   7    0.48    1.01
   8 -14   7    4.40    1.79
  -9  -8  -7   11.11    2.72
  17  -9  -7   12.55    3.15
  -9  -8  -7   12.29    2.31
  -8  17  -7   11.54    2.31
 -17   9   7   13.51    1.96
 -17   9   7   14.07    2.46
   8 -17   7    8.54    2.49
  -9  -5  -7   22.25    2.87
  -9  -5  -7   20.68    2.54
  14  -9  -7   19.16    2.44
  -5  14  -7   16.90    2.19
  -9  -5  -7   19.80    1.77
   9   5   7   16.57    2.57
 -14   9   7   15.93    2.30
   5 -14   7   18.50    2.46
   9   5   7   16.09    1.73
 -14   9   7   15.66    2.00
  11  -9  -7    6.40    1.60
  -2  11  -7    4.47    1.31
  -9  -2  -7    9.77    1.64
  -9  -2  -7    6.92    0.91
   2 -11   7    7.00    1.57
   9   2   7    7.32    1.77
   2 -11   7    6.89    1.43
 -11   9   7    6.47    1.50
 -11   9   7    7.08    1.34
   9   2   7    5.10    1.22
  -9   1  -7   32.71    2.42
  -9   1  -7   29.31    1.49
   8  -9  -7   30.89    2.37
   1   8  -7   33.30    2.15
   9  -1   7   31.64    2.25
  -8   9   7   31.35    2.10
  -1  -8   7   35.19    2.07
  -8   9   7   29.32    2.34
   9  -1   7   28.85    2.44
   5  -9  -7    0.91    0.95
   5  -9  -7   -0.91    1.24
  -9   4  -7    0.51    0.67
   4   5  -7    0.59    0.80
   9  -4   7    1.32    1.11
  -4  -5   7   -0.22    0.98
  -5   9   7    0.72    0.96
  -4  -5   7   -0.48    0.61
   9  -4   7    1.79    1.31
  -5   9   7    0.43    0.78
   7   2  -7   34.42    1.68
   2  -9  -7   31.76    2.49
  -9   7  -7   28.35    1.84
   7   2  -7   30.44    2.14
   2  -9  -7   28.92    2.26
  -2   9   7   33.99    2.44
   9  -7   7   31.64    2.53
  -7  -2   7   32.23    1.57
  -7  -2   7   32.89    1.95
  -2   9   7   31.97    1.76
   9  -7   7   31.61    2.91
  -9  10  -7   21.55    1.83
  -1  -9  -7   19.75    2.08
  -1  -9  -7   20.50    2.37
  10  -1  -7   20.31    2.00
  10  -1  -7   23.34    2.22
   1   9   7   22.17    2.19
 -10   1   7   23.13    1.57
   9 -10   7   18.31    2.56
   1   9   7   19.95    1.43
  -4  -9  -7    0.94    1.60
  13  -4  -7   -0.35    1.49
  -9  13  -7    1.05    1.19
  13  -4  -7    0.64    1.39
  -4  -9  -7    1.44    1.47
   4   9   7    3.21    1.55
   9 -13   7    4.09    1.76
 -13   4   7   -1.44    0.81
 -13   4   7    4.96    1.65
   4   9   7    0.86    0.88
  -7  -9  -7   35.68    3.59
  -9  16  -7   41.99    3.11
  16  -7  -7   30.41    3.67
  16  -7  -7   41.05    3.34
  -7  -9  -7   37.98    3.45
 -16   7   7   39.78    3.36
 -16   7   7   37.42    2.55
  -9  19  -7   -0.26    1.98
 -10  -9  -7    4.04    2.24
  19 -10  -7    4.83    2.55
   9 -19   7   -0.23    2.41
 -19  10   7    5.08    2.26
 -19  10   7    2.40    1.78
 -10  -6  -7    1.61    1.82
  -6  16  -7    1.38    1.66
 -10  -6  -7    3.23    1.73
  16 -10  -7    1.83    2.12
 -16  10   7    1.71    1.52
   6 -16   7    4.06    2.02
 -16  10   7    1.98    1.74
  10   6   7    1.62    2.01
  -3  13  -7    4.57    1.42
  13 -10  -7    9.46    2.06
 -10  -3  -7    6.35    1.89
 -10  -3  -7    4.45    1.58
 -10  -3  -7    6.92    1.13
   3 -13   7    6.03    1.67
  10   3   7    5.84    2.00
 -13  10   7    5.70    1.59
   3 -13   7    4.43    1.93
 -13  10   7    7.69    1.62
  10   3   7    5.49    1.23
 -10   0  -7    2.47    1.05
   0  10  -7   -0.02    1.02
  10 -10  -7   -0.99    1.23
 -10   0  -7    2.15    1.49
  10   0   7    2.28    1.18
 -10  10   7    0.91    1.00
   0 -10   7   -0.23    1.07
  10   0   7   -0.94    1.21
   0 -10   7   -0.85    1.12
 -10  10   7    0.85    1.23
   3   7  -7   33.63    2.30
 -10   3  -7   31.99    1.73
   7 -10  -7   29.16    2.82
   7 -10  -7   29.19    2.35
  -3  -7   7   30.37    1.85
  -3  -7   7   32.30    1.92
  -7  10   7   36.40    2.48
  10  -3   7   31.74    2.45
  -7  10   7   33.20    2.39
  -3  -7   7   31.54    2.51
  10  -3   7   29.63    2.88
   6   4  -7    1.91    1.07
   4 -10  -7    1.52    1.22
   4 -10  -7    1.94    1.52
 -10   6  -7    0.72    0.82
  10  -6   7    2.52    1.24
  -6  -4   7   -1.40    0.87
  -4  10   7   -0.70    1.13
  -6  -4   7    0.83    0.69
  -4  10   7    1.85    0.89
  10  -6   7    0.36    1.48
   1 -10  -7   15.89    2.04
   9   1  -7   19.05    1.74
 -10   9  -7   18.56    1.82
   9   1  -7   20.93    2.04
   1 -10  -7   17.04    2.18
  -1  10   7   22.47    2.26
  10  -9   7   22.51    2.30
  -1  10   7   19.82    1.56
  -9  -1   7   19.86    1.51
  -2 -10  -7    1.71    1.49
  12  -2  -7    3.50    1.48
  -2 -10  -7    1.48    1.26
  12  -2  -7    1.50    1.27
 -10  12  -7    0.74    1.16
 -12   2   7    1.83    0.80
  10 -12   7    1.75    1.41
   2  10   7    1.19    1.43
   2  10   7    1.43    0.88
  15  -5  -7   19.09    2.78
  -5 -10  -7   15.04    2.52
  -5 -10  -7   19.63    2.93
  15  -5  -7   18.64    2.47
 -10  15  -7   19.97    2.38
 -15   5   7   21.45    2.66
   5  10   7   18.38    1.91
  10 -15   7   15.25    2.54
 -15   5   7   20.58    1.86
 -10  18  -7   -1.40    1.53
  -8 -10  -7   -1.74    2.23
  18  -8  -7    4.40    2.43
  10 -18   7    1.79    2.09
 -18   8   7    1.13    1.88
 -18   8   7   -0.34    1.33
 -11 -10  -7   11.49    3.08
 -10  21  -7    9.11    2.68
  21 -11  -7    9.37    3.42
  10 -21   7   10.16    3.39
 -21  11   7    9.82    2.38
 -21  11   7   13.79    3.14
 -11  -7  -7   51.52    4.55
  -7  18  -7   63.70    4.07
  18 -11  -7   49.08    4.44
 -11  -7  -7   64.31    3.98
 -18  11   7   49.00    4.35
   7 -18   7   59.92    4.47
 -18  11   7   57.66    3.76
  11   7   7   58.18    5.14
 -11  -4  -7    0.60    1.67
  15 -11  -7    0.69    1.70
 -11  -4  -7    1.31    1.61
  -4  15  -7    1.43    1.43
   4 -15   7    1.54    1.67
 -15  11   7   -2.33    1.37
 -15  11   7    2.70    1.60
  11   4   7   -1.17    2.06
  -1  12  -7   47.43    3.44
  12 -11  -7   49.16    3.32
 -11  -1  -7   52.80    3.01
 -11  -1  -7   53.77    2.33
 -12  11   7   51.01    3.14
   1 -12   7   51.57    3.13
 -12  11   7   52.53    3.44
   1 -12   7   47.86    3.28
  11   1   7   51.57    3.64
   2   9  -7    2.57    1.11
   9 -11  -7    4.45    1.60
 -11   2  -7    2.30    0.87
  -2  -9   7    2.49    1.12
  -9  11   7    2.30    1.15
  -2  -9   7    3.80    1.10
  -9  11   7    1.81    1.31
  11  -2   7    4.64    1.37
  11  -2   7    1.61    1.41
   6 -11  -7   22.55    2.78
 -11   5  -7   22.26    1.63
   6 -11  -7   21.01    2.20
   5   6  -7   19.75    1.89
  -5  -6   7   20.81    2.20
  -5  -6   7   18.67    1.56
  11  -5   7   21.69    2.47
  -6  11   7   21.01    2.39
  11  -5   7   20.32    2.32
  -6  11   7   22.74    2.18
 -11   8  -7    8.54    1.35
   3 -11  -7    7.50    2.04
   3 -11  -7    4.73    1.50
   8   3  -7   10.86    1.30
   8   3  -7    7.39    1.65
  -8  -3   7    7.70    1.07
  11  -8   7    5.80    2.02
  -8  -3   7    8.15    1.25
  11  -8   7    8.50    1.71
  -3  11   7    7.73    1.62
  -3  11   7    9.23    1.33
  11   0  -7   10.21    1.63
   0 -11  -7    8.10    2.10
   0 -11  -7   11.93    2.00
 -11  11  -7    5.75    1.38
   0  11   7    7.45    1.20
 -11   0   7    9.25    1.06
   0  11   7   11.61    1.85
  11 -11   7    7.89    1.81
 -11  14  -7   21.87    2.56
  14  -3  -7   21.25    2.76
  14  -3  -7   23.52    2.74
  -3 -11  -7   31.03    3.96
   3  11   7   22.29    1.98
  11 -14   7   29.10    3.35
 -14   3   7   22.95    2.69
 -14   3   7   26.33    1.74
  17  -6  -7   -2.09    2.30
 -11  17  -7   -0.10    1.54
  -6 -11  -7    3.18    2.04
  17  -6  -7   -2.36    2.07
 -17   6   7   -1.97    1.08
 -17   6   7    3.04    2.01
  11 -17   7    2.67    1.97
  20  -9  -7   64.52    5.21
 -11  20  -7   59.55    4.41
  -9 -11  -7   61.45    5.37
 -20   9   7   55.18    4.57
  11 -20   7   64.91    5.38
 -20   9   7   61.81    3.51
  23 -12  -7   -1.96    3.84
 -11  23  -7   -1.10    3.18
 -12 -11  -7   -1.04    3.60
  11 -23   7    0.66    3.64
 -23  12   7    5.52    3.53
  -8  20  -7   -0.61    2.31
  20 -12  -7   -2.75    2.65
 -12  -8  -7   -1.60    2.62
   8 -20   7   -2.80    2.53
 -20  12   7    2.39    2.12
 -20  12   7    5.54    2.64
 -12  -5  -7    2.73    1.75
 -12  -5  -7    3.32    2.16
  -5  17  -7    3.53    1.93
  17 -12  -7    5.20    2.32
   5 -17   7    1.09    2.14
 -17  12   7   -1.60    1.73
 -17  12   7   -1.29    1.70
  12   5   7    3.11    2.51
  14 -12  -7    5.13    2.10
 -12  -2  -7    7.63    1.37
  -2  14  -7    7.47    1.87
 -14  12   7    7.60    1.90
  12   2   7   11.94    2.49
 -14  12   7    6.60    2.02
   2 -14   7    5.89    1.79
  11 -12  -7   13.06    2.17
   1  11  -7   13.21    1.99
 -12   1  -7   13.23    1.51
  -1 -11   7   11.78    1.82
  -1 -11   7   14.45    1.83
 -11  12   7   15.99    2.13
  12  -1   7   15.56    2.56
 -11  12   7   15.46    2.10
   8 -12  -7   -0.77    1.24
   4   8  -7    0.19    1.10
 -12   4  -7   -0.23    0.86
  -8  12   7    0.36    1.27
  12  -4   7    0.93    1.36
  -4  -8   7   -0.41    1.36
  -8  12   7    0.21    1.05
  12  -4   7    2.82    1.56
  -4  -8   7    1.72    0.96
  -4  -8   7   -1.14    0.97
   5 -12  -7   17.26    2.29
   5 -12  -7   13.24    2.29
   7   5  -7   12.02    1.78
  -5  12   7   16.10    2.09
  -5  12   7   15.41    1.75
  12  -7   7   13.97    2.21
  -7  -5   7   14.66    1.70
   2 -12  -7    0.74    1.92
   2 -12  -7    1.82    1.37
  10   2  -7    5.42    2.87
 -12  10  -7    1.02    1.03
  10   2  -7    1.37    1.20
  -2  12   7    1.62    1.57
 -10  -2   7   -1.28    0.74
  12 -10   7    2.02    1.46
 -10  -2   7   -0.11    0.99
  -2  12   7   -0.45    0.91
  13  -1  -7   34.55    2.77
  13  -1  -7   41.76    3.37
 -12  13  -7   36.22    2.84
  -1 -12  -7   32.12    3.17
  12 -13   7   32.83    3.20
   1  12   7   35.22    2.27
 -13   1   7   33.08    1.68
  16  -4  -7   -1.60    1.87
  -4 -12  -7    0.06    1.76
  16  -4  -7    0.60    2.27
 -12  16  -7    0.55    1.53
 -16   4   7   -0.46    1.82
  12 -16   7   -1.59    1.86
   4  12   7   -0.23    1.27
 -16   4   7    0.25    0.90
  -7 -12  -7   28.87    3.79
  19  -7  -7   29.24    3.78
 -12  19  -7   24.26    3.18
 -19   7   7   25.71    2.43
  12 -19   7   29.57    3.88
 -19   7   7   24.09    3.21
 -10 -12  -7   -0.36    2.98
  22 -10  -7    2.41    3.66
 -12  22  -7    5.13    2.76
 -22  10   7   -1.94    2.92
  12 -22   7    8.05    3.37
 -12  25  -7    6.33    4.03
  25 -13  -7    8.55    5.30
 -13 -12  -7    7.57    4.62
 -25  13   7   14.22    4.47
  12 -25   7   11.17    4.67
  22 -13  -7   41.10    5.09
 -13  -9  -7   47.80    5.48
  -9  22  -7   40.07    4.89
   9 -22   7   49.39    5.70
 -22  13   7   46.18    5.19
  19 -13  -7    9.13    2.93
  -6  19  -7   12.89    2.71
 -13  -6  -7   16.94    3.17
 -19  13   7    9.56    2.60
 -19  13   7   10.15    2.35
  13   6   7    9.57    3.10
   6 -19   7    8.07    2.78
 -13  -3  -7   41.95    3.64
  -3  16  -7   45.96    3.36
  16 -13  -7   41.75    3.75
  13   3   7   41.49    3.97
   3 -16   7   46.73    4.34
 -16  13   7   48.22    3.90
 -16  13   7   37.27    3.53
  13 -13  -7    4.46    2.21
   0  13  -7    2.64    1.46
 -13   0  -7    5.64    1.27
  13   0   7    0.66    1.64
   0 -13   7    3.00    1.68
 -13  13   7    1.27    1.45
 -13  13   7    1.14    1.82
   3  10  -7   48.85    3.51
  10 -13  -7   52.32    3.56
 -13   3  -7   49.73    2.54
 -10  13   7   58.16    3.36
  13  -3   7   46.75    3.06
  13  -3   7   49.58    4.23
 -10  13   7   52.21    3.60
  -3 -10   7   50.69    2.98
  -3 -10   7   49.66    2.77
   6   7  -7    0.07    2.15
   7 -13  -7    0.69    1.45
  -6  -7   7   -0.54    0.94
  13  -6   7    1.89    1.64
  13  -6   7    0.63    2.01
  -6  -7   7    1.37    1.36
  -6  -7   7    0.49    1.03
  -7  13   7   -0.78    0.99
  -7  13   7   -0.58    1.63
   9   4  -7   30.39    2.61
   4 -13  -7   32.24    2.85
 -13   9  -7   32.52    2.25
   4 -13  -7   40.62    4.09
  -4  13   7   34.48    2.98
  -9  -4   7   36.34    2.16
  -9  -4   7   34.66    2.17
  13  -9   7   35.60    4.05
  -4  13   7   36.30    2.33
  13  -9   7   31.79    3.07
   1 -13  -7   24.95    3.68
  12   1  -7   26.83    2.71
  12   1  -7   25.13    2.47
 -13  12  -7   25.06    2.80
  -1  13   7   25.87    2.06
 -12  -1   7   22.60    1.37
  -1  13   7   28.34    4.30
  13 -12   7   23.83    3.05
  15  -2  -7   16.00    2.81
  -2 -13  -7   17.09    2.88
 -13  15  -7   13.25    2.33
  15  -2  -7   10.32    2.13
 -15   2   7   12.92    2.47
 -15   2   7   13.94    1.26
   2  13   7   14.74    1.82
  13 -15   7   14.42    2.62
  18  -5  -7   29.48    3.56
  -5 -13  -7   26.86    3.48
 -13  18  -7   29.98    3.23
  18  -5  -7   33.38    4.34
 -18   5   7   32.19    2.03
 -18   5   7   33.14    3.82
  13 -18   7   36.20    4.11
  -8 -13  -7    0.32    2.62
  21  -8  -7    1.53    3.07
 -13  21  -7   -2.02    2.18
  13 -21   7   -1.07    2.83
 -21   8   7   -0.52    2.87
 -11 -13  -7   23.25    6.68
  24 -11  -7   27.99    5.22
 -13  24  -7   29.10    4.03
 -24  11   7   33.95    4.90
  13 -24   7   29.17    4.93
 -14 -13  -7    4.04    5.29
 -13  27  -7   -3.54    3.77
  13 -27   7    6.29    5.57
 -27  14   7    4.65    4.78
  24 -14  -7   10.83    4.58
 -10  24  -7   -2.85    3.29
 -14 -10  -7    5.22    4.21
 -24  14   7   -1.98    3.62
  10 -24   7    7.42    3.65
  21 -14  -7    7.28    3.58
  -7  21  -7    8.71    2.74
 -14  -7  -7    3.41    3.14
 -21  14   7    3.18    3.25
   7 -21   7    1.15    3.06
 -21  14   7    8.22    3.45
  14   7   7    4.17    3.19
  -4  18  -7    3.02    2.13
 -14  -4  -7   -2.12    2.05
  18 -14  -7    2.18    2.26
 -18  14   7    0.08    2.11
  14   4   7    0.58    2.37
 -18  14   7    1.51    2.12
   4 -18   7    2.39    2.33
  -1  15  -7   11.18    2.38
  15 -14  -7   14.91    2.65
   1 -15   7   13.83    2.44
 -15  14   7   16.69    2.55
  14   1   7   13.48    2.75
 -15  14   7   19.19    2.73
 -14   2  -7    2.85    1.23
  12 -14  -7    0.09    1.83
   2  12  -7    0.33    1.34
  14  -2   7    0.33    1.66
 -12  14   7    3.38    1.93
  -2 -12   7    0.24    1.48
 -12  14   7    0.93    1.50
 -14   5  -7   48.30    2.65
   9 -14  -7   49.09    4.47
   5   9  -7   45.86    3.01
  14  -5   7   48.40    3.73
  -5  -9   7   51.88    2.84
  -9  14   7   46.02    3.43
  -9  14   7   46.95    2.97
  -5  -9   7   49.88    2.81
  -5  -9   7   46.05    3.48
   6 -14  -7    2.73    2.66
 -14   8  -7    2.86    1.26
   6 -14  -7    0.42    1.71
  -6  14   7    2.31    1.66
  -8  -6   7    3.14    1.22
  14  -8   7    3.03    2.05
  -8  -6   7    2.87    1.00
  -6  14   7    1.43    1.33
  -8  -6   7    2.60    1.28
 -14  11  -7   12.60    1.95
   3 -14  -7    9.19    2.67
  11   3  -7   12.55    1.82
  11   3  -7   12.26    2.24
 -11  -3   7    9.14    1.50
 -11  -3   7    8.89    1.08
 -11  -3   7   12.72    1.30
  -3  14   7   12.13    1.75
   0 -14  -7    1.53    1.98
 -14  14  -7    1.84    1.67
  14   0  -7    0.20    1.85
  14   0  -7    3.53    1.86
  14 -14   7    2.71    2.26
   0  14   7    0.00    1.36
 -14  17  -7    9.26    2.38
  17  -3  -7    9.47    2.60
  17  -3  -7   20.36    3.61
  -3 -14  -7    9.22    2.45
 -17   3   7    7.41    2.70
  14 -17   7   15.41    3.04
  20  -6  -7    0.87    2.67
  -6 -14  -7    1.82    2.84
 -14  20  -7    1.62    2.24
 -20   6   7    5.22    2.88
  14 -20   7    0.76    2.94
  -9 -14  -7   16.78    3.94
 -14  23  -7   24.82    3.78
  23  -9  -7   23.79    4.63
  14 -23   7   21.26    4.57
 -23   9   7   20.47    4.33
 -14  26  -7   -1.79    3.98
 -12 -14  -7    3.44    4.89
  14 -26   7   -0.83    4.44
 -26  12   7    3.89    3.88
 -15 -14  -7    5.58    6.45
  14 -29   7    5.70    6.57
 -11  26  -7   20.41    4.74
  26 -15  -7   18.96    5.82
 -15 -11  -7   16.97    5.27
  11 -26   7   17.65    5.22
 -26  15   7   12.88    4.29
 -15  -8  -7   15.97    4.35
  23 -15  -7   12.71    4.40
  -8  23  -7   12.57    3.69
 -23  15   7   15.40    3.74
   8 -23   7   17.06    4.30
  -5  20  -7   34.88    4.00
 -15  -5  -7   39.99    4.75
  20 -15  -7   41.04    5.25
  15   5   7   31.75    4.77
 -20  15   7   36.40    4.14
 -20  15   7   41.85    4.42
   5 -20   7   38.36    4.64
  -2  17  -7    6.98    2.42
 -15  -2  -7    8.62    2.45
  17 -15  -7    8.60    2.76
   2 -17   7    8.14    2.56
 -17  15   7    8.96    2.35
  15   2   7    4.97    2.61
 -17  15   7    7.76    2.39
 -15   1  -7   61.66    3.78
   1  14  -7   63.62    3.84
  14 -15  -7   58.39    4.36
  15  -1   7   66.20    4.56
  -1 -14   7   57.72    3.80
 -14  15   7   60.82    3.91
 -15   4  -7    0.80    1.36
  11 -15  -7    1.54    2.01
   4  11  -7    0.57    1.38
  15  -4   7   -1.83    1.67
 -11  15   7   -2.98    1.93
 -11  15   7    3.06    1.76
  -4 -11   7    0.64    1.53
   8 -15  -7   27.85    3.40
   7   8  -7   28.69    2.66
 -15   7  -7   35.32    2.49
  15  -7   7   25.92    3.36
  -7  -8   7   29.98    2.44
  -7  -8   7   31.60    2.21
  -8  15   7   29.85    3.23
  -8  15   7   29.77    2.91
  -7  -8   7   25.58    3.35
  10   5  -7   14.46    2.27
   5 -15  -7   16.00    2.56
 -15  10  -7   21.03    2.38
  -5  15   7   22.70    3.05
  -5  15   7   21.36    2.31
 -10  -5   7   16.84    1.94
  15 -10   7   15.82    2.70
 -10  -5   7   18.92    1.51
 -10  -5   7   18.83    1.85
  13   2  -7   13.24    2.23
 -15  13  -7   12.25    1.96
   2 -15  -7    9.72    2.34
  13   2  -7   15.28    2.61
  -2  15   7    9.81    1.83
  15 -13   7   14.10    2.87
 -13  -2   7   13.68    2.00
  -1 -15  -7   15.72    3.24
  16  -1  -7   20.75    2.79
  16  -1  -7   20.24    3.30
 -15  16  -7   18.82    2.62
  15 -16   7   16.70    3.44
 -16   1   7   16.04    2.77
   1  15   7   17.97    2.26
  19  -4  -7    2.46    2.66
  -4 -15  -7    1.12    2.67
  19  -4  -7    2.83    3.21
 -15  19  -7    2.81    2.50
 -19   4   7    1.43    2.60
  15 -19   7    3.90    2.67
  22  -7  -7   20.35    4.23
  -7 -15  -7   21.40    4.16
 -22   7   7   26.27    4.18
  15 -22   7   20.60    4.52
 -15  25  -7   -3.25    3.70
 -10 -15  -7   -3.93    4.44
  15 -25   7   -0.16    3.98
 -25  10   7    2.49    4.04
 -13 -15  -7   34.82    6.47
 -15  28  -7   28.01    5.98
 -28  13   7   19.79    6.03
  15 -28   7   20.42    6.80
 -16 -12  -7    6.57    5.61
 -12  28  -7   -1.37    4.99
 -28  16   7   -1.07    5.27
  12 -28   7    5.46    6.18
  25 -16  -7   10.26    5.18
  -9  25  -7    0.19    3.98
 -16  -9  -7    8.67    4.83
 -25  16   7    1.91    3.92
   9 -25   7    3.78    4.62
 -16  -6  -7   -0.63    2.97
  22 -16  -7    3.54    3.32
  16   6   7    4.81    3.77
 -22  16   7    3.66    3.02
   6 -22   7   -0.81    3.40
  -3  19  -7    3.37    2.35
  19 -16  -7    2.61    3.14
 -16  -3  -7    2.23    2.68
  16   3   7    2.74    3.15
   3 -19   7    3.74    2.68
 -19  16   7    9.95    2.85
 -19  16   7    5.56    2.57
  16 -16  -7    0.98    2.53
   0  16  -7   -0.73    1.81
   0 -16   7    2.47    2.55
  16   0   7    1.59    2.55
 -16  16   7   -1.35    2.12
 -16  16   7   -2.04    1.80
  13 -16  -7    8.57    2.54
 -16   3  -7    3.84    1.61
   3  13  -7    5.80    2.06
  16  -3   7    3.52    2.24
 -13  16   7    5.30    2.34
 -13  16   7    5.74    2.21
  -3 -13   7    7.77    2.03
 -16   6  -7    4.12    1.51
  10 -16  -7   -1.89    1.84
   6  10  -7   -0.20    1.38
 -10  16   7    2.03    1.64
  -6 -10   7    1.97    1.91
 -10  16   7   -0.68    2.18
  -6 -10   7   -0.45    1.53
  -6 -10   7    1.56    1.40
  16  -6   7    3.00    2.09
   7 -16  -7   32.63    3.48
 -16   9  -7   36.59    2.83
   9   7  -7   31.70    3.31
  -9  -7   7   30.33    2.61
  -7  16   7   32.31    3.54
  -9  -7   7   34.74    2.83
  -7  16   7   34.60    2.93
  16  -9   7   38.62    3.70
  -9  -7   7   34.28    2.19
  12   4  -7    1.38    1.98
  12   4  -7    0.29    1.69
   4 -16  -7    1.60    1.83
 -16  12  -7    2.51    1.70
 -12  -4   7   -0.01    1.49
  16 -12   7   -0.06    1.88
  -4  16   7    5.00    1.55
 -16  15  -7   48.66    3.56
   1 -16  -7   47.34    4.33
  15   1  -7   52.59    4.12
  15   1  -7   54.76    4.47
  -1  16   7   51.21    3.43
  16 -15   7   44.64    4.73
 -15  -1   7   50.98    3.51
  18  -2  -7   -0.07    2.62
  -2 -16  -7    2.64    2.83
  18  -2  -7   -1.05    2.99
 -16  18  -7    1.58    2.30
 -18   2   7    3.92    2.65
  16 -18   7    0.45    2.66
  -5 -16  -7   24.40    4.48
 -16  21  -7   24.77    3.57
  21  -5  -7   14.97    4.55
  16 -21   7   26.49    4.25
 -21   5   7   21.04    3.94
 -16  24  -7   -0.27    2.95
  -8 -16  -7    0.09    4.21
 -24   8   7   -1.10    3.79
  16 -24   7   -1.79    4.27
 -16  27  -7   18.66    5.01
 -11 -16  -7    2.26    5.55
  16 -27   7   26.26    6.09
 -27  11   7    7.14    4.87
  27 -17  -7   -4.02    6.34
 -17 -10  -7    7.09    5.60
 -10  27  -7   10.91    4.84
 -27  17   7    9.68    5.13
  10 -27   7   -3.07    5.45
  -7  24  -7   44.25    5.30
 -17  -7  -7   51.81    6.34
  24 -17  -7   68.96    8.58
   7 -24   7   52.02    6.12
 -24  17   7   48.05    5.56
  21 -17  -7    3.37    3.38
  -4  21  -7    5.53    3.21
 -17  -4  -7    5.70    3.54
  17   4   7    1.20    3.69
 -21  17   7    6.16    3.48
   4 -21   7    7.12    3.19
  18 -17  -7   57.04    4.95
  -1  18  -7   41.97    3.99
 -18  17   7   51.89    5.06
  17   1   7   43.82    5.25
   1 -18   7   45.06    4.57
 -18  17   7   50.70    4.35
  15 -17  -7    3.55    2.82
   2  15  -7    3.31    2.04
  -2 -15   7    7.00    2.49
 -15  17   7    5.60    2.17
 -15  17   7    6.02    2.56
  17  -2   7    1.14    2.44
 -17   5  -7   18.82    2.36
  12 -17  -7   21.19    3.25
   5  12  -7   27.36    3.27
  17  -5   7   19.35    3.30
  -5 -12   7   19.52    2.59
 -12  17   7   17.23    2.60
 -12  17   7   19.97    3.32
   8   9  -7    1.57    1.72
 -17   8  -7    1.56    1.64
   9 -17  -7   -2.49    1.85
  -9  17   7    5.79    2.70
  -8  -9   7   -0.66    1.70
  -9  17   7    3.91    1.66
  17  -8   7    0.97    2.17
  -8  -9   7    0.88    1.37
  11   6  -7   12.36    2.31
   6 -17  -7   10.65    2.72
 -17  11  -7    9.15    2.17
  -6  17   7    8.02    1.91
  17 -11   7    8.47    2.70
 -11  -6   7    7.85    1.96
 -11  -6   7   10.27    1.34
 -11  -6   7   12.44    1.46
  14   3  -7    7.75    2.37
  14   3  -7    6.64    2.25
   3 -17  -7    7.48    2.68
 -17  14  -7    4.26    1.99
  17 -14   7    9.29    2.86
 -14  -3   7    7.23    2.05
  -3  17   7    7.91    1.94
 -17  17  -7    3.85    2.15
  17   0  -7    5.33    2.89
   0 -17  -7    5.54    2.93
   0  17   7    5.37    1.99
  17 -17   7    4.45    2.74
 -17   0   7    6.30    2.85
  -3 -17  -7   14.80    3.75
  20  -3  -7   20.58    4.02
 -17  20  -7   10.75    2.87
  17 -20   7   14.37    3.71
 -20   3   7   10.35    2.95
 -17  23  -7    2.42    3.09
  -6 -17  -7    3.75    3.88
 -23   6   7    8.20    3.87
  -9 -17  -7   27.61    6.01
 -17  26  -7   23.02    4.61
  17 -26   7   12.71    5.60
 -26   9   7   26.48    5.31
 -12 -17  -7   -0.99    6.29
  17 -29   7   11.73    6.92
  -8  26  -7    0.48    4.46
 -18  -8  -7    5.38    4.88
  26 -18  -7    2.00    5.57
 -26  18   7   -0.37    4.23
   8 -26   7    1.12    5.16
  23 -18  -7    3.51    4.24
  -5  23  -7    3.18    3.21
   5 -23   7   -3.93    3.90
 -23  18   7    7.47    3.48
  20 -18  -7   -1.77    3.51
  -2  20  -7   -1.09    2.96
 -18  -2  -7    3.65    3.22
   2 -20   7   -2.03    3.02
  18   2   7    3.15    3.74
 -20  18   7   -1.03    3.72
 -20  18   7    7.44    3.29
  17 -18  -7    5.09    3.25
   1  17  -7    6.32    2.28
  18  -1   7    8.00    3.30
  -1 -17   7   10.49    2.92
 -17  18   7    8.53    3.28
 -17  18   7    7.56    2.58
  14 -18  -7   -1.14    2.41
 -18   4  -7   -6.07    3.17
   4  14  -7    2.42    2.06
  -4 -14   7   -4.39    2.41
 -14  18   7    2.30    1.98
 -14  18   7    3.29    2.46
  18  -4   7   -2.50    2.18
 -18   7  -7   20.77    2.93
  11 -18  -7   29.96    3.79
   7  11  -7   23.12    3.15
 -11  18   7   27.25    2.88
 -11  18   7   13.91    3.48
  -7 -11   7   25.16    3.04
  -7 -11   7   25.25    3.21
  18  -7   7   33.08    4.28
 -18  10  -7    4.56    1.74
  10   8  -7    2.39    2.14
   8 -18  -7    0.95    2.36
  18 -10   7    3.12    2.28
  -8  18   7   -2.36    1.55
 -10  -8   7    0.92    1.81
 -10  -8   7    0.77    1.53
 -10  -8   7    2.48    1.27
  13   5  -7   15.94    2.75
   5 -18  -7   13.08    2.91
 -18  13  -7   16.62    2.63
  18 -13   7   15.67    3.50
  -5  18   7   15.89    2.43
 -13  -5   7   17.08    3.45
   2 -18  -7   -1.71    2.21
 -18  16  -7    4.92    2.12
  16   2  -7   -1.99    2.64
  -2  18   7    0.77    1.96
  18 -16   7    2.39    3.21
 -18  19  -7   32.42    3.87
  -1 -18  -7   33.53    4.86
  19  -1  -7   30.71    4.92
  18 -19   7   41.79    5.12
 -19   1   7   30.29    4.45
  22  -4  -7   -1.61    5.10
  -4 -18  -7    3.58    3.85
 -18  22  -7    2.30    2.95
  18 -22   7   11.72    4.24
  -7 -18  -7   16.30    5.37
 -18  25  -7   24.16    5.03
 -25   7   7   31.06    5.25
  18 -25   7   28.69    5.95
 -10 -18  -7  -11.96    5.33
 -28  10   7    9.99    5.62
  18 -28   7    4.18    6.35
 -19  -9  -7   33.50    7.11
  28 -19  -7   25.09    7.54
   9 -28   7   48.33    7.76
  -6  25  -7   -4.33    3.46
  25 -19  -7   -1.59    5.36
 -19  -6  -7    7.11    4.94
   6 -25   7    8.61    5.01
  19   6   7    1.23    5.17
 -25  19   7    3.59    4.45
  22 -19  -7   28.06    4.97
  -3  22  -7   34.46    4.49
 -19  -3  -7   33.77    5.29
  19   3   7   30.69    5.22
 -22  19   7   33.29    4.57
   3 -22   7   24.45    4.75
   0  19  -7   -1.26    2.84
  19 -19  -7    8.63    3.85
  19   0   7   -2.13    3.35
 -19  19   7    6.09    2.93
 -19  19   7   -0.28    3.56
   0 -19   7   -1.16    2.86
   3  16  -7   35.03    3.91
  16 -19  -7   44.67    5.22
 -16  19   7   43.56    4.46
  19  -3   7   42.03    5.32
 -16  19   7   54.59    5.63
  -3 -16   7   37.33    4.41
 -19   6  -7    1.31    2.01
  13 -19  -7   -2.39    2.80
   6  13  -7   -2.80    2.12
  -6 -13   7    3.28    2.71
 -13  19   7    2.52    2.25
  -6 -13   7   -0.34    2.78
  19  -6   7    3.12    2.48
  10 -19  -7   30.21    4.06
   9  10  -7   28.94    3.37
 -19   9  -7   32.32    3.26
  -9 -10   7   27.05    3.05
  19  -9   7   33.18    4.36
  -9 -10   7   31.58    3.79
 -10  19   7   39.12    3.66
 -19  12  -7    2.02    2.07
   7 -19  -7   -0.07    2.34
  12   7  -7    2.62    2.56
  -7  19   7    3.38    2.14
  19 -12   7    2.30    2.90
  15   4  -7    9.66    3.02
   4 -19  -7    8.69    2.69
 -19  15  -7   12.92    2.70
  -4  19   7   10.91    2.42
  19 -15   7    8.09    2.89
   1 -19  -7   26.49    4.06
  18   1  -7   24.79    4.25
 -19  18  -7   14.69    3.11
 -18  -1   7   23.30    3.95
  19 -18   7   23.37    4.47
  21  -2  -7   11.66    4.62
  -2 -19  -7    8.28    4.18
 -19  21  -7    7.50    3.01
  19 -21   7    5.81    4.24
 -21   2   7   -2.93    3.40
  -5 -19  -7   30.53    5.46
 -19  24  -7   27.23    4.88
  19 -24   7   23.20    5.72
 -24   5   7   34.97    5.28
  -8 -19  -7   -8.17    5.43
 -19  27  -7    0.07    4.93
 -27   8   7   10.40    5.27
  19 -27   7   -3.14    6.16
  -7  27  -7    0.70    4.38
 -20  -7  -7   -7.03    5.41
  27 -20  -7    0.72    6.54
   7 -27   7   -3.97    6.24
 -27  20   7   11.60    5.19
  24 -20  -7    5.69    5.04
 -20  -4  -7    1.45    3.88
  -4  24  -7   -1.93    4.13
 -24  20   7   -5.40    4.03
  20   4   7    2.42    4.90
 -20  -1  -7   19.83    4.53
  -1  21  -7   27.25    4.08
  21 -20  -7   20.00    4.79
   1 -21   7   16.96    4.25
  20   1   7   22.19    4.95
 -21  20   7   22.70    4.25
  18 -20  -7    4.05    3.27
   2  18  -7   -0.53    2.82
  -2 -18   7   -3.52    2.87
  20  -2   7    1.36    3.09
 -18  20   7   -2.56    2.55
 -18  20   7   -0.24    3.51
  15 -20  -7    4.72    3.45
   5  15  -7    8.09    2.91
  -5 -15   7    6.74    2.85
 -15  20   7    5.57    3.41
  20  -5   7    5.00    3.07
 -15  20   7   13.62    2.95
  12 -20  -7   -0.20    2.79
   8  12  -7   -0.12    2.15
 -20   8  -7    4.03    2.18
  20  -8   7    0.15    2.97
 -12  20   7    2.44    2.57
  -8 -12   7   -5.06    2.48
 -20  11  -7   24.67    2.99
   9 -20  -7   30.84    4.36
  11   9  -7   27.13    3.67
  20 -11   7   26.45    4.10
 -11  -9   7   31.54    2.74
  -9  20   7   29.09    3.63
 -11  -9   7   26.85    2.40
   6 -20  -7   -0.09    2.55
 -20  14  -7    0.50    2.21
  14   6  -7   -0.61    2.44
  -6  20   7   -1.04    2.15
  20 -14   7   -1.97    3.01
 -20  17  -7   22.11    3.28
   3 -20  -7   11.53    3.49
  17   3  -7   17.05    3.59
  20 -17   7   25.24    4.27
  -3  20   7   20.59    3.05
  20   0  -7   -9.54    3.38
   0 -20  -7    1.48    3.31
 -20  20  -7    1.39    3.80
 -20   0   7    1.73    3.77
  20 -20   7   -4.86    3.87
  23  -3  -7   15.31    5.69
 -20  23  -7   14.28    3.75
  -3 -20  -7   12.57    4.60
 -23   3   7    9.46    4.56
  20 -23   7   16.19    5.57
 -20  26  -7  -12.11    4.31
  -6 -20  -7   -2.86    5.25
 -26   6   7    2.27    4.41
  20 -26   7   -2.00    5.54
  26 -21  -7   18.88    6.78
 -21  -5  -7   23.38    6.06
  -5  26  -7   27.19    5.86
  21   5   7   31.62    6.84
 -26  21   7   20.93    5.51
 -21  -2  -7    3.31    4.19
  23 -21  -7    5.09    4.63
  -2  23  -7    2.46    3.99
  21   2   7    0.07    4.20
 -23  21   7   -4.61    3.97
   1  20  -7   26.70    4.15
  20 -21  -7   33.78    5.78
  21  -1   7   36.07    5.72
 -20  21   7   35.23    4.56
   4  17  -7    4.23    2.79
  17 -21  -7    8.46    3.91
 -17  21   7   -1.96    2.56
 -17  21   7    3.42    4.12
  21  -4   7    1.94    3.73
  14 -21  -7   22.21    4.15
 -21   7  -7   30.48    4.86
   7  14  -7   20.50    3.40
  -7 -14   7   22.09    5.00
  21  -7   7   30.05    4.41
 -14  21   7   25.75    3.75
  10  11  -7    3.30    2.77
  11 -21  -7    0.57    2.90
 -21  10  -7    3.26    2.41
  21 -10   7   -0.98    2.72
 -10 -11   7    4.39    2.34
 -11  21   7    0.83    2.47
   8 -21  -7   15.70    3.55
  13   8  -7   10.68    3.24
 -21  13  -7   15.98    3.06
  -8  21   7   13.02    2.74
  21 -13   7   11.85    4.10
 -21  16  -7   14.05    3.19
  16   5  -7    9.10    3.48
   5 -21  -7   13.34    3.59
  21 -16   7   19.33    4.36
  -5  21   7    8.93    2.81
   2 -21  -7    8.64    3.69
  19   2  -7   -7.91    3.92
 -19  -2   7    7.52    3.88
  21 -19   7    0.46    4.06
  -1 -21  -7   22.41    5.38
 -21  22  -7   24.87    4.54
  22  -1  -7   34.63    6.22
  21 -22   7   30.34    5.74
 -22   1   7   34.96    5.16
 -21  25  -7   -2.61    3.81
  -4 -21  -7   -5.14    5.08
  21 -25   7   -5.84    4.81
 -25   4   7   -5.95    4.80
  -7 -21  -7   18.02    7.07
  21 -28   7   23.56    7.38
  25 -22  -7    5.81    5.80
 -22  -3  -7   13.69    5.54
  -3  25  -7   -5.46    4.17
 -25  22   7   -3.38    4.14
  22   3   7   -0.10    5.84
  22 -22  -7    7.38    4.82
   0  22  -7    1.64    3.98
 -22   0  -7    0.92    4.38
  22   0   7   -1.41    4.79
 -22  22   7   -1.39    3.41
   3  19  -7   20.80    4.50
  22  -3   7   24.91    5.70
 -19  22   7   16.33    3.66
   6  16  -7    4.34    2.72
  16 -22  -7    2.24    3.41
  22  -6   7   -0.30    3.36
 -16  22   7    3.41    3.22
 -22   9  -7   30.46    3.56
   9  13  -7   25.16    3.69
  13 -22  -7   27.26    4.58
  22  -9   7   34.79    5.22
 -13  22   7   30.31    3.74
  12  10  -7    1.42    3.15
 -22  12  -7    1.07    2.59
  10 -22  -7   -0.38    3.39
  22 -12   7   -4.71    3.01
 -10  22   7    2.16    2.44
 -22  15  -7   33.76    4.16
   7 -22  -7   31.66    4.77
  15   7  -7   30.16    4.32
  22 -15   7   41.81    5.45
  -7  22   7   29.12    3.67
   4 -22  -7    0.91    3.55
  18   4  -7   -2.16    3.31
  22 -18   7   12.58    6.36
 -18  -4   7    7.05    3.83
 -22  21  -7   21.53    3.96
   1 -22  -7   20.70    5.17
  21   1  -7   28.26    5.74
  22 -21   7   23.96    5.89
 -21  -1   7   24.14    5.10
 -22  24  -7    1.84    3.77
  -2 -22  -7   -6.84    5.01
 -24   2   7   -2.37    4.55
  22 -24   7   -2.07    4.84
  -5 -22  -7   13.01    6.58
  22 -27   7   14.79    6.86
 -27   5   7   10.34    5.97
 -23  -4  -7   11.70    6.34
  27 -23  -7    5.40    7.35
  23   4   7    4.08    6.72
  24 -23  -7   35.63    6.61
  -1  24  -7   43.31    5.86
 -23  -1  -7   34.04    6.37
  23   1   7   33.17    6.57
 -24  23   7   46.95    6.30
  21 -23  -7    5.32    5.10
   2  21  -7   10.17    4.45
  23  -2   7    9.66    5.23
 -21  23   7    4.94    4.04
  18 -23  -7   35.93    5.64
   5  18  -7   50.20    5.85
 -18  23   7   40.82    5.07
  23  -5   7   43.82    6.54
   8  15  -7   -1.68    3.21
  15 -23  -7    0.31    3.66
  23  -8   7    0.53    3.73
 -15  23   7   -7.03    2.94
  11  12  -7   31.15    4.26
 -23  11  -7   30.78    3.90
  12 -23  -7   30.80    5.21
 -12  23   7   31.16    4.15
  23 -11   7   24.22    4.50
  14   9  -7    4.62    3.65
   9 -23  -7   -1.71    3.89
 -23  14  -7    0.85    3.01
  -9  23   7    4.41    3.06
  23 -14   7    0.79    3.54
   6 -23  -7   16.74    5.25
  17   6  -7   24.26    7.36
  -6  23   7   13.77    3.48
  23 -17   7   11.02    4.38
   3 -23  -7   13.57    4.94
  20   3  -7   12.10    5.21
 -23  20  -7   -1.24    3.77
  23 -20   7    5.51    5.19
 -20  -3   7   11.28    4.83
   0 -23  -7   -2.27    5.15
 -23  23  -7    3.45    4.20
  23   0  -7   -6.79    5.53
  23 -23   7    2.69    5.70
 -23   0   7    6.45    4.88
  -3 -23  -7    5.73    6.14
  23 -26   7    1.90    6.98
 -26   3   7   -3.17    5.74
  26 -24  -7  -16.31    6.54
 -24  -2  -7    1.05    5.60
  24   2   7    3.47    6.51
  23 -24  -7   16.04    6.43
 -24   1  -7   21.41    5.62
   1  23  -7    4.59    5.00
 -23  24   7   12.54    4.94
  24  -1   7   11.04    5.98
   4  20  -7    7.27    4.03
  20 -24  -7  -10.26    4.97
 -20  24   7   -7.21    3.83
  24  -4   7   -3.10    4.90
   7  17  -7   18.36    4.40
  17 -24  -7   10.57    4.99
  24  -7   7    9.50    4.93
 -17  24   7    8.23    3.99
  10  14  -7    3.82    3.94
  14 -24  -7   -2.71    4.08
  24 -10   7    4.02    4.28
 -14  24   7    0.95    2.93
  11 -24  -7   20.67    5.08
 -24  13  -7   17.80    3.80
  24 -13   7   14.36    5.09
  16   8  -7    4.65    4.18
 -24  16  -7   -1.14    3.33
   8 -24  -7   -3.94    3.68
  24 -16   7    9.66    4.41
  -8  24   7   -1.94    3.81
  19   5  -7   35.35    6.06
   5 -24  -7   36.85    5.86
 -24  19  -7   45.87    5.31
  24 -19   7   40.28    6.60
 -19  -5   7   35.68    5.75
  22   2  -7    3.19    5.75
   2 -24  -7    4.02    5.23
 -24  22  -7   -3.81    4.25
  24 -22   7   -3.62    4.71
 -22  -2   7    2.54    4.86
  -1 -24  -7   18.16    5.87
 -24  25  -7   16.20    4.91
 -25   1   7   11.34    6.12
  24 -25   7   22.09    7.29
 -25   0  -7    1.70    6.03
  25 -25  -7   -3.06    7.03
  25   0   7  -13.82    6.40
   3  22  -7   15.06    4.68
  22 -25  -7   23.96    6.50
  25  -3   7   24.17    6.47
 -22  25   7   26.91    5.40
   6  19  -7   -1.22    4.29
  19 -25  -7   -4.66    4.98
 -19  25   7   -5.80    3.60
  25  -6   7    0.45    4.99
   9  16  -7   34.09    5.23
  16 -25  -7   24.39    5.32
  25  -9   7   27.18    6.18
 -16  25   7   38.30    5.20
  12  13  -7    3.88    4.27
  13 -25  -7    3.70    4.65
 -13  25   7    4.85    3.66
  25 -12   7    6.36    4.91
  15  10  -7   22.89    5.02
  10 -25  -7   18.64    5.54
 -25  15  -7   16.24    4.10
  25 -15   7   18.61    5.91
 -10  25   7   22.16    4.38
 -25  18  -7    3.23    3.59
  18   7  -7    9.16    4.88
   7 -25  -7    3.15    4.44
  25 -18   7    0.23    5.23
 -25  21  -7    8.53    4.63
  21   4  -7   18.58    6.45
   4 -25  -7    8.20    5.78
 -21  -4   7    9.15    5.61
  25 -21   7   13.65    6.24
 -25  24  -7   10.41    4.80
   1 -25  -7    5.86    5.45
  24   1  -7   -4.96    8.19
  25 -24   7   12.29    6.77
 -24  -1   7    1.93    5.71
 -26   2  -7   11.34    5.99
  24 -26  -7    7.37    7.17
  26  -2   7    2.18    6.40
  21 -26  -7    9.03    6.20
   5  21  -7   18.53    5.26
  26  -5   7   13.64    6.17
 -21  26   7   -2.85    4.93
   8  18  -7   -6.67    4.49
  18 -26  -7    5.95    4.90
 -18  26   7   -4.09    3.72
  26  -8   7   -2.55    5.41
  11  15  -7   18.92    5.00
  15 -26  -7   22.07    5.94
  26 -11   7   20.67    5.94
 -15  26   7   23.13    4.36
  14  12  -7   -2.57    4.79
  12 -26  -7    0.52    5.31
  26 -14   7    2.02    4.73
 -12  26   7    5.00    3.97
   9 -26  -7   21.29    5.31
 -26  17  -7   25.99    4.87
  17   9  -7   31.17    6.16
  -9  26   7   21.20    5.14
  26 -17   7   34.42    6.09
 -26  20  -7    4.59    4.74
   6 -26  -7   -2.94    5.34
  20   6  -7   -1.82    6.09
 -20  -6   7   -6.76    5.33
  26 -20   7   -2.49    5.82
 -26  23  -7   15.22    5.32
   3 -26  -7   22.82    7.04
  26 -23   7   19.48    6.81
  23 -27  -7  -11.52    6.59
 -27   4  -7   -1.75    6.11
  27  -4   7  -15.13    6.78
   7  20  -7   40.38    6.12
  20 -27  -7   27.95    6.52
 -20  27   7   14.90    5.85
  27  -7   7   18.16    6.13
  17 -27  -7    2.42    5.80
  10  17  -7   -5.64    4.89
 -17  27   7    7.80    4.79
  27 -10   7   -7.30    5.74
  13  14  -7    8.36    5.49
  14 -27  -7    9.86    5.10
 -14  27   7   15.23    4.73
  27 -13   7   15.64    6.01
  16  11  -7   -1.22    6.03
  11 -27  -7   -0.60    5.03
  27 -16   7    3.54    5.67
 -11  27   7   -2.36    4.47
 -27  19  -7    6.77    5.11
   8 -27  -7    3.67    5.30
  27 -19   7    5.97    6.56
 -27  22  -7   15.29    6.52
   5 -27  -7    6.83    6.24
  27 -22   7    8.64    6.89
  19 -28  -7   24.46    6.50
 -19  28   7   19.05    7.66
  28  -9   7   29.48    7.41
  16 -28  -7   -3.10    6.33
  28 -12   7  -13.62    5.98
 -16  28   7   -8.15    4.74
  13 -28  -7    7.12    6.33
  28 -15   7   19.16    6.70
 -13  28   7   15.04    5.44
  10 -28  -7   -0.38    6.29
  28 -18   7   11.48    6.73
   7 -28  -7   11.26    6.24
  28 -21   7    3.44    7.44
  15 -29  -7  -13.41    6.41
  29 -14   7    2.14    6.06
  12 -29  -7    4.22    6.89
  29 -17   7   21.58    7.51
   0  -1  -8   -0.45    0.87
   0  -1  -8    0.34    0.41
   1   0  -8    1.44    1.02
   1   0  -8    0.20    0.48
  -1   1  -8    1.48    0.92
   1   0  -8    0.90    0.39
   0  -1  -8    0.72    0.49
  -1   1  -8   -0.13    0.39
   0   1   8    0.89    0.73
   0   1   8    0.01    0.52
  -1   0   8   -0.01    0.66
   1  -1   8    0.31    0.86
  -1   0   8   -0.01    0.40
   1  -1   8   -0.31    0.49
   2  -2  -8  474.13   12.25
   2  -2  -8  466.54   11.27
  -2   0  -8  481.10   10.97
   0   2  -8  450.81   12.33
   2  -2  -8  442.12   11.40
  -2   0  -8  402.40   12.83
   0   2  -8  466.96   11.45
  -2   2   8  460.76   12.10
   2   0   8  479.58   11.71
   0  -2   8  460.80   12.34
   0  -2   8  462.18   11.04
  -2   3  -8    0.01    0.51
  -2   3  -8   -1.20    1.00
   3  -1  -8    0.27    0.93
  -1  -2  -8    1.73    0.40
   3  -1  -8   -0.11    0.39
  -1  -2  -8    0.90    0.59
   3  -1  -8    0.24    0.53
  -1  -2  -8    1.57    1.01
   1   2   8   -0.08    0.34
   1   2   8   -0.94    0.72
   2  -3   8    0.75    0.60
   1   2   8    0.31    0.62
   2  -3   8    2.02    0.97
  -3   1   8    0.41    0.71
   4  -3  -8    2.17    0.73
   4  -3  -8    2.92    1.08
  -1   4  -8    2.47    0.74
   4  -3  -8    2.39    0.64
  -3  -1  -8    2.25    0.93
   1  -4   8    2.32    0.62
   1  -4   8    2.83    1.17
   3   1   8    2.67    0.89
   3   1   8    3.22    0.89
   2   1  -8    0.67    0.52
   1  -3  -8    0.84    0.61
   1  -3  -8    1.72    0.88
   2   1  -8    1.51    1.03
  -3   2  -8    1.36    1.07
   1  -3  -8    1.02    0.54
  -3   2  -8    1.23    0.48
   3  -2   8    1.73    0.74
  -1   3   8    2.24    0.85
   3  -2   8    0.12    0.91
  -2  -1   8    1.73    0.88
  -1   3   8    0.50    0.49
   5  -2  -8    1.09    0.53
  -2  -3  -8    2.10    1.02
   5  -2  -8    0.54    0.70
   5  -2  -8    0.23    0.99
  -2  -3  -8    0.56    0.66
  -3   5  -8    0.33    0.63
   2   3   8    0.31    0.83
   2   3   8   -0.49    0.73
   3  -5   8    0.23    0.66
  -5   2   8    1.52    0.80
   3  -5   8   -0.85    1.00
   6  -4  -8  463.89   12.22
   6  -4  -8  480.39   11.68
  -2   6  -8  463.71   11.91
  -4  -2  -8  450.36   12.33
   6  -4  -8  445.60   12.31
   4   2   8  467.16   12.42
  -6   4   8  465.93   12.21
   4   2   8  483.96   12.21
   2  -6   8  463.11   11.67
  -6   4   8  456.09   12.12
   2  -6   8  435.71   12.92
  -4   1  -8    3.76    1.21
   1   3  -8    2.76    0.70
  -4   1  -8    2.12    0.44
   3  -4  -8    2.64    0.75
   3  -4  -8    3.77    1.08
   3  -4  -8    2.44    0.71
   4  -1   8    1.84    0.79
  -1  -3   8    2.24    1.03
  -3   4   8    3.14    1.01
  -3   4   8    3.43    0.75
  -1  -3   8    3.21    0.44
   4  -1   8    2.80    0.94
   4   0  -8  667.10   16.92
   4   0  -8  671.47   16.62
  -4   4  -8  659.23   16.17
   0  -4  -8  692.07   16.68
   0  -4  -8  656.10   17.02
   0   4   8  674.63   15.73
   4  -4   8  667.50   16.58
   4  -4   8  660.86   17.37
  -4   0   8  657.18   16.81
   7  -3  -8    1.23    0.96
  -3  -4  -8   -0.12    0.94
  -4   7  -8   -1.19    0.59
  -3  -4  -8    0.47    0.82
   7  -3  -8    0.18    0.65
  -7   3   8    0.42    0.75
   3   4   8    0.39    0.98
   3   4   8   -0.44    0.84
   4  -7   8   -0.08    0.81
   8  -5  -8    0.26    0.89
  -5  -3  -8   -0.81    0.97
   8  -5  -8    0.71    0.97
  -3   8  -8    0.36    0.73
  -5  -3  -8    0.56    0.97
   3  -8   8    0.29    0.84
   5   3   8    1.16    1.17
   5   3   8   -0.75    0.93
  -8   5   8    1.38    0.90
  -8   5   8    0.13    0.85
  -5   0  -8    4.77    1.18
   5  -5  -8    7.83    1.09
  -5   0  -8    5.05    0.47
   5  -5  -8    5.71    1.41
   0   5  -8    4.55    0.92
   5  -5  -8    7.61    1.19
   0  -5   8    7.16    0.86
   0  -5   8    4.82    1.36
  -5   5   8    5.22    1.23
  -5   5   8    6.11    1.07
   5   0   8    5.69    1.19
   5   0   8    4.40    1.07
   3   2  -8    0.64    0.62
  -5   3  -8    1.19    0.49
   2  -5  -8    0.89    0.66
   3   2  -8    0.82    1.11
   2  -5  -8    2.34    1.08
  -3  -2   8   -0.04    0.79
  -2   5   8    1.37    0.55
   5  -3   8    0.08    0.81
   5  -3   8    1.32    0.96
  -2   5   8    2.02    0.95
  -5   6  -8    1.16    0.69
   6  -1  -8    1.38    0.82
  -1  -5  -8    1.43    1.10
  -1  -5  -8    1.34    0.84
   5  -6   8    1.59    0.80
   5  -6   8    1.53    1.15
  -6   1   8    2.18    0.83
   1   5   8    0.44    0.97
   1   5   8    0.03    0.36
  -5   9  -8    1.88    0.91
   9  -4  -8    2.56    1.11
  -4  -5  -8    2.38    1.19
   9  -4  -8    1.98    1.10
  -4  -5  -8    1.80    1.20
   5  -9   8   -0.13    1.03
   4   5   8    0.91    1.08
   4   5   8    1.75    1.14
  -9   4   8   -0.67    1.05
  -9   4   8    1.13    0.85
   5  -9   8    0.31    1.09
  -6  -4  -8  399.66   11.09
  -4  10  -8  394.66   10.95
  10  -6  -8  395.90   11.63
  10  -6  -8  396.70   10.83
   4 -10   8  395.37   10.96
 -10   6   8  389.66   10.86
   6   4   8  407.91   10.70
   4 -10   8  403.04   11.14
 -10   6   8  402.27   11.32
   6   4   8  388.07   11.65
   7  -6  -8   -0.82    0.84
   7  -6  -8    1.12    0.90
  -6  -1  -8   -0.02    1.10
  -1   7  -8   -0.48    0.66
   1  -7   8    1.85    0.74
   6   1   8   -0.29    1.00
  -7   6   8    0.74    0.82
  -7   6   8   -0.26    0.84
   6   1   8    2.66    1.09
  -6   2  -8  615.04   15.70
   2   4  -8  580.95   15.00
   4  -6  -8  573.37   15.04
  -6   2  -8  595.24   14.13
   4  -6  -8  595.26   15.52
  -2  -4   8  580.47   15.57
  -2  -4   8  601.64   13.95
   6  -2   8  600.64   15.43
  -4   6   8  591.28   14.73
  -4   6   8  591.20   15.37
   6  -2   8  594.32   15.46
   1  -6  -8    0.82    0.76
   1  -6  -8   -0.59    1.07
  -6   5  -8    0.92    0.60
   5   1  -8    0.12    0.72
  -5  -1   8   -0.97    0.81
  -1   6   8    0.58    0.51
   6  -5   8    0.70    0.89
   6  -5   8    0.05    1.20
  -1   6   8    0.73    0.83
   8  -2  -8  508.35   13.76
   8  -2  -8  512.14   12.67
  -2  -6  -8  503.28   13.73
  -2  -6  -8  525.51   13.76
  -6   8  -8  511.95   13.18
  -8   2   8  481.24   13.07
   2   6   8  528.43   13.54
   6  -8   8  513.28   13.59
  11  -5  -8    3.53    1.66
  -5  -6  -8    3.16    1.31
  -5  -6  -8    3.75    1.36
  11  -5  -8    3.86    1.25
  -6  11  -8    3.10    1.09
   5   6   8    4.02    1.33
   6 -11   8    5.08    1.73
 -11   5   8    4.69    1.46
   6 -11   8    3.92    1.35
   5   6   8    4.76    1.60
 -11   5   8    2.07    1.01
  -7  -5  -8    7.11    1.68
  12  -7  -8    7.43    1.55
  -7  -5  -8    6.19    0.81
  -7  -5  -8    5.15    1.64
   5 -12   8    4.40    1.44
 -12   7   8    5.30    1.29
   7   5   8    7.08    1.49
   7   5   8    6.62    1.69
   5 -12   8    5.67    1.75
 -12   7   8    4.20    2.68
   9  -7  -8    1.77    1.00
  -2   9  -8    0.55    0.86
   9  -7  -8    3.73    1.33
  -7  -2  -8    0.68    0.32
  -7  -2  -8    0.79    1.18
   2  -9   8    1.38    0.96
   2  -9   8   -1.43    0.94
  -9   7   8    0.52    1.03
   7   2   8    0.64    1.03
  -9   7   8   -0.30    1.06
   7   2   8    0.90    1.51
   6  -7  -8   15.47    2.06
   1   6  -8   14.85    1.45
  -7   1  -8   13.21    0.86
   6  -7  -8   12.83    1.60
  -7   1  -8   11.76    1.69
  -1  -6   8    9.76    1.70
   7  -1   8   13.84    1.74
  -1  -6   8   13.45    1.17
  -6   7   8   13.61    1.49
   7  -1   8   15.78    1.90
  -6   7   8   12.93    1.61
   4   3  -8    1.52    0.80
  -7   4  -8    2.06    0.64
   3  -7  -8   -0.51    1.07
   3  -7  -8    2.11    0.90
  -4  -3   8    0.40    0.95
  -3   7   8    0.57    0.91
  -3   7   8    0.34    0.66
   7  -4   8   -0.57    0.97
  -4  -3   8    1.53    0.37
   7  -4   8    1.33    1.22
  -7   7  -8    0.82    0.76
   0  -7  -8    1.53    0.95
   7   0  -8    2.37    0.66
   0  -7  -8    0.29    2.07
   7  -7   8    1.31    1.00
   0   7   8    2.06    0.60
   0   7   8    1.00    1.04
  -7   0   8    1.32    0.78
   7  -7   8   -0.30    1.42
  -3  -7  -8    3.21    1.43
  -7  10  -8    1.93    1.03
  10  -3  -8   -0.64    1.07
  10  -3  -8    0.59    1.13
  -3  -7  -8    1.60    1.08
 -10   3   8   -0.77    0.74
   7 -10   8   -2.33    1.26
   3   7   8    0.63    1.17
   3   7   8    0.55    0.56
   7 -10   8   -1.46    1.03
  -6  -7  -8    2.47    1.65
  13  -6  -8    4.99    1.66
  -6  -7  -8    5.64    1.72
   7 -13   8    2.67    1.94
   7 -13   8    4.23    1.66
 -13   6   8    4.83    1.18
   6   7   8    5.41    1.57
   6   7   8    4.24    0.95
   6   7   8    4.32    1.85
  14  -8  -8  296.36    9.17
  -8  -6  -8  287.92    9.58
  -6  14  -8  292.41    9.13
  -8  -6  -8  257.92   11.30
   8   6   8  290.73    9.95
 -14   8   8  289.58    9.42
 -14   8   8  290.70    8.67
   6 -14   8  296.78    9.36
  11  -8  -8    6.94    1.57
  -8  -3  -8    8.74    0.86
  -3  11  -8    7.91    1.51
  -8  -3  -8    5.65    1.46
  -8  -3  -8   11.08    1.75
   8   3   8    8.71    1.52
 -11   8   8    7.79    1.47
 -11   8   8    9.07    1.61
   3 -11   8    7.38    1.60
   8   3   8    7.94    1.79
   3 -11   8    9.41    1.57
   8  -8  -8  334.31    9.59
  -8   0  -8  330.41    8.15
  -8   0  -8  349.19    9.76
   0   8  -8  326.53    9.41
  -8   8   8  340.82    9.73
  -8   8   8  325.78    9.57
   8   0   8  332.48    9.29
   0  -8   8  336.44    8.94
   8   0   8  338.50   10.13
   5  -8  -8   -0.03    1.25
   5  -8  -8   -0.34    0.82
  -3  -5   8   -1.50    0.99
  -3  -5   8    0.95    0.58
   8  -3   8    0.97    1.05
  -5   8   8   -0.28    0.74
   8  -3   8    0.20    1.23
  -5   8   8    0.58    0.96
   2  -8  -8  515.98   14.01
   2  -8  -8  528.76   14.24
   6   2  -8  531.12   14.00
  -8   6  -8  522.49   13.21
  -6  -2   8  522.00   12.49
   8  -6   8  516.52   14.14
  -2   8   8  533.71   14.06
  -2   8   8  520.28   12.99
  -6  -2   8  525.51   13.63
   8  -6   8  535.42   14.62
  -1  -8  -8    2.30    1.43
  -8   9  -8    2.48    0.92
   9  -1  -8    3.69    1.33
   9  -1  -8    3.61    0.97
  -1  -8  -8    1.82    1.13
   8  -9   8    1.45    1.23
   1   8   8    1.66    1.21
   1   8   8    0.86    0.67
  -9   1   8    1.98    0.86
  -4  -8  -8  223.13    7.34
  12  -4  -8  222.66    7.80
  12  -4  -8  213.33    6.76
  -4  -8  -8  209.64    7.59
  -8  12  -8  211.21    7.16
 -12   4   8  208.46    7.57
   4   8   8  225.39    5.78
 -12   4   8  213.82    6.47
   8 -12   8  229.64    7.63
   4   8   8  215.14    6.90
  -8  15  -8    1.68    1.44
  -7  -8  -8    4.40    1.99
  -7  -8  -8    2.94    1.94
  15  -7  -8    3.74    1.86
  15  -7  -8    2.44    2.04
 -15   7   8    0.55    1.58
 -15   7   8    1.11    1.23
   8 -15   8    4.04    2.02
  -9  -7  -8    3.38    2.08
  -9  -7  -8    5.04    2.18
  -7  16  -8    5.94    1.80
  16  -9  -8    6.77    2.30
   9   7   8    6.34    2.38
 -16   9   8    3.64    1.53
 -16   9   8    4.24    1.92
   7 -16   8    3.92    1.99
  -9  -4  -8    1.62    0.83
  -4  13  -8    3.61    1.32
  -9  -4  -8    2.50    1.68
  13  -9  -8   -0.14    1.41
   4 -13   8    0.25    1.70
 -13   9   8    3.50    1.54
   9   4   8    5.01    3.45
 -13   9   8    0.72    1.29
   4 -13   8    2.99    1.49
   9   4   8    1.96    1.38
  10  -9  -8    2.27    1.31
  -1  10  -8    0.79    1.05
  -9  -1  -8    0.72    0.60
  -9  -1  -8    1.84    1.33
 -10   9   8   -0.41    1.09
   9   1   8    0.87    1.40
   1 -10   8    1.45    1.11
 -10   9   8    1.84    1.09
   1 -10   8    1.40    0.99
   9   1   8    1.69    1.27
   7  -9  -8    3.06    1.11
  -9   2  -8    2.23    0.64
   2   7  -8    2.36    0.96
  -7   9   8   -0.36    1.18
  -2  -7   8    1.44    0.83
  -2  -7   8    1.85    1.31
   9  -2   8    2.48    1.27
  -7   9   8    2.55    0.91
   9  -2   8    1.47    1.28
   5   4  -8    1.37    1.01
   4  -9  -8    0.26    1.56
  -9   5  -8    1.56    0.75
   4  -9  -8    1.76    1.08
   9  -5   8    1.32    1.21
   9  -5   8    2.05    1.59
  -4   9   8    1.22    0.80
  -5  -4   8    1.09    0.98
  -5  -4   8    1.69    0.62
   1  -9  -8    4.09    1.65
   8   1  -8    2.68    1.13
   1  -9  -8    1.91    1.28
   8   1  -8    2.73    0.84
  -9   8  -8    4.02    1.07
   9  -8   8    2.50    1.69
  -1   9   8    4.85    0.90
  -1   9   8    1.40    1.25
   9  -8   8    4.85    1.52
  -8  -1   8    3.86    1.03
  -2  -9  -8    1.00    1.46
  -9  11  -8    0.17    0.97
  -2  -9  -8    1.37    1.27
  11  -2  -8   -1.30    1.06
  11  -2  -8   -0.17    1.24
 -11   2   8    0.34    0.81
   2   9   8    0.49    1.34
   2   9   8    1.62    0.81
   9 -11   8    1.55    1.28
  -5  -9  -8    1.61    1.85
  -5  -9  -8    3.33    2.01
  -9  14  -8    0.81    1.23
  14  -5  -8    6.19    1.69
  14  -5  -8    1.96    1.87
 -14   5   8    1.35    1.47
   9 -14   8    0.29    1.75
   5   9   8    3.56    1.02
 -14   5   8    2.06    1.10
  17  -8  -8    4.14    2.08
  -8  -9  -8    3.73    2.29
  -9  17  -8    7.36    2.09
   9 -17   8    2.15    2.22
 -17   8   8    4.19    1.96
 -17   8   8    7.58    1.66
 -10  -8  -8  116.22    5.96
  18 -10  -8   99.36    5.68
  -8  18  -8  103.62    5.30
 -18  10   8  112.17    4.91
   8 -18   8   97.08    5.65
 -18  10   8   96.43    5.70
  10   8   8  111.02    6.10
 -10  -5  -8    1.19    1.72
  -5  15  -8    0.46    1.61
 -10  -5  -8    0.77    1.68
  15 -10  -8    1.61    1.84
   5 -15   8    1.01    1.74
  10   5   8    2.31    1.81
 -15  10   8    1.13    1.58
 -15  10   8    4.09    1.58
 -10  -2  -8  216.32    7.17
  12 -10  -8  219.17    7.45
 -10  -2  -8  225.54    5.79
  10   2   8  213.11    7.95
   2 -12   8  206.55    7.24
 -12  10   8  229.17    7.51
 -12  10   8  224.41    7.37
   2 -12   8  222.94    7.10
  10   2   8  212.33    6.36
   1   9  -8    6.90    1.46
   9 -10  -8    4.09    1.35
  -9  10   8    7.04    1.51
  -9  10   8    6.70    1.48
  -1  -9   8    6.20    1.37
  10  -1   8    5.90    1.51
  10  -1   8    5.84    1.56
  -1  -9   8    8.16    1.30
 -10   4  -8  358.71    9.19
   4   6  -8  352.01   10.08
   6 -10  -8  349.59   10.37
   6 -10  -8  361.21   10.73
  -6  10   8  354.49   10.33
  10  -4   8  351.88   10.68
  -6  10   8  341.69    9.67
  10  -4   8  374.60   10.43
  -4  -6   8  353.17   10.36
  -4  -6   8  350.69    9.06
   7   3  -8    1.17    0.99
   3 -10  -8    0.82    1.65
   3 -10  -8    1.16    1.22
 -10   7  -8    0.49    0.83
  10  -7   8   -1.31    1.64
  10  -7   8    0.88    1.14
  -3  10   8    0.52    0.82
  -3  10   8   -0.36    1.28
  -7  -3   8    0.12    0.94
  -7  -3   8    0.67    0.66
   0 -10  -8  263.57    8.60
  10   0  -8  262.49    7.35
  10   0  -8  255.31    8.29
 -10  10  -8  268.60    7.84
   0 -10  -8  264.62    8.57
 -10   0   8  259.19    7.24
   0  10   8  261.32    8.17
  10 -10   8  252.67    8.59
   0  10   8  261.60    7.05
  13  -3  -8   10.06    1.81
  -3 -10  -8    3.89    1.95
 -10  13  -8   10.76    2.94
  13  -3  -8    9.12    1.98
  -3 -10  -8    8.89    1.90
 -13   3   8    8.55    1.94
   3  10   8    8.29    1.19
  10 -13   8    4.64    1.70
 -13   3   8    7.33    1.22
  16  -6  -8  186.15    7.06
 -10  16  -8  191.09    7.12
  -6 -10  -8  190.87    7.73
  16  -6  -8  190.67    7.94
 -16   6   8  188.30    5.95
  10 -16   8  186.05    7.65
 -16   6   8  187.85    7.38
  -9 -10  -8   -3.26    2.25
 -10  19  -8    0.54    2.21
  19  -9  -8    0.21    2.49
  10 -19   8   -2.45    2.11
 -19   9   8    1.59    1.67
 -19   9   8    1.29    2.33
  20 -11  -8    6.10    3.09
  -9  20  -8    1.29    2.37
 -11  -9  -8    5.59    3.02
   9 -20   8    3.16    2.81
 -20  11   8    1.77    2.01
 -20  11   8   -1.56    2.26
  17 -11  -8   -0.01    3.65
  -6  17  -8   -1.98    1.78
 -11  -6  -8    0.72    2.15
 -11  -6  -8   -0.89    2.00
  11   6   8   -1.74    2.30
 -17  11   8   -0.06    1.88
   6 -17   8    1.82    2.01
 -17  11   8   -0.18    1.66
 -11  -3  -8    2.27    1.54
  -3  14  -8    2.34    1.62
  14 -11  -8    0.14    1.73
 -11  -3  -8   -0.24    1.56
 -14  11   8    0.93    1.48
  11   3   8    2.02    1.73
   3 -14   8    1.78    1.59
 -14  11   8    3.61    1.59
  11 -11  -8    0.29    1.54
   0  11  -8   -1.43    1.11
 -11   0  -8   -0.96    0.79
  11   0   8    0.56    1.48
   0 -11   8   -1.37    1.12
 -11  11   8    0.25    1.23
 -11  11   8   -0.06    1.40
   0 -11   8    0.96    1.44
  11   0   8    0.64    1.41
 -11   3  -8    3.97    0.93
   8 -11  -8    3.74    1.52
   3   8  -8    5.52    1.32
  -8  11   8    3.07    1.39
  -3  -8   8    4.94    1.15
  -3  -8   8    4.70    1.63
  11  -3   8    3.13    1.65
  11  -3   8    3.15    1.56
  -3  -8   8    4.11    1.34
  -8  11   8    4.13    1.31
   6   5  -8    0.71    1.02
 -11   6  -8    0.05    0.81
   5 -11  -8   -0.36    1.64
   5 -11  -8   -0.07    1.28
  -6  -5   8    0.59    0.77
  11  -6   8   -1.20    1.36
  -5  11   8    1.73    0.97
  11  -6   8    0.99    1.88
  -6  -5   8    0.33    1.14
   9   2  -8    0.32    0.95
   9   2  -8    0.96    1.28
   2 -11  -8    1.65    1.91
 -11   9  -8    3.02    1.06
   2 -11  -8    0.40    1.24
  11  -9   8    0.38    2.13
  -9  -2   8    1.72    0.90
  11  -9   8    0.24    1.56
  -9  -2   8    0.88    0.92
  -2  11   8    1.69    1.46
  -2  11   8    0.61    0.86
  -1 -11  -8    1.70    2.04
  12  -1  -8    0.33    1.59
  12  -1  -8    2.81    1.40
 -11  12  -8    1.82    1.19
  11 -12   8    1.63    1.64
   1  11   8    0.92    1.73
 -12   1   8    2.38    0.95
   1  11   8    1.63    1.02
  15  -4  -8    6.51    2.10
  15  -4  -8   10.17    2.57
  -4 -11  -8    4.34    1.94
 -11  15  -8    6.92    1.71
  11 -15   8    3.62    2.11
   4  11   8    6.49    1.68
 -15   4   8    8.02    1.30
 -15   4   8    5.84    2.20
  18  -7  -8    0.85    2.28
  18  -7  -8   -3.83    2.27
  -7 -11  -8    0.85    2.17
 -11  18  -8    2.97    2.06
 -18   7   8    2.28    1.45
 -18   7   8    0.00    2.11
  11 -18   8   -3.08    2.02
  21 -10  -8    1.37    3.25
 -10 -11  -8    1.99    2.81
 -11  21  -8    5.51    2.67
 -21  10   8    1.92    2.56
  11 -21   8    2.10    3.12
 -21  10   8    3.34    1.97
 -12 -10  -8  103.48    6.69
  22 -12  -8   95.69    6.92
 -10  22  -8  104.05    6.24
  10 -22   8   99.17    6.99
 -22  12   8   96.34    6.14
  -7  19  -8   -0.38    2.33
  19 -12  -8   -1.40    2.62
 -12  -7  -8   -1.49    2.22
 -19  12   8    0.67    2.50
  12   7   8    0.36    2.57
 -19  12   8   -3.64    2.01
   7 -19   8   -2.95    2.49
 -12  -4  -8  170.76    6.12
  -4  16  -8  162.96    6.51
 -12  -4  -8  161.73    6.96
  12   4   8  162.00    7.38
 -16  12   8  161.76    6.67
 -16  12   8  166.99    6.46
  13 -12  -8   13.14    2.47
  -1  13  -8   12.46    1.99
 -12  -1  -8   14.75    1.59
 -13  12   8   12.52    2.04
 -13  12   8   15.11    2.42
  12   1   8    7.31    2.83
 -12   2  -8  185.31    5.35
  10 -12  -8  186.15    6.90
   2  10  -8  188.91    6.50
 -10  12   8  190.43    9.04
  -2 -10   8  183.43    6.11
 -10  12   8  188.69    6.81
  12  -2   8  169.90    6.00
  12  -2   8  179.71    7.13
  -2 -10   8  183.66    5.86
 -12   5  -8    3.59    1.00
   5   7  -8    4.88    1.54
   7 -12  -8    1.04    1.55
  12  -5   8    3.76    1.93
  -5  -7   8    1.85    1.46
  -5  -7   8    3.60    1.06
  -7  12   8    0.89    1.60
  12  -5   8    3.09    1.61
  -7  12   8    2.21    1.08
   4 -12  -8  260.38    8.64
   4 -12  -8  245.34    8.45
 -12   8  -8  249.58    7.40
   8   4  -8  241.31   10.44
  -8  -4   8  254.03    6.89
  -4  12   8  247.61    8.33
  12  -8   8  257.41    8.81
  -8  -4   8  251.61    7.39
  12  -8   8  245.37    8.62
  11   1  -8    0.57    1.24
 -12  11  -8    2.58    1.19
   1 -12  -8   -1.36    2.08
  -1  12   8    1.05    1.49
  -1  12   8   -1.12    0.94
 -11  -1   8    0.50    0.85
  12 -11   8    0.20    1.68
  14  -2  -8  217.09    7.04
  14  -2  -8  205.10    7.77
 -12  14  -8  207.69    7.22
  -2 -12  -8  207.35    7.97
 -14   2   8  205.76    7.70
 -14   2   8  195.03    6.46
   2  12   8  221.34    6.23
  12 -14   8  202.71    8.89
  -5 -12  -8   -0.26    1.99
  17  -5  -8    4.58    2.74
  17  -5  -8    0.87    2.19
 -12  17  -8   -0.45    1.80
 -17   5   8    3.47    2.07
 -17   5   8    1.43    1.16
  12 -17   8   -0.85    2.10
 -12  20  -8   92.33    5.35
  -8 -12  -8   96.96    6.33
  20  -8  -8  108.06    6.37
 -20   8   8  105.35    5.85
  12 -20   8   93.62    6.48
 -20   8   8  100.90    4.35
 -12  23  -8    2.82    2.91
 -11 -12  -8    0.79    3.10
  23 -11  -8   -2.63    4.09
  12 -23   8    8.42    4.05
 -23  11   8    8.22    3.62
 -11  24  -8    3.29    3.41
  24 -13  -8    3.95    4.63
 -13 -11  -8   -5.29    4.67
  11 -24   8   -8.73    3.78
 -24  13   8    2.10    3.63
  21 -13  -8    9.44    3.71
 -13  -8  -8    0.36    2.60
  -8  21  -8    2.47    2.77
 -21  13   8   -0.02    2.63
   8 -21   8   -0.61    2.97
 -13  -5  -8    0.67    2.18
 -13  -5  -8   -2.70    1.99
  -5  18  -8    0.19    1.86
  18 -13  -8    1.57    2.52
 -18  13   8   -1.65    1.93
 -18  13   8   -0.10    2.01
  13   5   8    1.23    2.41
   5 -18   8    1.66    2.16
  -2  15  -8    1.81    1.63
  15 -13  -8   -1.31    2.08
   2 -15   8   -2.50    1.74
 -15  13   8    2.52    1.79
  13   2   8   -1.67    2.01
 -15  13   8    1.94    1.80
  12 -13  -8    4.07    2.31
 -13   1  -8    0.04    1.06
   1  12  -8    0.24    1.34
 -12  13   8    1.07    1.72
 -12  13   8    0.65    1.40
  -1 -12   8   -1.06    1.32
  13  -1   8    0.32    2.09
 -13   4  -8    3.19    1.10
   9 -13  -8    2.76    1.72
  -4  -9   8    3.44    1.28
  -4  -9   8    2.82    1.28
  -9  13   8    5.05    1.73
  -4  -9   8    3.23    1.77
  13  -4   8    3.28    1.93
  -9  13   8    6.47    1.78
 -13   7  -8    1.36    1.04
   6 -13  -8    0.22    1.60
   6 -13  -8    0.56    2.26
   7   6  -8    0.87    1.28
  -7  -6   8    0.21    0.89
  -6  13   8   -0.52    1.10
  13  -7   8    0.03    1.46
  -7  -6   8    2.63    1.40
  -6  13   8   -0.38    1.78
  13  -7   8   -2.48    2.32
  -7  -6   8   -0.05    0.97
   3 -13  -8    2.40    2.25
  10   3  -8    1.35    1.22
  10   3  -8    3.16    1.72
 -13  10  -8    2.85    1.27
   3 -13  -8    1.86    1.63
  13 -10   8    0.64    1.97
  13 -10   8    0.23    2.50
 -10  -3   8    0.66    1.04
 -10  -3   8    0.92    0.99
  -3  13   8    2.50    1.19
  -3  13   8    2.79    1.75
 -13  13  -8    0.12    1.39
  13   0  -8   -0.38    1.57
   0 -13  -8   -0.41    1.62
  13   0  -8    0.52    1.53
 -13   0   8    1.06    0.81
  13 -13   8    0.67    1.94
   0  13   8    0.87    1.38
  16  -3  -8   -0.26    2.10
  -3 -13  -8    5.37    2.10
 -13  16  -8    1.99    1.74
  16  -3  -8    0.49    1.98
 -16   3   8   -2.36    1.66
 -16   3   8    0.62    0.95
  13 -16   8    0.97    2.00
 -13  19  -8   -1.63    2.17
  -6 -13  -8   -0.55    2.74
  19  -6  -8   -2.70    3.03
  19  -6  -8   -1.84    2.89
 -19   6   8   -2.99    1.22
 -19   6   8    0.13    2.52
  13 -19   8   -3.29    2.67
 -13  22  -8    0.38    4.05
  -9 -13  -8   -1.21    3.26
  22  -9  -8   -1.49    3.58
  13 -22   8    2.40    3.35
 -22   9   8    0.54    2.89
 -12 -13  -8   14.27    4.36
 -13  25  -8    6.85    3.54
  13 -25   8   14.34    4.96
 -25  12   8   17.19    4.48
 -12  26  -8   37.92    5.55
 -14 -12  -8   40.85    6.27
  12 -26   8   33.01    6.15
 -26  14   8   35.10    5.34
 -14  -9  -8   11.92    4.20
  -9  23  -8    6.17    3.15
  23 -14  -8    6.99    4.01
 -23  14   8   11.27    3.62
   9 -23   8   14.98    4.24
  20 -14  -8   68.54    5.95
  -6  20  -8   66.32    4.81
 -14  -6  -8   73.09    5.38
 -20  14   8   64.92    4.76
 -20  14   8   66.21    5.03
   6 -20   8   69.00    5.40
  14   6   8   62.93    5.62
 -14  -3  -8   -1.20    1.86
  -3  17  -8    2.40    2.06
  17 -14  -8    0.98    2.58
 -17  14   8   -0.26    2.11
  14   3   8   -0.23    2.26
   3 -17   8   -3.15    2.14
 -17  14   8    3.25    2.34
  14 -14  -8  215.62    8.41
   0  14  -8  219.44    7.81
 -14  14   8  234.17    8.09
   0 -14   8  210.04    7.48
  14   0   8  215.53    8.73
 -14   3  -8    5.57    1.32
  11 -14  -8    5.81    1.87
   3  11  -8    3.97    1.50
 -11  14   8    4.54    1.97
  14  -3   8    3.69    2.01
  -3 -11   8    1.65    1.46
 -11  14   8    5.13    1.61
   8 -14  -8  265.81    9.10
   6   8  -8  238.59    8.19
 -14   6  -8  256.70    7.46
  -8  14   8  280.01   10.81
  -8  14   8  246.50    8.65
  14  -6   8  240.91    9.36
  -6  -8   8  247.04    7.33
  -6  -8   8  250.00    8.32
  -6  -8   8  256.30    7.48
 -14   9  -8    2.80    1.27
   5 -14  -8    1.49    1.89
   9   5  -8    0.64    1.39
  -5  14   8    1.01    1.27
  -9  -5   8    0.33    0.93
  -9  -5   8    0.15    1.11
  -9  -5   8    0.59    1.19
  14  -9   8   -0.03    2.03
  12   2  -8  169.50    6.76
  12   2  -8  174.54    5.95
 -14  12  -8  182.66    6.41
   2 -14  -8  166.99    7.24
  14 -12   8  177.39    7.46
 -12  -2   8  174.52    5.78
  -2  14   8  180.99    5.79
 -12  -2   8  182.25    5.05
  15  -1  -8    5.14    2.26
  15  -1  -8    5.44    2.13
 -14  15  -8    4.05    1.79
  -1 -14  -8    1.09    2.01
 -15   1   8    2.14    0.73
  14 -15   8    4.81    2.21
   1  14   8    4.38    1.55
 -15   1   8    2.76    1.87
 -14  18  -8  118.54    5.74
  18  -4  -8  118.95    6.61
  -4 -14  -8  117.18    6.77
  18  -4  -8  116.89    6.02
 -18   4   8  120.08    6.18
 -18   4   8  122.77    3.71
  14 -18   8  115.88    6.43
 -14  21  -8   -1.51    2.66
  -7 -14  -8   -0.74    3.22
  21  -7  -8    0.42    3.40
  14 -21   8   -0.67    3.37
 -21   7   8    5.13    3.08
 -10 -14  -8   58.36    7.02
 -14  24  -8   55.28    5.33
 -24  10   8   68.63    5.80
 -13 -14  -8    1.81    5.30
 -14  27  -8   -2.64    4.47
  14 -27   8   -2.93    5.26
 -27  13   8    6.34    4.44
 -13  28  -8    3.89    5.21
 -15 -13  -8   -6.05    5.04
  13 -28   8    1.71    6.11
 -28  15   8    1.34    4.58
 -10  25  -8    0.82    3.56
  25 -15  -8   -6.57    7.87
 -15 -10  -8   -1.33    3.95
 -25  15   8   -0.62    3.52
  10 -25   8   -7.03    4.38
 -15  -7  -8    3.40    3.13
  22 -15  -8    6.84    3.81
  -7  22  -8    2.59    3.92
 -22  15   8    7.12    3.18
  15   7   8    3.85    3.53
   7 -22   8   -3.38    3.23
  -4  19  -8    1.32    2.15
  19 -15  -8   -0.76    2.97
 -15  -4  -8    0.57    2.54
 -19  15   8   -0.12    2.39
   4 -19   8    4.91    2.69
 -19  15   8    3.71    2.61
  15   4   8   -0.78    2.60
  16 -15  -8    3.57    2.51
  -1  16  -8   -1.60    1.70
   1 -16   8    1.41    2.08
 -16  15   8    2.05    1.97
  15   1   8    0.22    2.52
 -16  15   8   -0.84    2.18
   2  13  -8    0.77    1.49
 -15   2  -8   -0.45    1.32
  13 -15  -8    0.28    1.98
 -13  15   8    1.39    1.88
  -2 -13   8    2.61    1.76
 -13  15   8    7.03    2.34
  15  -2   8    2.07    2.07
  10 -15  -8    3.80    2.12
 -15   5  -8    2.06    1.26
   5  10  -8    4.49    1.68
  -5 -10   8    5.25    2.06
 -10  15   8    4.99    1.72
  15  -5   8    4.28    2.15
 -10  15   8    1.46    2.06
  -5 -10   8    4.41    1.56
   8   7  -8   16.65    2.29
 -15   8  -8   14.39    1.95
   7 -15  -8   16.05    2.74
  -8  -7   8   18.11    2.17
  -8  -7   8   13.76    1.61
  -8  -7   8   16.18    1.87
  -7  15   8   14.83    2.83
  -7  15   8   18.26    2.27
  15  -8   8   12.13    2.60
   4 -15  -8   13.69    2.50
  11   4  -8   15.17    2.64
 -15  11  -8   10.71    1.91
 -11  -4   8   13.73    1.71
 -11  -4   8   13.59    1.78
 -11  -4   8   11.21    1.43
  15 -11   8   11.47    2.50
  -4  15   8   14.93    1.93
   1 -15  -8    3.33    2.17
  14   1  -8    2.26    1.95
 -15  14  -8   -2.13    1.43
  14   1  -8   -2.18    1.82
  15 -14   8   -2.08    1.90
  -1  15   8    2.15    1.50
 -14  -1   8    1.26    1.64
 -15  17  -8   16.60    2.53
  17  -2  -8   11.42    3.24
  17  -2  -8   16.68    2.94
  -2 -15  -8   14.37    3.09
 -17   2   8   13.98    3.26
  15 -17   8   13.81    3.01
  20  -5  -8   -1.47    3.11
 -15  20  -8    0.93    2.65
  -5 -15  -8    1.18    3.11
  15 -20   8    5.68    3.13
 -20   5   8    3.06    2.92
 -15  23  -8   16.64    3.42
  -8 -15  -8    7.56    3.91
  15 -23   8    5.93    4.08
 -23   8   8   11.59    3.61
 -11 -15  -8   -5.05    4.25
 -15  26  -8    5.94    4.38
  15 -26   8   -9.00    4.72
 -26  11   8   -1.57    4.34
 -14 -15  -8   22.82    7.01
  15 -29   8   10.29    6.75
 -16 -11  -8   12.78    5.64
 -11  27  -8   12.09    4.48
 -27  16   8   13.60    5.27
  11 -27   8    6.55    5.96
  -8  24  -8   46.59    5.50
  24 -16  -8   62.45    7.38
 -16  -8  -8   65.90    6.32
 -24  16   8   53.64    5.66
   8 -24   8   56.81    7.23
  21 -16  -8   -1.84    3.01
 -16  -5  -8    0.71    3.24
  -5  21  -8    3.50    2.72
   5 -21   8   -1.42    3.17
  16   5   8    5.12    3.76
 -21  16   8    5.89    3.32
  -2  18  -8  101.77    5.53
  18 -16  -8  101.11    6.22
 -16  -2  -8  113.46    6.21
 -18  16   8  108.67    5.95
  16   2   8   98.05    6.47
   2 -18   8  114.31    6.05
 -18  16   8  108.93    6.04
   1  15  -8   -0.56    1.74
  15 -16  -8   -1.26    2.40
  16  -1   8    4.54    2.60
 -15  16   8   -0.62    2.37
  -1 -15   8    0.77    2.13
 -15  16   8   -0.55    1.81
   4  12  -8  201.38    7.56
  12 -16  -8  202.51    8.36
 -16   4  -8  214.69    6.57
  -4 -12   8  198.70    7.00
  16  -4   8  198.19    8.42
  -4 -12   8  200.75    8.19
 -12  16   8  210.27    7.48
 -12  16   8  204.23    8.11
 -16   7  -8    3.85    1.50
   9 -16  -8    2.47    2.01
   7   9  -8    5.48    1.91
  16  -7   8    6.15    2.14
  -7  -9   8    3.99    1.61
  -9  16   8    4.73    1.86
  -7  -9   8    4.06    1.48
  -9  16   8    1.12    2.42
  -7  -9   8    5.96    2.06
   6 -16  -8  161.10    7.14
  10   6  -8  172.70    6.73
  16 -10   8  162.26    7.58
 -10  -6   8  174.42    5.07
 -10  -6   8  164.06    5.53
 -10  -6   8  171.02    5.68
 -16  13  -8    0.91    1.49
   3 -16  -8    1.80    2.05
  13   3  -8   -0.44    1.86
  -3  16   8    3.01    1.93
 -13  -3   8    2.51    1.69
  16 -13   8    1.83    2.11
 -16  16  -8  120.34    5.59
   0 -16  -8  125.65    6.58
  16   0  -8  137.14    6.52
 -16   0   8  117.74    6.05
   0  16   8  123.19    5.73
  16 -16   8  116.66    6.62
 -16  19  -8    2.16    2.24
  19  -3  -8    0.81    2.94
  -3 -16  -8    3.04    2.77
 -19   3   8    4.44    2.78
  16 -19   8    4.17    2.78
 -16  22  -8   70.10    5.84
  -6 -16  -8   69.47    6.25
  16 -22   8   74.79    6.91
 -16  25  -8   -2.34    3.57
  -9 -16  -8   -0.94    4.65
 -25   9   8   -0.25    4.05
  16 -25   8    6.58    4.93
 -16  28  -8   30.27    8.39
 -12 -16  -8   27.70    6.73
 -28  12   8   20.32    6.04
  16 -28   8   25.75    6.69
  26 -17  -8    6.46    5.99
  -9  26  -8   -4.25    3.78
 -17  -9  -8    3.38    5.02
   9 -26   8    1.11    5.22
 -26  17   8   -3.97    4.01
  -6  23  -8    2.90    3.70
  23 -17  -8    5.82    4.47
   6 -23   8    0.52    3.67
 -23  17   8    3.35    3.44
  20 -17  -8    3.81    3.46
 -17  -3  -8   -3.31    2.65
  -3  20  -8   -0.85    2.74
 -20  17   8   -2.90    3.10
   3 -20   8    3.71    3.04
 -20  17   8   -1.24    2.76
  17   3   8   -1.84    3.47
   0  17  -8    6.04    2.46
  17 -17  -8    9.18    3.23
 -17  17   8   10.82    2.73
 -17  17   8    5.04    2.47
  17   0   8    4.38    3.20
   0 -17   8    5.61    2.60
  14 -17  -8   -0.20    2.53
   3  14  -8    0.41    2.08
 -14  17   8    4.07    2.16
  17  -3   8   -1.35    2.17
  -3 -14   8    3.29    2.08
 -14  17   8    0.81    2.54
  11 -17  -8    1.54    2.38
 -17   6  -8    4.73    1.72
   6  11  -8    1.12    1.96
  -6 -11   8    3.43    2.34
  -6 -11   8    0.04    1.96
 -11  17   8    1.05    2.67
 -11  17   8    1.31    1.65
  17  -6   8    2.66    2.55
 -17   9  -8   -0.76    1.66
   9   8  -8    3.49    1.92
   8 -17  -8    1.78    2.09
  -8  17   8    3.08    1.81
  17  -9   8    1.88    2.26
  -9  -8   8   -0.35    1.63
  -9  -8   8   -2.08    1.64
  -9  -8   8    1.76    1.32
   5 -17  -8   -0.39    1.93
  12   5  -8   -1.58    1.83
 -17  12  -8   -0.12    1.51
  -5  17   8    1.84    1.68
 -12  -5   8    0.57    0.93
 -12  -5   8    0.39    0.79
  17 -12   8    1.98    2.16
   2 -17  -8    3.71    2.40
  15   2  -8    4.79    2.47
 -17  15  -8    7.36    2.08
  -2  17   8    6.32    1.95
  17 -15   8    5.94    3.04
  -1 -17  -8    8.11    3.23
  18  -1  -8    7.78    3.35
 -17  18  -8   -0.21    2.27
  17 -18   8    7.58    3.13
 -18   1   8    2.08    2.72
 -17  21  -8    1.75    3.02
  21  -4  -8    9.77    3.77
  -4 -17  -8    2.71    3.19
  17 -21   8   -3.99    3.24
 -21   4   8    2.67    3.13
 -17  24  -8    4.94    3.78
  -7 -17  -8    8.28    4.62
  17 -24   8    6.74    4.54
 -24   7   8   -1.97    3.52
 -10 -17  -8    8.18    5.80
 -17  27  -8    9.10    4.65
 -27  10   8    7.15    5.14
  17 -27   8   14.29    6.00
 -18 -10  -8   43.64    7.26
  10 -28   8   43.60    7.37
  25 -18  -8    0.28    5.38
  -7  25  -8    3.82    3.87
 -18  -7  -8   -3.35    4.68
   7 -25   8   -0.94    4.61
 -25  18   8    3.59    3.89
  22 -18  -8   55.40    7.02
 -18  -4  -8   76.31    6.16
  -4  22  -8   63.03    6.02
 -22  18   8   59.64    6.20
  18   4   8   67.71    7.18
   4 -22   8   80.21    6.36
 -18  -1  -8    1.61    2.77
  19 -18  -8   -1.02    3.48
  -1  19  -8   -3.51    2.34
   1 -19   8    6.71    3.23
  18   1   8    4.09    3.26
 -19  18   8    2.36    3.07
 -19  18   8   -3.89    3.24
  16 -18  -8   98.09    6.30
   2  16  -8  107.92    5.67
  18  -2   8  107.65    6.89
 -16  18   8   95.95    5.88
 -16  18   8  101.06    5.88
  -2 -16   8  109.77    5.78
   5  13  -8    3.90    2.21
  13 -18  -8    1.81    2.80
 -13  18   8   -0.03    1.81
  18  -5   8    0.61    2.66
  -5 -13   8   -0.47    2.10
  -5 -13   8    1.87    2.69
  10 -18  -8  138.86    6.85
 -18   8  -8  140.16    5.57
   8  10  -8  139.01    6.44
  -8 -10   8  135.39    6.14
 -10  18   8  149.17   10.27
  18  -8   8  131.38    6.95
 -10  18   8  142.15    5.81
   7 -18  -8    0.01    2.28
 -18  11  -8    5.89    1.91
  11   7  -8   -1.24    2.06
 -11  -7   8    2.10    1.16
  -7  18   8    1.25    1.84
  18 -11   8    2.23    2.65
 -11  -7   8    0.50    1.36
 -18  14  -8  117.43    5.66
   4 -18  -8  122.20    6.70
  14   4  -8  123.59    6.44
  18 -14   8  131.27    7.36
  -4  18   8  130.26    5.55
 -18  17  -8    3.68    2.47
  17   1  -8    2.19    2.75
   1 -18  -8    2.32    2.98
  18 -17   8    4.94    2.99
 -17  -1   8   -2.40    2.46
  20  -2  -8   87.40    6.69
  -2 -18  -8   83.12    6.41
 -18  20  -8   77.68    5.25
 -20   2   8   70.55    5.73
  18 -20   8   86.90    7.21
  -5 -18  -8    1.85    3.60
 -18  23  -8   -0.45    3.42
  18 -23   8   10.27    4.66
 -23   5   8    2.73    3.91
 -18  26  -8   26.43    4.97
  -8 -18  -8   30.69    5.88
 -26   8   8   36.18    5.85
  18 -26   8   25.82    6.18
 -19  -8  -8    3.04    5.46
  -8  27  -8    2.50    4.33
  27 -19  -8    2.29    6.34
 -27  19   8    6.26    4.60
   8 -27   8   18.95    6.82
  24 -19  -8   -1.18    5.00
 -19  -5  -8   -2.18    3.87
  -5  24  -8    1.48    3.94
  19   5   8    1.52    4.68
   5 -24   8    1.41    5.26
 -24  19   8   -6.10    3.52
  -2  21  -8    0.68    2.83
  21 -19  -8   -0.30    4.10
 -19  -2  -8   -0.54    3.79
 -21  19   8    2.53    3.12
   2 -21   8    2.68    3.52
  19   2   8    0.49    4.17
  18 -19  -8   -1.21    3.33
   1  18  -8    2.78    2.83
  -1 -18   8    8.41    3.12
 -18  19   8    2.70    2.94
  19  -1   8    3.31    3.60
 -18  19   8    1.51    3.53
   4  15  -8    2.84    2.40
  15 -19  -8    1.97    2.99
  -4 -15   8    2.88    3.44
 -15  19   8    2.20    2.29
 -15  19   8    2.28    2.89
  19  -4   8    2.89    2.83
 -19   7  -8   -0.74    1.89
   7  12  -8    1.14    2.32
  12 -19  -8   -6.78    2.55
  19  -7   8    3.40    2.65
 -12  19   8    3.54    2.33
  -7 -12   8   -1.68    2.53
 -19  10  -8    2.17    2.06
   9 -19  -8    4.73    2.86
  10   9  -8    6.00    2.58
 -10  -9   8    5.47    1.95
  -9  19   8    9.23    2.32
  19 -10   8    7.90    3.19
  13   6  -8   -1.85    2.44
   6 -19  -8    6.08    2.88
 -19  13  -8    1.63    2.03
  19 -13   8   -2.74    2.42
  -6  19   8    0.08    1.92
   3 -19  -8   -2.15    2.83
 -19  16  -8    0.79    2.48
  16   3  -8    4.79    2.88
  19 -16   8   -1.75    2.83
  -3  19   8    1.75    2.20
 -19  19  -8    6.14    3.00
  19   0  -8    3.52    3.78
   0 -19  -8    6.31    3.39
  19 -19   8   -2.04    3.17
 -19   0   8    4.67    3.05
  22  -3  -8   -6.12    4.54
 -19  22  -8    0.43    3.37
  -3 -19  -8    2.10    4.29
  19 -22   8    6.70    4.83
 -22   3   8   -1.27    3.73
 -19  25  -8    3.18    3.78
  -6 -19  -8    4.79    4.48
 -25   6   8    7.58    4.29
  19 -25   8    3.67    4.77
  -9 -19  -8   -2.34    6.32
  19 -28   8    5.02    7.02
  -6  26  -8   29.22    5.23
  26 -20  -8    5.87    6.32
 -20  -6  -8   23.95    5.94
 -26  20   8   14.59    5.44
  23 -20  -8    1.39    4.96
  -3  23  -8    0.75    3.79
 -20  -3  -8   -2.30    4.13
 -23  20   8   -2.44    4.00
  20   3   8   -2.64    4.05
   0  20  -8   78.04    5.74
 -20   0  -8   72.90    6.60
  20 -20  -8   83.62    7.46
 -20  20   8   68.71    6.05
  20   0   8   80.59    7.25
  17 -20  -8   -0.80    3.01
   3  17  -8    2.72    3.11
 -17  20   8    3.95    2.69
  20  -3   8   -5.22    3.42
 -17  20   8    1.30    3.38
   6  14  -8   70.07    4.90
  14 -20  -8   73.38    6.31
  -6 -14   8   69.38    5.68
  20  -6   8   70.79    5.89
 -14  20   8   68.47    4.71
 -20   9  -8    4.44    2.05
  11 -20  -8   -3.58    2.95
   9  11  -8   -0.66    2.26
 -11  20   8    2.86    2.40
  -9 -11   8    4.13    2.47
  20  -9   8    3.07    2.78
 -20  12  -8  127.53    5.85
  12   8  -8  119.72    6.39
   8 -20  -8  122.03    7.02
 -12  -8   8  128.18    3.79
  -8  20   8  123.97    5.89
  20 -12   8  123.11    7.25
   5 -20  -8    6.05    2.78
 -20  15  -8    5.95    2.66
  15   5  -8    2.71    3.01
  -5  20   8    1.06    2.48
  20 -15   8    2.82    3.25
  18   2  -8   88.21    6.91
 -20  18  -8   97.77    5.87
   2 -20  -8   74.82    6.87
 -18  -2   8   82.86    6.61
  20 -18   8   73.64    7.27
 -20  21  -8   10.29    3.53
  21  -1  -8    2.29    3.99
  -1 -20  -8    6.48    5.38
  20 -21   8    2.46    4.63
 -21   1   8   -0.34    3.44
  -4 -20  -8   43.53    6.88
 -20  24  -8   56.62    6.45
 -24   4   8   56.14    6.14
  20 -24   8   45.12    6.99
 -20  27  -8   -1.24    5.01
  -7 -20  -8  -14.74    5.99
  20 -27   8    4.22    6.63
 -27   7   8   11.08    5.66
 -21  -4  -8   -9.71    4.30
  -4  25  -8   -1.51    4.04
  25 -21  -8    4.83    5.75
  21   4   8   -4.23    5.23
 -25  21   8    3.60    4.99
  -1  22  -8    6.29    3.53
  22 -21  -8    8.26    5.04
 -21  -1  -8   -1.86    3.56
 -22  21   8   -3.72    3.27
  21   1   8   -3.69    4.16
  19 -21  -8    4.87    4.38
   2  19  -8   10.17    3.85
  21  -2   8    6.57    4.30
 -19  21   8    7.75    3.58
  16 -21  -8   -2.32    3.22
   5  16  -8   -1.68    2.61
 -16  21   8    0.10    2.95
  21  -5   8    2.95    3.67
   8  13  -8   11.24    2.91
 -21   8  -8    2.02    3.71
  13 -21  -8    5.74    3.30
  -8 -13   8    4.04    4.14
 -13  21   8    8.12    2.88
  21  -8   8    3.81    3.31
 -21  11  -8    2.89    2.43
  11  10  -8    3.86    2.65
  10 -21  -8   12.09    3.56
  21 -11   8    3.53    3.63
 -11 -10   8    2.83    2.02
 -10  21   8   -3.05    2.48
   7 -21  -8    2.36    3.01
 -21  14  -8    2.96    2.66
  14   7  -8    6.65    3.23
  21 -14   8    3.24    3.37
  -7  21   8    5.11    2.66
 -21  17  -8    3.08    2.58
   4 -21  -8   -3.92    2.92
  17   4  -8   -0.12    3.52
  21 -17   8    0.10    3.37
 -21  20  -8   -1.21    3.34
   1 -21  -8    1.47    3.93
  20   1  -8    6.54    4.03
  21 -20   8    4.72    4.11
 -20  -1   8    3.02    3.62
  -2 -21  -8    3.93    4.74
  23  -2  -8    0.33    5.34
 -21  23  -8    5.75    4.03
  21 -23   8    5.91    4.87
 -23   2   8   10.82    4.72
  -5 -21  -8    6.25    6.03
 -21  26  -8    0.85    4.97
  21 -26   8    5.80    6.41
 -26   5   8    8.28    5.48
  27 -22  -8    0.95    6.85
 -22  -5  -8    1.59    6.03
  24 -22  -8   40.97    6.91
  -2  24  -8   42.84    5.78
 -22  -2  -8   41.67    6.36
  22   2   8   49.86    7.12
 -24  22   8   36.84    5.41
  21 -22  -8    9.04    4.97
   1  21  -8   -3.68    3.96
 -22   1  -8   -1.57    4.27
  22  -1   8   -1.96    4.60
 -21  22   8    3.57    3.58
   4  18  -8   49.94    5.25
  18 -22  -8   57.87    6.50
 -18  22   8   55.03    5.77
  22  -4   8   53.95    7.84
   7  15  -8    7.00    3.12
  15 -22  -8   10.47    3.69
  22  -7   8    0.82    3.80
 -15  22   8    4.70    2.85
  12 -22  -8   95.05    7.24
 -22  10  -8   76.11    5.33
  10  12  -8   77.05    6.08
 -12  22   8   85.82    5.71
  22 -10   8   95.28    7.02
 -22  13  -8   -0.42    2.64
  13   9  -8    5.20    2.90
   9 -22  -8    2.46    3.53
  -9  22   8   -0.79    2.70
  22 -13   8    2.28    3.59
   6 -22  -8   63.96    6.34
 -22  16  -8   72.15    4.94
  16   6  -8   68.64    6.34
  -6  22   8   56.50    5.05
  22 -16   8   61.44    7.11
  19   3  -8    9.62    4.48
   3 -22  -8    5.73    3.77
 -22  19  -8    7.93    3.20
 -19  -3   8    1.62    4.14
  22 -19   8    9.20    4.24
  22   0  -8   50.54    6.59
 -22  22  -8   50.62    6.32
   0 -22  -8   60.15    7.72
  22 -22   8   49.37    6.80
 -22   0   8   44.78    6.13
 -22  25  -8   -0.36    4.69
  -3 -22  -8   -6.40    5.38
 -25   3   8    2.75    5.14
  22 -25   8    0.38    5.83
  -3  26  -8    6.50    7.15
 -23  -3  -8    0.31    5.63
  26 -23  -8   -0.68    6.52
  23   3   8    8.54    6.46
   0  23  -8    6.31    4.72
  23 -23  -8   10.93    5.53
 -23   0  -8    0.44    4.88
 -23  23   8    1.73    4.50
  23   0   8   -5.17    5.63
  20 -23  -8   -3.53    4.83
   3  20  -8    5.78    4.03
 -20  23   8   -2.72    3.40
  23  -3   8   -2.15    5.00
   6  17  -8   15.17    3.94
  17 -23  -8   18.25    4.50
 -17  23   8   22.27    3.93
  23  -6   8    3.12    4.73
   9  14  -8    0.90    3.66
  14 -23  -8    2.56    4.14
  23  -9   8    0.71    3.59
  11 -23  -8    7.11    3.99
 -23  12  -8    7.86    3.08
  12  11  -8    1.47    3.57
  23 -12   8    0.95    3.46
 -11  23   8    7.46    3.13
  15   8  -8    7.75    4.50
 -23  15  -8    4.47    3.11
  -8  23   8   -0.25    3.23
   5 -23  -8   13.79    4.52
  18   5  -8    6.58    4.32
 -23  18  -8    7.42    3.73
  23 -18   8   13.00    5.19
  21   2  -8   10.09    5.54
 -23  21  -8    5.03    4.03
   2 -23  -8   12.95    5.05
  23 -21   8    2.37    4.49
 -21  -2   8   -5.51    4.63
  24  -1  -8   12.27    6.57
  -1 -23  -8   -6.01    5.41
 -23  24  -8    7.72    4.58
  23 -24   8   -5.83    5.95
 -24   1   8    0.05    5.31
 -24  -1  -8   11.04    5.69
  25 -24  -8  -10.54    6.25
  -1  25  -8    5.48    5.73
  24   1   8   -1.47    6.00
 -24   2  -8   42.23    6.59
  22 -24  -8   34.56    6.24
   2  22  -8   32.95    5.70
  24  -2   8   39.78    7.01
 -22  24   8   39.89    5.96
   5  19  -8   -1.95    3.96
  19 -24  -8   -2.78    4.66
  24  -5   8  -11.48    4.85
 -19  24   8   -8.41    3.78
   8  16  -8   52.02    5.75
  16 -24  -8   78.56    7.17
 -16  24   8   63.17    5.63
  24  -8   8   52.56    6.74
  11  13  -8   -2.03    3.67
  13 -24  -8   -0.28    4.35
 -13  24   8    3.70    3.52
  24 -11   8   -0.26    4.48
  14  10  -8   56.26    5.90
  10 -24  -8   50.76    6.41
 -24  14  -8   63.76    5.55
  24 -14   8   61.12    6.83
   7 -24  -8    2.50    4.60
 -24  17  -8    5.52    3.83
  17   7  -8    8.67    4.54
  24 -17   8    0.03    4.75
 -24  20  -8   51.78    6.50
  20   4  -8   58.92    6.77
   4 -24  -8   55.04    7.07
  24 -20   8   56.33    7.25
 -20  -4   8   60.73    6.81
 -24  23  -8   13.99    4.77
   1 -24  -8   -4.04    4.64
  23   1  -8   -8.34    6.18
  24 -23   8   12.10    5.44
 -23  -1   8   -3.16    5.13
  -2 -24  -8   31.40    7.57
  24 -26   8   26.75    7.75
  24 -25  -8    2.31    6.57
   1  24  -8    4.41    5.53
 -25   1  -8   -5.96    5.74
  25  -1   8   -8.49    6.43
  21 -25  -8   10.24    5.82
   4  21  -8    6.58    4.88
 -21  25   8   13.18    4.99
  25  -4   8    0.15    5.78
   7  18  -8   -4.88    4.34
  18 -25  -8   -1.90    5.11
 -18  25   8    4.66    4.35
  25  -7   8   11.02    5.36
  10  15  -8    9.71    4.40
  15 -25  -8   -0.21    4.14
  25 -10   8    2.01    5.05
 -15  25   8    0.33    3.73
  13  12  -8   -0.01    4.25
  12 -25  -8    7.81    4.34
  25 -13   8   -1.12    5.06
 -12  25   8    6.52    3.82
  16   9  -8   10.50    4.11
   9 -25  -8    7.83    5.05
 -25  16  -8    6.86    3.97
  -9  25   8   13.69    4.09
  25 -16   8   15.38    5.10
  19   6  -8    4.60    5.31
   6 -25  -8    4.65    5.28
 -25  19  -8   12.13    4.53
 -19  -6   8    2.99    5.05
  25 -19   8    0.38    4.83
   3 -25  -8   -2.27    5.52
 -25  22  -8   11.36    4.56
  22   3  -8    8.95    6.58
 -22  -3   8    2.24    5.55
  25 -22   8    3.22    5.37
   0 -25  -8    9.06    6.76
 -25   0   8   10.21    7.24
  25 -25   8   18.97    7.45
  23 -26  -8    1.10    6.58
   3  23  -8    4.22    5.12
 -26   3  -8    8.94    6.16
  26  -3   8   -8.56    6.36
   6  20  -8   46.96    6.33
  20 -26  -8   32.78    7.08
 -20  26   8   35.21    6.02
  26  -6   8   38.73    7.20
  17 -26  -8    3.34    4.84
   9  17  -8   -8.31    4.49
  26  -9   8    4.68    5.51
 -17  26   8    4.14    4.16
  14 -26  -8   35.75    6.39
  12  14  -8   39.37    5.94
  26 -12   8   49.65    6.97
 -14  26   8   55.80    6.33
  15  11  -8    0.69    4.66
  11 -26  -8    8.56    5.18
  26 -15   8   -2.28    5.30
 -11  26   8    4.30    4.18
  18   8  -8   34.89    6.16
 -26  18  -8   38.95    5.67
   8 -26  -8   32.68    6.45
  26 -18   8   35.72    7.40
   5 -26  -8    4.64    5.86
 -26  21  -8   -2.43    4.72
  21   5  -8   -5.29    6.34
 -21  -5   8   -6.35    5.79
  26 -21   8   -2.21    6.33
   2 -26  -8   24.71    7.64
  26 -24   8   25.10    7.82
   5  22  -8    2.35    6.91
  22 -27  -8    1.78    6.77
  27  -5   8  -10.12    6.48
   8  19  -8   -0.26    5.45
  19 -27  -8    7.66    5.65
 -19  27   8    9.34    5.14
  27  -8   8    3.16    6.31
  16 -27  -8   -7.58    5.68
  11  16  -8   17.44    5.41
  27 -11   8    2.22    5.29
 -16  27   8   -1.45    4.58
  14  13  -8    3.81    5.41
  13 -27  -8   -0.11    5.62
 -13  27   8    3.90    4.42
  27 -14   8    4.07    5.76
  17  10  -8    8.07    5.85
  10 -27  -8    1.63    5.85
  27 -17   8    8.99    5.42
   7 -27  -8    4.14    5.48
 -27  20  -8   13.82    5.27
  27 -20   8    8.94    6.93
 -20  -7   8    7.91    6.49
  18 -28  -8   41.55    7.88
  10  18  -8   32.00    6.68
 -18  28   8   43.68    6.52
  28 -10   8   20.79    7.38
  13  15  -8  -11.03    7.56
  15 -28  -8    0.32    6.08
 -15  28   8    2.86    4.85
  28 -13   8    0.29    5.65
  12 -28  -8   41.39    7.61
  28 -16   8   34.74    7.18
   9 -28  -8    2.02    6.86
  28 -19   8   -6.01    6.91
  14 -29  -8    8.80    8.32
   0   0  -9    0.12    0.51
   0   0  -9    1.32    0.51
   0   0  -9    0.10    1.00
   0   0   9    0.95    0.58
   0   0   9    0.97    0.95
  -1   2  -9   71.12    3.55
   2  -1  -9   69.05    3.28
  -1  -1  -9   69.55    2.14
   2  -1  -9   64.96    2.15
  -1  -1  -9   71.31    3.32
   2  -1  -9   67.31    2.52
  -1  -1  -9   68.25    2.55
  -1   2  -9   68.10    2.41
   1  -2   9   66.70    3.21
   1   1   9   75.75    3.18
   1   1   9   62.91    2.60
   1  -2   9   65.97    2.35
  -2   1   9   67.85    3.14
   1  -2  -9    2.80    0.69
   1  -2  -9    2.99    0.63
  -2   1  -9    1.24    1.06
   1  -2  -9    2.00    1.10
   1   1  -9    3.86    1.23
   1   1  -9    4.08    0.77
  -2   1  -9    1.36    0.51
  -1  -1   9    2.35    0.96
  -1  -1   9    2.72    0.48
  -1   2   9    2.40    1.02
   2  -1   9    1.17    0.94
   2  -1   9    2.43    0.75
   4  -2  -9    4.38    1.31
  -2   4  -9    3.29    0.74
  -2  -2  -9    4.38    0.96
   4  -2  -9    4.36    0.97
  -2  -2  -9    4.43    1.30
   4  -2  -9    4.90    0.71
  -2  -2  -9    5.05    0.56
   2   2   9    3.92    0.47
   2  -4   9    4.86    0.82
   2  -4   9    5.06    1.28
  -4   2   9    4.00    1.04
   2   2   9    5.38    1.01
   0   3  -9    1.74    0.65
   3  -3  -9    0.09    1.00
   3  -3  -9   -0.29    0.65
  -3   0  -9    0.89    0.37
  -3   0  -9    1.57    1.09
   0   3  -9   -0.02    1.28
   3  -3  -9    0.86    0.58
   3   0   9    0.10    0.78
  -3   3   9    1.07    0.84
   0  -3   9    0.10    0.46
   3   0   9    0.59    0.82
   0  -3   9   -2.07    0.95
   3   0  -9    9.01    1.07
   0  -3  -9   12.38    1.66
  -3   3  -9    9.92    1.66
  -3   3  -9    9.09    0.95
   3   0  -9    8.91    1.54
   3   0  -9    9.56    0.53
   0  -3  -9   10.72    0.93
   3  -3   9    9.11    1.16
  -3   0   9   12.15    1.49
   3  -3   9    9.56    1.52
   0   3   9   11.42    0.85
   0   3   9    9.64    1.36
  -3  -3  -9   39.80    2.31
  -3  -3  -9   41.42    2.56
  -3   6  -9   38.47    1.99
   6  -3  -9   42.60    1.82
   6  -3  -9   40.69    2.27
   3  -6   9   42.56    2.14
  -6   3   9   42.20    2.30
   3   3   9   41.74    2.53
   3   3   9   44.69    2.52
   3  -6   9   40.18    2.83
   5  -4  -9    2.65    0.95
   5  -4  -9    2.10    0.79
   5  -4  -9    2.16    1.24
  -4  -1  -9    3.26    1.29
  -1   5  -9    0.87    0.75
   4   1   9    1.88    0.99
  -5   4   9    0.95    0.76
   1  -5   9    0.94    0.64
   4   1   9    2.46    1.13
  -5   4   9    0.19    0.85
   1  -5   9    1.26    1.17
   2   2  -9   28.67    1.65
  -4   2  -9   28.35    1.28
   2   2  -9   25.93    2.35
  -4   2  -9   23.07    2.70
   2  -4  -9   31.34    2.43
   2  -4  -9   26.22    1.65
   2  -4  -9   27.35    1.62
  -2   4   9   28.18    1.52
   4  -2   9   28.88    1.87
  -2   4   9   28.77    2.12
  -2  -2   9   28.19    2.16
  -4   5  -9   22.01    1.44
  -1  -4  -9   20.93    1.64
   5  -1  -9   21.86    2.08
   5  -1  -9   19.45    1.58
  -5   1   9   19.78    1.73
   4  -5   9   22.87    2.21
   1   4   9   21.09    1.67
   8  -4  -9    2.36    0.91
  -4  -4  -9    2.47    1.27
  -4  -4  -9    1.82    0.96
  -4   8  -9    2.45    0.97
   8  -4  -9    1.40    1.05
   4   4   9    2.16    1.04
   4  -8   9    2.80    1.07
  -8   4   9    2.96    0.98
  -8   4   9    1.12    0.99
   4   4   9    3.55    1.16
   4  -8   9    2.22    1.48
   7  -5  -9    2.61    1.10
  -5  -2  -9    4.41    1.33
   7  -5  -9    2.58    1.03
  -2   7  -9    2.18    0.92
   2  -7   9    2.92    0.89
  -7   5   9    2.82    0.96
   5   2   9    3.47    1.15
   2  -7   9    3.40    1.36
  -7   5   9    2.99    1.09
   5   2   9    5.51    1.16
  -5   1  -9   26.32    2.21
   1   4  -9   23.68    1.70
  -5   1  -9   25.07    1.07
   4  -5  -9   22.99    2.41
   4  -5  -9   23.43    1.81
  -1  -4   9   25.51    1.11
  -1  -4   9   27.04    2.17
   5  -1   9   25.00    2.18
   5  -1   9   23.84    1.94
  -4   5   9   24.35    1.62
   1  -5  -9    6.99    1.11
   1  -5  -9    8.42    1.46
   4   1  -9    5.94    1.04
   4   1  -9    7.88    1.54
  -5   4  -9    7.59    0.92
  -1   5   9    7.88    0.81
  -4  -1   9    6.05    1.22
   5  -4   9   10.20    1.39
  -1   5   9    8.09    1.32
  -2  -5  -9    9.63    1.45
  -5   7  -9   11.74    1.39
   7  -2  -9   12.51    1.20
   7  -2  -9   12.90    1.53
  -2  -5  -9   10.91    1.61
   5  -7   9   12.49    1.58
   2   5   9   10.65    0.59
   5  -7   9   13.05    2.21
   2   5   9   10.77    1.48
  -7   2   9   13.73    1.53
   2   5   9   13.18    1.63
  10  -5  -9   20.90    1.92
  -5  -5  -9   20.56    2.14
  -5  10  -9   20.71    1.98
  -5  -5  -9   21.77    2.38
  10  -5  -9   19.98    2.37
 -10   5   9   21.92    1.98
   5 -10   9   20.11    2.10
   5   5   9   23.70    2.27
 -10   5   9   20.09    2.18
   5 -10   9   22.14    2.27
   5   5   9   21.58    2.51
   9  -6  -9    1.72    1.07
  -6  -3  -9   -0.06    1.32
   9  -6  -9   -0.30    1.11
  -3   9  -9    2.22    1.03
  -6  -3  -9    1.20    1.22
   3  -9   9    2.52    1.04
  -9   6   9    1.31    1.04
  -9   6   9    2.48    1.11
   6   3   9    0.39    1.36
   6   3   9    0.08    1.15
   6  -6  -9    1.16    0.91
  -6   0  -9    0.79    1.18
   6  -6  -9   -0.57    0.86
  -6   0  -9    0.60    0.32
   6  -6  -9    1.47    1.48
   0   6  -9    1.29    0.84
  -6   6   9    1.87    0.79
   0  -6   9    0.29    0.64
   0  -6   9    0.64    1.24
   6   0   9    1.92    1.12
   6   0   9    0.50    0.95
  -6   6   9    1.72    0.95
  -6   3  -9    2.03    0.60
   3  -6  -9    2.48    1.29
   3   3  -9    1.56    0.89
   3  -6  -9    1.48    0.80
  -3  -3   9    2.14    1.02
  -3   6   9    3.11    0.77
   6  -3   9    3.52    1.09
   6  -3   9    1.06    1.10
  -3   6   9    2.29    1.11
   6   0  -9    0.96    0.87
   0  -6  -9    0.78    0.97
  -6   6  -9    1.20    0.64
   0  -6  -9    0.78    1.25
   6   0  -9    0.65    0.43
  -6   0   9    1.40    0.91
   0   6   9    0.61    1.07
   6  -6   9    0.64    0.87
   6  -6   9    1.00    1.40
   0   6   9    1.37    0.51
  -6   9  -9    0.59    0.86
  -3  -6  -9    2.22    1.90
  -3  -6  -9    1.05    1.34
   9  -3  -9    3.35    1.24
   9  -3  -9    1.19    0.90
   3   6   9    1.38    1.17
   6  -9   9    0.23    0.97
   3   6   9    0.87    0.37
  -9   3   9    2.26    0.96
  -6  12  -9    0.06    1.09
  -6  -6  -9    1.66    1.61
  -6  -6  -9    4.26    1.68
  12  -6  -9    3.68    1.61
  12  -6  -9    1.83    1.37
   6 -12   9    0.06    1.74
   6   6   9    6.01    1.90
   6   6   9    2.11    1.53
 -12   6   9    3.64    1.54
 -12   6   9    2.08    1.19
  11  -7  -9   -0.19    1.27
  -7  -4  -9    2.15    1.37
  -7  -4  -9    4.95    1.59
  -4  11  -9    2.97    1.33
  11  -7  -9    4.18    1.31
 -11   7   9    2.31    1.25
   4 -11   9    2.94    1.26
   7   4   9    3.12    1.74
   7   4   9    3.13    1.38
 -11   7   9    1.11    1.19
   4 -11   9    1.71    1.63
  -1   8  -9   37.63    2.43
   8  -7  -9   37.21    2.35
  -7  -1  -9   39.15    2.76
   1  -8   9   41.76    3.32
   7   1   9   39.56    2.76
  -8   7   9   38.50    2.38
   7   1   9   38.06    2.61
   1  -8   9   38.81    2.09
  -8   7   9   34.68    2.34
  -7   2  -9    1.21    0.53
   5  -7  -9    1.11    0.95
   2   5  -9    2.31    0.87
   5  -7  -9    0.56    1.31
  -7   2  -9    0.57    1.22
  -2  -5   9    1.81    1.27
  -5   7   9    0.71    0.70
   7  -2   9    0.85    1.19
  -2  -5   9    0.99    0.54
  -5   7   9    4.72    1.16
   7  -2   9    1.65    1.01
   2  -7  -9   15.02    2.01
   5   2  -9   14.46    2.00
  -7   5  -9   14.16    1.23
   2  -7  -9   11.34    1.49
  -5  -2   9   14.55    1.72
   7  -5   9   14.02    2.10
   7  -5   9   14.05    1.77
  -2   7   9   12.12    1.66
  -2   7   9   12.50    1.18
  -7   8  -9   61.91    2.73
  -1  -7  -9   66.80    3.57
   8  -1  -9   63.11    2.35
   8  -1  -9   60.16    3.23
  -1  -7  -9   58.62    3.15
   7  -8   9   63.67    3.90
   7  -8   9   61.93    3.23
   1   7   9   66.54    3.32
   1   7   9   65.50    2.06
  -8   1   9   56.11    2.78
  -4  -7  -9    0.17    1.24
  -4  -7  -9    4.15    1.66
  11  -4  -9    1.48    1.58
  -7  11  -9    4.09    1.18
  11  -4  -9    1.87    1.21
   7 -11   9    2.52    1.81
   7 -11   9    3.04    1.31
 -11   4   9    0.99    1.54
   4   7   9    2.65    2.04
 -11   4   9    3.12    1.07
   4   7   9    1.79    0.58
  14  -7  -9   19.94    2.56
  -7  -7  -9   24.85    3.14
  -7  14  -9   23.14    2.35
  14  -7  -9   25.02    3.14
  -7  -7  -9   20.00    3.15
 -14   7   9   24.23    2.73
   7   7   9   18.91    3.24
   7 -14   9   21.27    2.65
  -8  -5  -9   -0.77    1.54
  -5  13  -9    1.03    1.19
  13  -8  -9    0.67    1.42
  -8  -5  -9    2.75    1.83
 -13   8   9    0.07    1.25
   8   5   9   -0.21    1.66
   5 -13   9    1.84    1.43
   5 -13   9    4.61    2.18
 -13   8   9    3.00    1.40
   8   5   9    4.75    1.60
  -8  -2  -9    4.89    1.56
  -2  10  -9    4.95    1.29
  10  -8  -9    6.11    1.39
 -10   8   9    4.78    1.41
 -10   8   9    4.99    1.30
   8   2   9    3.57    1.40
   2 -10   9    6.39    1.27
   2 -10   9    4.68    1.41
   8   2   9    4.28    1.50
  -8   1  -9    3.26    0.61
  -8   1  -9    4.08    1.43
   7  -8  -9    2.52    1.15
   1   7  -9    2.83    1.12
  -1  -7   9    2.26    1.34
   8  -1   9    2.26    1.16
  -1  -7   9    2.90    0.86
  -7   8   9    2.93    0.97
   8  -1   9    0.36    1.47
  -7   8   9    3.24    1.19
   4  -8  -9    1.99    1.44
  -8   4  -9   -0.09    0.62
   4   4  -9    0.29    0.81
   4  -8  -9   -0.17    0.88
  -4   8   9    0.18    0.75
   8  -4   9    0.94    1.42
  -4  -4   9    0.82    1.17
  -4   8   9   -0.81    1.03
   8  -4   9    1.17    1.06
  -4  -4   9    0.64    0.43
   7   1  -9   41.92    2.48
   1  -8  -9   36.88    2.58
  -8   7  -9   38.23    2.07
   1  -8  -9   33.76    2.74
  -7  -1   9   37.21    1.39
  -1   8   9   32.06    2.47
  -1   8   9   36.08    1.69
  -7  -1   9   32.71    2.21
   8  -7   9   33.55    2.43
  10  -2  -9    5.79    1.52
  -8  10  -9    6.69    1.43
  10  -2  -9    6.65    1.21
  -2  -8  -9    8.58    1.87
  -2  -8  -9    5.71    1.56
   8 -10   9    5.04    1.43
   2   8   9    7.40    0.86
 -10   2   9    7.19    1.26
   2   8   9    5.63    1.52
  13  -5  -9   10.33    2.23
  -5  -8  -9   11.53    2.35
  -8  13  -9    9.76    1.69
  13  -5  -9    6.09    1.62
  -5  -8  -9   12.03    2.31
 -13   5   9    9.06    1.51
 -13   5   9   10.70    2.01
   8 -13   9    9.51    2.05
  -8  -8  -9   -1.64    1.67
  -8  16  -9    3.41    1.60
  16  -8  -9    0.18    1.89
 -16   8   9   -0.86    1.94
 -16   8   9    1.34    1.42
   8 -16   9   -0.42    2.31
  -6  15  -9   28.40    2.73
  15  -9  -9   29.44    3.34
  -9  -6  -9   26.67    3.24
  -9  -6  -9   26.54    3.08
   6 -15   9   30.11    3.16
 -15   9   9   24.81    2.86
   9   6   9   25.77    3.31
 -15   9   9   33.40    2.96
  -9  -3  -9   29.45    2.92
 -12   9   9   23.35    2.51
   3 -12   9   29.79    3.09
   9   3   9   25.67    2.45
   3 -12   9   27.30    2.39
 -12   9   9   24.45    2.55
   9   3   9   21.87    2.79
  -9   0  -9    0.95    0.55
   9  -9  -9    1.88    1.27
  -9   0  -9   -0.26    1.44
   0   9  -9    0.52    1.16
  -9   9   9    1.44    1.36
   9   0   9   -1.14    1.33
   0  -9   9    1.02    1.52
   9   0   9    1.45    1.27
  -9   9   9   -2.39    1.08
   0  -9   9    1.32    1.03
   3   6  -9   10.96    1.59
   6  -9  -9   12.60    2.15
   6  -9  -9   11.95    1.67
  -9   3  -9   12.19    1.16
   9  -3   9   12.70    2.03
  -3  -6   9   14.35    2.00
  -6   9   9   12.19    1.76
  -6   9   9   13.30    1.58
  -3  -6   9   13.77    1.21
  -9   6  -9   -0.78    0.79
   3  -9  -9    0.34    1.77
   3  -9  -9   -0.11    0.98
   6   3  -9    0.05    0.92
  -6  -3   9    0.79    0.52
  -3   9   9    1.58    0.81
   9  -6   9    0.55    1.12
  -6  -3   9    0.57    1.02
  -3   9   9   -1.09    1.10
   9  -6   9    0.20    1.58
   9   0  -9   19.50    2.15
  -9   9  -9   17.62    1.70
   0  -9  -9   16.45    2.54
   9   0  -9   19.96    1.55
   0  -9  -9   20.08    2.18
   0   9   9   18.78    1.36
   9  -9   9   21.00    2.77
   9  -9   9   18.25    2.88
   0   9   9   18.01    2.17
  -9   0   9   17.73    1.74
  -3  -9  -9   30.85    3.23
  -9  12  -9   32.41    2.54
  12  -3  -9   33.64    2.43
  -3  -9  -9   40.95    3.13
   3   9   9   36.35    1.73
   9 -12   9   37.07    3.13
 -12   3   9   34.27    2.26
   3   9   9   36.27    3.13
  -9  15  -9    3.46    1.68
  15  -6  -9    4.33    2.13
  15  -6  -9    1.46    2.10
  -6  -9  -9    7.24    2.16
 -15   6   9    5.32    1.98
   9 -15   9    6.44    2.34
 -15   6   9    3.55    1.34
  18  -9  -9   36.58    4.01
  -9  -9  -9   46.52    4.16
  -9  18  -9   49.09    4.03
 -18   9   9   41.41    3.43
 -18   9   9   47.14    3.97
   9 -18   9   41.45    4.20
  -7  17  -9    1.39    1.84
 -10  -7  -9    1.12    2.23
  17 -10  -9    0.48    2.12
 -17  10   9    0.36    1.75
 -17  10   9    3.20    2.25
  10   7   9   -0.37    2.33
   7 -17   9    2.57    2.28
 -10  -4  -9   -1.76    1.48
  14 -10  -9    2.19    1.73
 -10  -4  -9    2.02    1.78
  -4  14  -9    0.64    1.28
 -14  10   9    0.23    1.44
   4 -14   9    1.99    1.59
  10   4   9    3.62    1.93
 -10  -1  -9    1.30    1.84
  -1  11  -9    2.07    1.39
 -10  -1  -9    1.16    0.66
  11 -10  -9    2.23    1.53
  10   1   9   -0.27    1.43
 -11  10   9    2.16    1.45
   1 -11   9   -0.58    1.49
 -11  10   9    3.01    1.63
   1 -11   9    2.52    1.26
  10   1   9    2.17    1.46
   2   8  -9    0.63    1.07
   8 -10  -9   -0.16    1.09
  -8  10   9   -1.30    1.24
  -2  -8   9   -0.68    1.39
  10  -2   9    0.05    1.48
  10  -2   9    0.31    1.31
  -2  -8   9   -0.69    0.84
  -8  10   9   -0.34    0.97
   5 -10  -9    2.90    1.84
   5   5  -9    2.01    1.10
 -10   5  -9    2.91    0.89
  10  -5   9    4.29    1.55
  10  -5   9    2.58    1.62
  -5  10   9    2.71    1.53
  -5  -5   9    0.90    1.17
  -5  -5   9    3.28    0.78
  -5  10   9    3.44    1.07
   8   2  -9    1.58    0.77
   2 -10  -9   -2.28    1.08
   8   2  -9    1.15    1.20
   2 -10  -9    1.71    1.71
  -2  10   9    3.52    1.55
  10  -8   9   -0.36    1.22
  -8  -2   9    0.21    0.67
  -8  -2   9    1.59    1.00
  10  -8   9   -0.87    1.84
  -2  10   9    0.42    0.86
  11  -1  -9   19.24    2.41
 -10  11  -9   20.55    2.03
  -1 -10  -9   20.36    2.41
  -1 -10  -9   20.73    2.84
   1  10   9   20.06    2.37
 -11   1   9   17.54    1.79
  10 -11   9   18.83    2.44
   1  10   9   21.43    1.58
  14  -4  -9   -1.28    1.75
  14  -4  -9   -1.59    1.59
  -4 -10  -9    0.41    1.58
 -14   4   9    1.47    1.69
  10 -14   9    3.02    3.00
 -14   4   9   -1.45    1.04
  -7 -10  -9   15.80    2.98
 -10  17  -9   17.93    2.82
  17  -7  -9   17.24    3.46
  17  -7  -9   17.31    2.71
 -17   7   9   26.18    3.35
  10 -17   9   17.47    2.83
 -17   7   9   21.31    2.52
 -10  20  -9    1.25    2.17
  20 -10  -9   -2.09    2.68
 -10 -10  -9    2.85    2.98
 -20  10   9    4.44    2.59
  10 -20   9   -0.57    2.81
 -20  10   9    1.27    1.92
  -8  19  -9    5.11    2.24
  19 -11  -9    6.73    2.92
 -11  -8  -9    6.43    2.58
 -19  11   9    6.06    2.18
   8 -19   9   -0.49    2.52
 -19  11   9    5.06    2.44
  -5  16  -9   60.34    3.84
 -11  -5  -9   63.10    4.34
  16 -11  -9   61.40    4.40
 -11  -5  -9   65.99    4.24
 -16  11   9   62.78    4.07
  11   5   9   64.68    4.59
 -16  11   9   61.89    3.88
   5 -16   9   70.56    7.18
 -11  -2  -9    0.79    1.77
  13 -11  -9    2.68    1.59
  -2  13  -9    2.66    1.40
 -13  11   9    1.57    1.44
  11   2   9    3.31    2.56
   2 -13   9    2.27    1.52
 -13  11   9    0.00    1.63
   1  10  -9   35.64    2.67
 -11   1  -9   35.40    2.52
  10 -11  -9   42.35    3.19
 -10  11   9   38.01    3.08
 -10  11   9   35.50    2.63
  -1 -10   9   38.42    2.40
  -1 -10   9   42.33    2.84
  11  -1   9   35.80    3.00
  11  -1   9   34.65    3.36
   7 -11  -9    1.24    1.25
   4   7  -9    1.13    1.22
 -11   4  -9    1.48    0.84
  11  -4   9    1.42    1.70
  11  -4   9    1.29    1.60
  -7  11   9    2.14    1.17
  -4  -7   9    0.83    1.46
  -7  11   9    2.15    1.56
  -4  -7   9    0.93    0.88
   4 -11  -9   27.23    2.53
 -11   7  -9   24.83    1.96
   4 -11  -9   28.56    3.17
   7   4  -9   25.40    2.28
  11  -7   9   26.32    2.59
  -4  11   9   27.08    1.97
  -7  -4   9   25.19    1.52
  -7  -4   9   23.51    2.23
  11  -7   9   27.85    3.21
  -4  11   9   26.65    2.55
  10   1  -9   17.97    1.69
  10   1  -9   19.51    2.39
   1 -11  -9   16.68    2.58
 -11  10  -9   18.60    1.88
   1 -11  -9   20.66    2.47
 -10  -1   9   19.50    1.60
  -1  11   9   21.47    1.68
 -10  -1   9   21.11    1.81
  11 -10   9   16.84    2.42
  11 -10   9   17.62    2.87
  -1  11   9   18.65    2.31
 -11  13  -9   -0.24    1.18
  -2 -11  -9    0.84    1.71
  13  -2  -9   -0.66    1.64
  13  -2  -9   -2.39    1.41
 -13   2   9    0.29    1.04
   2  11   9    0.46    1.02
  16  -5  -9   30.38    3.74
  -5 -11  -9   18.20    2.97
 -11  16  -9   25.36    2.76
  16  -5  -9   26.91    3.32
  11 -16   9   30.57    3.66
 -16   5   9   31.45    3.28
 -16   5   9   29.50    2.41
  19  -8  -9    5.11    2.73
 -11  19  -9   -1.73    2.01
  -8 -11  -9    0.90    2.85
  11 -19   9    6.52    2.93
 -19   8   9   -0.85    1.60
 -19   8   9    3.92    2.40
  22 -11  -9   56.07    6.34
 -11 -11  -9   61.76    6.19
  11 -22   9   57.53    6.02
  -9  21  -9    1.03    2.47
  21 -12  -9   -5.71    3.13
 -12  -9  -9    2.43    2.88
 -21  12   9    1.58    2.70
   9 -21   9   -1.48    2.89
  18 -12  -9   -0.71    2.40
  -6  18  -9    1.26    1.86
 -12  -6  -9    0.38    2.47
   6 -18   9    1.24    2.24
  12   6   9   -2.03    2.71
 -18  12   9   -0.75    2.03
 -18  12   9   -1.64    2.07
  15 -12  -9    5.97    2.36
 -12  -3  -9    7.32    2.11
  -3  15  -9    4.76    1.79
 -12  -3  -9   13.48    2.15
 -15  12   9    9.22    2.28
 -15  12   9    5.79    2.06
   3 -15   9    9.88    2.20
  12   3   9    9.21    2.37
  12 -12  -9    2.99    1.88
 -12   0  -9    2.64    0.95
   0  12  -9    3.83    1.47
   0 -12   9    5.30    1.53
 -12  12   9    0.74    1.81
 -12  12   9    2.85    1.55
 -12   3  -9   12.82    1.50
   9 -12  -9   13.30    2.09
  -9  12   9   13.07    1.79
  -3  -9   9   10.68    2.20
  12  -3   9   10.34    2.09
  -3  -9   9   13.44    1.99
  -9  12   9   11.94    1.98
  -3  -9   9   14.26    1.82
  12  -3   9   12.37    2.33
 -12   6  -9    2.63    0.96
   6   6  -9    2.17    1.24
   6 -12  -9   -0.01    1.30
   6 -12  -9    3.31    2.45
  12  -6   9    1.60    1.48
  12  -6   9    2.67    2.00
  -6  12   9    1.20    1.08
  -6  -6   9    1.17    0.92
  -6  12   9    1.93    1.66
  -6  -6   9    1.82    1.41
   3 -12  -9   15.55    2.84
 -12   9  -9   12.91    1.68
   9   3  -9    9.14    2.25
   3 -12  -9   14.71    2.33
  12  -9   9   11.52    2.72
  -3  12   9   11.10    2.01
  12  -9   9   10.51    2.06
  -9  -3   9   11.27    1.43
  -9  -3   9   12.39    1.62
  -3  12   9   12.56    1.60
  12   0  -9    0.84    1.48
 -12  12  -9   -1.34    1.30
  12   0  -9   -1.58    1.39
  12 -12   9    0.11    1.62
   0  12   9   -0.78    1.01
 -12   0   9    0.26    1.01
  15  -3  -9   12.26    2.12
  -3 -12  -9    9.80    2.59
 -12  15  -9    8.66    1.93
  15  -3  -9   12.30    2.52
 -15   3   9   12.13    1.48
 -15   3   9    9.48    2.46
  12 -15   9    8.28    2.28
  18  -6  -9    2.17    2.64
  -6 -12  -9    0.97    2.46
 -12  18  -9   -0.69    1.75
  18  -6  -9   -2.79    2.38
 -18   6   9    3.07    2.22
  12 -18   9    1.34    2.25
 -18   6   9    0.29    1.39
  21  -9  -9   17.84    3.83
  -9 -12  -9   23.13    4.38
 -12  21  -9   24.42    3.67
 -21   9   9   17.05    3.81
  12 -21   9   17.64    3.87
 -12 -12  -9   -7.35    3.21
 -12  24  -9   -1.73    3.15
 -24  12   9   -3.80    3.59
  12 -24   9   -3.88    4.09
  23 -13  -9   22.61    4.80
 -13 -10  -9   21.11    4.68
 -10  23  -9   19.30    3.80
  10 -23   9   14.74    4.09
 -23  13   9   17.87    3.88
 -13  -7  -9   46.56    4.75
  20 -13  -9   37.73    4.69
  -7  20  -9   51.32    4.40
 -20  13   9   40.01    4.30
  13   7   9   52.38    5.12
   7 -20   9   52.39    5.09
 -20  13   9   49.17    4.42
 -13  -4  -9    9.18    2.37
  17 -13  -9   10.71    2.90
  -4  17  -9    8.47    2.17
 -13  -4  -9   11.89    2.91
 -17  13   9    8.14    2.41
   4 -17   9    6.53    2.87
 -17  13   9   11.15    2.51
  13   4   9   14.02    3.16
  14 -13  -9   68.10    4.42
  -1  14  -9   65.65    3.89
  13   1   9   65.07    4.79
 -14  13   9   64.48    4.41
   1 -14   9   65.30    3.81
 -14  13   9   68.60    4.14
   2  11  -9    4.03    1.46
  11 -13  -9    2.54    1.91
 -13   2  -9    1.99    1.04
  -2 -11   9    2.08    2.19
 -11  13   9    3.13    1.43
  13  -2   9    2.95    1.95
 -11  13   9    3.60    1.98
  -2 -11   9    1.72    1.43
   8 -13  -9   18.41    2.71
   5   8  -9   19.23    2.19
 -13   5  -9   20.65    1.85
  -5  -8   9   20.13    1.88
  13  -5   9   22.12    3.02
  -5  -8   9   22.05    2.63
  -8  13   9   19.89    2.05
  -5  -8   9   20.69    2.22
  -8  13   9   16.58    2.60
   5 -13  -9    8.66    3.32
 -13   8  -9   12.91    1.64
   8   5  -9    9.86    1.83
   5 -13  -9   12.14    2.96
  -8  -5   9    9.72    1.71
  -5  13   9    7.12    1.89
  13  -8   9   10.09    4.30
  -8  -5   9   10.31    1.33
  13  -8   9    8.03    2.48
  -5  13   9    7.54    1.56
  11   2  -9   25.30    3.00
 -13  11  -9   26.64    2.35
  11   2  -9   28.63    2.32
   2 -13  -9   29.88    3.99
 -11  -2   9   27.08    2.04
  13 -11   9   26.75    3.20
  -2  13   9   23.54    3.46
 -11  -2   9   29.10    2.10
  14  -1  -9   21.52    2.99
 -13  14  -9   16.60    2.35
  -1 -13  -9   16.96    2.89
  14  -1  -9   21.98    2.68
   1  13   9   24.02    2.24
 -14   1   9   16.83    1.78
  13 -14   9   18.36    2.83
  17  -4  -9    6.28    2.39
  17  -4  -9    2.34    2.44
 -13  17  -9    0.37    2.07
  -4 -13  -9    4.78    2.29
 -17   4   9    7.33    2.42
 -17   4   9    3.56    1.24
  13 -17   9    4.42    2.34
 -13  20  -9   40.70    3.87
  20  -7  -9   30.18    5.49
  -7 -13  -9   31.12    4.08
  13 -20   9   36.44    4.57
 -20   7   9   27.78    3.85
 -20   7   9   32.22    2.83
 -13  23  -9    2.41    3.09
 -10 -13  -9    3.54    3.25
  13 -23   9   -2.51    3.18
 -23  10   9    1.77    3.39
 -13 -13  -9   23.63    5.78
 -13  26  -9   21.85    4.45
 -26  13   9   19.57    5.09
  13 -26   9   21.44    5.62
 -14 -11  -9    8.29    4.92
 -11  25  -9   -4.94    3.75
  11 -25   9    3.50    4.60
 -25  14   9    6.43    4.33
  -8  22  -9    1.51    2.87
  22 -14  -9    0.09    3.70
 -14  -8  -9    5.49    3.55
   8 -22   9    3.58    3.30
 -22  14   9    0.99    2.86
  19 -14  -9    4.41    3.12
  -5  19  -9    8.28    2.52
 -14  -5  -9   11.41    3.17
 -19  14   9    4.30    2.86
  14   5   9    5.96    2.96
 -19  14   9    5.48    2.60
   5 -19   9    6.65    2.79
  16 -14  -9    1.54    2.22
 -14  -2  -9    0.90    2.09
  -2  16  -9    0.93    1.79
  14   2   9    0.73    2.12
 -16  14   9   -2.84    1.97
   2 -16   9    4.69    2.47
 -16  14   9    2.12    2.14
  13 -14  -9   13.34    2.66
   1  13  -9   11.56    2.12
  14  -1   9   15.77    2.97
 -13  14   9   13.37    2.24
 -13  14   9   14.66    2.69
 -14   4  -9    1.99    1.17
   4  10  -9   -4.20    1.42
  10 -14  -9    0.21    1.90
 -10  14   9    1.61    1.63
 -10  14   9   -2.73    1.91
  -4 -10   9   -0.05    1.42
  -4 -10   9    1.19    1.40
  14  -4   9   -1.14    1.65
  -4 -10   9    1.35    1.99
   7 -14  -9   59.76    4.03
 -14   7  -9   61.68    3.09
   7   7  -9   59.42    3.78
  -7  14   9   66.50    3.39
  -7  14   9   58.49    4.32
  -7  -7   9   60.96    2.95
  -7  -7   9   59.51    2.85
  14  -7   9   56.25    4.94
 -14  10  -9   -1.71    1.47
  10   4  -9   -1.96    1.38
   4 -14  -9    2.17    1.66
  -4  14   9   -0.16    2.49
  -4  14   9   -0.41    1.21
  14 -10   9   -0.38    1.88
 -10  -4   9   -2.44    1.15
   1 -14  -9   27.17    3.48
 -14  13  -9   22.03    2.43
  13   1  -9   23.32    2.95
 -13  -1   9   19.00    2.34
 -13  -1   9   22.42    1.77
  -1  14   9   20.69    2.30
  14 -13   9   25.38    3.57
  16  -2  -9    1.76    2.20
  -2 -14  -9   -1.59    2.01
 -14  16  -9    2.75    1.75
 -16   2   9   -0.21    0.92
  14 -16   9   -1.71    2.10
 -16   2   9    4.87    2.14
  19  -5  -9   29.11    4.50
  -5 -14  -9   24.00    3.80
 -14  19  -9   20.98    3.12
 -19   5   9   25.21    3.71
  14 -19   9   26.13    4.10
 -19   5   9   21.50    2.16
  -8 -14  -9    4.83    3.76
 -14  22  -9   -4.75    2.71
  14 -22   9    4.57    3.65
 -14  25  -9   10.78    3.82
 -11 -14  -9    8.11    4.75
  14 -25   9   11.62    4.85
 -25  11   9    7.75    3.96
 -14 -14  -9    1.40    5.90
 -28  14   9    5.47    5.57
  14 -28   9   -5.37    6.23
 -12  27  -9    6.73    4.50
 -15 -12  -9   11.96    5.59
 -27  15   9    7.09    4.64
  12 -27   9   13.51    5.84
  24 -15  -9   58.20    7.09
  -9  24  -9   42.11    5.29
 -15  -9  -9   38.68    5.74
 -24  15   9   37.69    5.05
   9 -24   9   41.72    5.80
  -6  21  -9    5.73    2.71
 -15  -6  -9    3.86    3.31
  21 -15  -9    1.00    3.41
  15   6   9    6.18    3.45
 -21  15   9    4.73    3.00
   6 -21   9   13.25    3.49
  18 -15  -9   37.12    4.56
 -15  -3  -9   34.28    4.40
  -3  18  -9   37.36    3.71
  15   3   9   36.02    4.53
 -18  15   9   37.21    4.57
 -18  15   9   36.99    4.54
   3 -18   9   42.22    4.26
   0  15  -9    6.15    2.16
  15 -15  -9    1.71    2.40
 -15  15   9    1.47    2.35
   0 -15   9   -0.55    1.96
  15   0   9    3.95    2.56
 -15  15   9    3.45    2.17
  12 -15  -9   30.40    3.87
 -15   3  -9   34.71    2.45
   3  12  -9   37.22    3.41
 -12  15   9   35.47    3.53
 -12  15   9   31.96    3.36
  -3 -12   9   31.64    3.75
  -3 -12   9   33.68    3.08
  15  -3   9   28.04    3.51
 -15   6  -9    0.28    1.27
   9 -15  -9   -0.27    1.63
   6   9  -9   -0.14    1.53
  -9  15   9   -2.96    2.09
  -6  -9   9   -0.22    1.44
  -9  15   9    4.22    1.66
  15  -6   9    4.21    2.02
  -6  -9   9    1.18    1.90
 -15   9  -9   41.62    2.78
   9   6  -9   36.39    3.30
   6 -15  -9   34.74    3.35
  15  -9   9   30.84    3.88
  -9  -6   9   39.85    3.42
  -9  -6   9   37.68    2.31
  -9  -6   9   35.34    2.90
  -6  15   9   31.63    3.96
 -15  12  -9   12.17    1.96
   3 -15  -9    9.89    2.63
  12   3  -9    9.36    2.47
  15 -12   9   10.02    2.72
 -12  -3   9   12.07    1.36
  -3  15   9   12.53    1.89
  15   0  -9    2.19    2.06
   0 -15  -9    1.86    2.03
 -15  15  -9    0.67    1.89
 -15   0   9    2.56    0.79
  15 -15   9    5.53    2.67
   0  15   9    1.83    1.60
  18  -3  -9   26.77    4.23
  -3 -15  -9   27.97    3.87
 -15  18  -9   27.01    3.47
 -18   3   9   27.16    3.91
  15 -18   9   26.77    4.15
 -15  21  -9    0.83    2.94
  21  -6  -9   -0.47    3.63
  -6 -15  -9    6.18    3.51
 -21   6   9   -0.90    2.87
  15 -21   9    2.84    3.37
  -9 -15  -9   23.30    5.05
 -15  24  -9   21.94    4.45
  15 -24   9   20.84    5.27
 -24   9   9   26.80    5.09
 -15  27  -9    0.26    4.59
 -12 -15  -9   -0.35    4.89
  15 -27   9   -4.76    5.45
 -27  12   9    8.22    5.03
 -16 -10  -9    5.66    5.10
 -10  26  -9   -5.02    4.34
 -26  16   9    8.92    4.31
  10 -26   9    5.51    5.10
  23 -16  -9   -3.93    4.33
  -7  23  -9   -0.97    3.56
   7 -23   9    1.25    3.83
 -23  16   9   -5.30    3.56
  20 -16  -9    1.66    3.41
 -16  -4  -9    3.20    3.11
  -4  20  -9    3.72    2.54
   4 -20   9   -0.73    3.06
 -20  16   9   -2.62    3.16
 -20  16   9    3.11    2.97
  16   4   9    5.45    3.51
  17 -16  -9   13.47    3.11
  -1  17  -9    7.66    2.45
   1 -17   9   12.70    2.86
  16   1   9    9.00    3.12
 -17  16   9   11.06    2.73
 -17  16   9   13.25    3.05
   2  14  -9    0.21    1.99
  14 -16  -9    3.74    2.33
 -14  16   9    1.04    1.83
  -2 -14   9   -1.43    1.96
 -14  16   9    2.97    2.27
  16  -2   9   -0.89    2.50
   5  11  -9   12.96    2.36
  11 -16  -9   10.26    2.78
 -16   5  -9   15.44    1.95
  16  -5   9    7.65    2.41
 -11  16   9   15.73    2.73
  -5 -11   9   13.48    2.20
  -5 -11   9   13.43    2.81
 -11  16   9   12.91    2.22
   8   8  -9    2.78    1.69
   8 -16  -9   -0.27    2.12
 -16   8  -9    0.16    1.48
  -8  16   9   -1.52    2.45
  16  -8   9   -0.91    2.01
  -8  -8   9    0.56    1.30
  -8  16   9   -1.29    1.31
  -8  -8   9   -0.07    1.78
 -16  11  -9   23.19    2.70
  11   5  -9   22.60    3.14
   5 -16  -9   26.93    3.56
 -11  -5   9   21.59    1.86
  16 -11   9   26.96    3.61
 -11  -5   9   23.22    2.30
  -5  16   9   28.48    2.75
 -16  14  -9    2.25    1.68
   2 -16  -9   -2.04    2.28
  14   2  -9    2.98    2.44
  16 -14   9   -2.28    2.51
  -2  16   9    1.96    1.68
 -16  17  -9   28.50    3.24
  -1 -16  -9   34.74    4.33
  17  -1  -9   27.85    4.15
 -17   1   9   31.85    4.12
  16 -17   9   25.82    3.86
 -16  20  -9    5.58    2.56
  -4 -16  -9    1.96    3.43
  20  -4  -9   -0.05    3.89
 -20   4   9    7.20    3.38
  16 -20   9   -3.90    2.88
 -16  23  -9    8.92    3.43
  -7 -16  -9    9.68    4.61
 -23   7   9   19.08    4.28
  16 -23   9   14.52    7.25
 -10 -16  -9   -2.17    4.97
 -16  26  -9    3.53    4.05
  16 -26   9    5.96    5.50
 -26  10   9    3.15    4.62
 -17 -11  -9   44.28    7.38
  11 -28   9   32.12    7.38
  25 -17  -9   10.22    5.62
 -17  -8  -9    3.32    4.82
  -8  25  -9    9.30    3.81
   8 -25   9    1.04    4.70
 -25  17   9   12.64    4.55
 -17  -5  -9   36.23    5.12
  -5  22  -9   38.39    4.63
  22 -17  -9   32.50    5.20
 -22  17   9   29.56    4.88
   5 -22   9   37.56    4.73
  17   5   9   29.77    5.00
 -17  -2  -9    0.04    2.54
  19 -17  -9   -7.67    3.10
  -2  19  -9   -1.65    2.58
   2 -19   9    1.17    2.83
 -19  17   9    4.21    3.13
  17   2   9    0.37    3.00
 -19  17   9   -3.63    2.83
   1  16  -9   54.69    4.14
  16 -17  -9   46.70    5.09
  17  -1   9   40.60    5.14
 -16  17   9   49.40    5.03
 -16  17   9   45.55    4.11
  -1 -16   9   55.39    4.23
  13 -17  -9    1.73    2.65
   4  13  -9    1.20    1.92
  -4 -13   9    0.05    1.99
 -13  17   9   -2.34    1.77
  -4 -13   9    0.31    2.67
  17  -4   9    2.77    2.58
 -17   7  -9   37.46    3.06
   7  10  -9   37.31    3.38
  10 -17  -9   37.97    3.82
 -10  17   9   39.44    4.29
  -7 -10   9   33.41    4.03
  17  -7   9   42.47    4.15
 -10  17   9   35.17    3.01
  10   7  -9    9.98    2.30
   7 -17  -9    3.97    2.54
 -17  10  -9    5.34    1.96
  -7  17   9   10.90    2.21
 -10  -7   9    7.47    1.89
 -10  -7   9   10.85    1.51
  17 -10   9   11.90    2.92
   4 -17  -9   15.80    3.35
  13   4  -9   17.48    3.02
 -17  13  -9    8.23    2.11
  -4  17   9   12.77    2.27
  17 -13   9    9.02    3.07
 -17  16  -9   15.02    2.55
   1 -17  -9   18.59    3.49
  16   1  -9   22.68    3.79
  17 -16   9   17.85    3.52
  -2 -17  -9   -0.57    2.70
  19  -2  -9    4.74    3.17
 -17  19  -9    1.88    2.33
  17 -19   9    0.19    3.30
 -19   2   9   -2.27    2.83
 -17  22  -9   29.09    4.02
  -5 -17  -9   31.85    5.25
  22  -5  -9   18.16    4.57
 -22   5   9   25.72    4.38
  17 -22   9   20.86    4.97
 -17  25  -9   -4.59    3.51
  -8 -17  -9   -6.31    4.21
  17 -25   9  -10.39    4.20
 -25   8   9   -8.86    4.44
 -11 -17  -9   27.90    7.16
  17 -28   9   19.00    6.75
  -9  27  -9    3.38    4.89
 -18  -9  -9   -1.29    5.74
 -27  18   9   -1.11    5.04
   9 -27   9  -12.01    8.60
  24 -18  -9   -4.98    4.78
 -18  -6  -9   11.29    4.70
  -6  24  -9    9.89    4.20
 -24  18   9    3.01    4.13
   6 -24   9    1.36    4.47
  18   6   9    5.86    5.02
  21 -18  -9   14.64    4.39
 -18  -3  -9   17.16    3.93
  -3  21  -9   17.49    3.73
  18   3   9   13.05    4.18
   3 -21   9   18.69    3.84
 -21  18   9   14.62    3.62
   0  18  -9   -0.28    2.45
  18 -18  -9    0.14    3.32
 -18  18   9    0.97    2.86
   0 -18   9   -0.02    2.84
  18   0   9   -1.93    3.20
 -18  18   9   -2.66    3.23
   3  15  -9   12.69    3.00
  15 -18  -9    7.92    3.29
 -15  18   9    8.57    2.55
 -15  18   9    7.78    3.12
  18  -3   9    6.85    2.87
  -3 -15   9    8.56    3.59
 -18   6  -9   -1.74    3.28
   6  12  -9    6.63    2.38
  12 -18  -9   -0.15    2.38
  -6 -12   9    0.45    2.63
 -12  18   9    4.50    2.23
 -12  18   9    5.55    3.09
  18  -6   9   -0.94    2.35
   9   9  -9   16.59    3.09
 -18   9  -9   21.71    2.51
   9 -18  -9   18.18    3.35
  18  -9   9   19.90    3.78
  -9  -9   9   13.93    2.53
  -9  18   9   20.24    2.55
   6 -18  -9    3.16    2.71
 -18  12  -9   -0.89    1.82
  12   6  -9    0.20    2.11
 -12  -6   9    1.09    1.27
  -6  18   9    2.77    1.94
  18 -12   9    0.71    2.49
 -12  -6   9   -0.35    1.22
   3 -18  -9   35.77    4.61
 -18  15  -9   29.71    3.49
  15   3  -9   26.96    3.65
  -3  18   9   27.41    2.98
  18 -15   9   32.79    4.30
 -18  18  -9    0.75    2.53
   0 -18  -9   -0.83    3.05
  18   0  -9    4.14    3.02
 -18   0   9    2.77    2.97
  18 -18   9    0.92    3.46
  21  -3  -9   15.30    6.34
 -18  21  -9   15.31    3.42
  -3 -18  -9   13.44    4.13
  18 -21   9    9.23    4.36
 -18  24  -9    3.58    3.29
  -6 -18  -9    6.53    4.52
  18 -24   9    1.42    4.77
 -24   6   9   -7.03    3.99
  -9 -18  -9    4.46    5.84
 -18  27  -9   20.63    5.12
  18 -27   9   12.65    6.34
 -27   9   9   11.98    4.94
  26 -19  -9   23.08    6.51
  -7  26  -9   35.66    5.28
 -19  -7  -9   36.94    6.50
 -26  19   9   27.24    5.76
 -19  -4  -9    0.36    3.76
  23 -19  -9    4.65    5.05
  -4  23  -9    5.73    3.67
  19   4   9    0.11    4.32
 -23  19   9    7.23    3.66
  20 -19  -9   34.14    5.48
  -1  20  -9   30.80    4.30
 -19  -1  -9   27.77    4.73
 -20  19   9   24.15    4.08
  19   1   9   33.64    5.42
   2  17  -9   -2.24    2.89
  17 -19  -9   -1.18    3.31
 -17  19   9    1.12    2.89
 -17  19   9    2.73    3.46
  19  -2   9    1.59    3.00
  14 -19  -9   25.20    4.32
   5  14  -9   31.04    3.97
  -5 -14   9   23.03    3.98
  19  -5   9   22.55    4.34
 -14  19   9   29.43    4.36
 -14  19   9   28.11    3.49
  11 -19  -9    5.77    2.76
   8  11  -9   -0.53    2.14
 -19   8  -9    1.49    1.87
 -11  19   9    2.56    2.16
  19  -8   9    1.97    2.58
  -8 -11   9   -0.95    2.47
  11   8  -9   14.56    2.95
   8 -19  -9   19.86    3.79
 -19  11  -9   14.95    2.59
  -8  19   9   14.59    2.53
  19 -11   9   19.18    3.96
 -11  -8   9   15.65    2.05
   5 -19  -9    5.99    2.82
 -19  14  -9    4.10    2.45
  14   5  -9    5.02    2.84
  19 -14   9    8.40    3.17
  -5  19   9    8.95    2.34
 -19  17  -9   12.59    2.73
   2 -19  -9    7.25    3.18
  17   2  -9    9.18    3.21
  19 -17   9   12.08    3.48
  -1 -19  -9   36.14    5.53
  20  -1  -9   33.38    6.15
  19 -20   9   32.41    5.43
 -20   1   9   25.05    5.27
 -19  23  -9    8.33    3.66
  23  -4  -9   12.40    5.39
  -4 -19  -9    2.40    4.05
 -23   4   9    4.18    4.07
  19 -23   9   -7.65    3.97
  -7 -19  -9   13.20    5.85
 -19  26  -9   16.58    5.24
 -26   7   9   15.12    5.59
  19 -26   9   12.33    6.23
 -20  -5  -9    2.34    5.03
  -5  25  -9   -0.20    4.69
  25 -20  -9    6.45    5.82
 -25  20   9    1.51    4.12
  20   5   9    1.70    5.29
 -20  -2  -9    0.00    3.82
  22 -20  -9    3.87    4.87
  -2  22  -9    1.54    3.50
 -22  20   9   -1.35    3.42
  20   2   9    1.07    4.02
  19 -20  -9   11.24    4.46
   1  19  -9    3.64    5.82
 -19  20   9    3.32    3.00
  20  -1   9    3.91    3.54
  16 -20  -9    6.25    3.59
   4  16  -9    2.61    2.95
  20  -4   9    1.00    3.57
 -16  20   9    5.16    2.88
 -16  20   9    6.94    3.98
  13 -20  -9   18.69    3.67
   7  13  -9   17.01    3.04
  20  -7   9   23.02    4.42
 -13  20   9   19.22    2.97
  -7 -13   9   18.92    3.60
  10 -20  -9    3.06    2.93
  10  10  -9   -0.21    2.41
 -20  10  -9    1.03    2.10
  20 -10   9   -1.39    3.14
 -10 -10   9    2.87    2.23
 -10  20   9    4.65    2.46
  13   7  -9   21.59    3.85
   7 -20  -9   20.34    3.82
 -20  13  -9   22.35    3.16
  -7  20   9   19.44    3.01
  20 -13   9   15.06    4.23
  16   4  -9   -1.90    2.77
   4 -20  -9    4.00    2.96
 -20  16  -9    1.78    2.83
  20 -16   9   -1.73    3.11
  19   1  -9   26.53    5.17
   1 -20  -9   25.31    4.75
 -20  19  -9   29.19    4.13
 -19  -1   9   27.84    4.84
  20 -19   9   25.82    5.27
 -20  22  -9   -1.07    3.07
  22  -2  -9   -6.40    4.65
  -2 -20  -9   -5.45    4.41
  20 -22   9   -0.25    4.75
 -22   2   9    3.94    3.82
  -5 -20  -9   13.62    6.02
 -20  25  -9   19.55    5.01
 -25   5   9   11.08    5.08
  20 -25   9    8.70    6.03
 -21  -6  -9    0.40    6.37
  27 -21  -9    6.03    7.01
 -21  -3  -9   34.15    5.86
  24 -21  -9   52.22    7.19
  -3  24  -9   57.29    6.89
 -24  21   9   44.42    6.20
  21   3   9   58.83    7.21
   0  21  -9    3.70    3.80
  21 -21  -9   10.99    5.15
 -21   0  -9   11.50    4.41
  21   0   9    8.35    4.93
 -21  21   9    2.46    3.63
   3  18  -9   54.39    6.77
  18 -21  -9   52.11    6.55
 -18  21   9   63.17    7.49
 -18  21   9   65.49    5.87
  21  -3   9   56.11    6.54
  15 -21  -9   -5.13    3.35
   6  15  -9    2.95    2.97
 -15  21   9   -0.22    2.53
  21  -6   9    2.71    3.34
   9  12  -9   25.62    3.99
  12 -21  -9   19.97    3.95
 -12  21   9   21.60    3.37
  21  -9   9   22.59    4.06
 -21  12  -9    6.94    2.64
  12   9  -9    8.52    3.06
   9 -21  -9   13.68    3.47
 -12  -9   9   12.44    1.91
  21 -12   9   13.52    4.08
  -9  21   9   12.43    2.90
  15   6  -9   12.08    3.58
   6 -21  -9   13.42    4.10
 -21  15  -9   12.61    3.20
  -6  21   9   11.63    3.01
  21 -15   9   13.16    3.91
   3 -21  -9   -2.51    3.80
 -21  18  -9    6.26    2.97
  18   3  -9    4.14    4.58
  21 -18   9   13.73    4.55
 -18  -3   9    7.44    4.27
 -21  21  -9    7.70    3.88
  21   0  -9    5.03    5.08
   0 -21  -9    6.31    4.50
 -21   0   9    7.56    4.39
  21 -21   9   10.49    5.07
  -3 -21  -9   10.55    5.44
 -21  24  -9   10.95    4.33
 -24   3   9   12.21    5.14
  21 -24   9   19.51    6.01
  -6 -21  -9   -1.68    6.20
 -27   6   9   13.63    8.07
  21 -27   9    4.40    6.56
  -4  26  -9    4.08    5.32
 -22  -4  -9   -0.94    5.58
  26 -22  -9   -2.72    6.78
  22   4   9   -6.19    6.10
  -1  23  -9   15.08    4.33
 -22  -1  -9   10.47    5.28
  23 -22  -9   17.66    5.53
 -23  22   9    6.10    4.40
  22   1   9    7.61    5.57
  20 -22  -9    0.38    4.72
   2  20  -9   -3.70    3.85
  22  -2   9    0.10    4.65
 -20  22   9    1.22    3.72
   5  17  -9   15.46    3.79
  17 -22  -9   17.32    4.42
  22  -5   9   22.18    5.35
 -17  22   9   19.92    3.66
  14 -22  -9   -0.49    3.86
   8  14  -9    0.48    3.25
  22  -8   9   -0.35    3.37
 -14  22   9   -1.31    2.55
 -22  11  -9   12.18    3.02
  11  11  -9   19.27    3.64
  11 -22  -9   19.20    4.16
  22 -11   9   20.13    4.56
 -11  22   9   20.14    3.37
   8 -22  -9    0.37    3.47
 -22  14  -9   -1.16    2.70
  14   8  -9   -0.57    3.31
  22 -14   9    8.73    4.19
  -8  22   9   -2.45    2.69
 -22  17  -9   19.06    4.00
   2 -22  -9    1.03    3.92
 -22  20  -9    2.68    3.09
  20   2  -9    1.05    4.21
 -20  -2   9   -5.28    4.20
  22 -20   9   -6.43    3.86
 -22  23  -9   21.13    4.46
  -1 -22  -9   26.08    6.04
  23  -1  -9   24.26    6.10
  22 -23   9   37.57    6.71
 -23   1   9   39.83    5.92
  -4 -22  -9    0.71    5.93
 -22  26  -9    3.94    6.57
 -26   4   9    4.92    5.62
  22 -26   9   -5.96    6.70
  -2  25  -9   -2.05    4.63
 -23  -2  -9    0.25    4.76
  25 -23  -9    1.19    6.01
  23   2   9   -1.38    5.97
 -25  23   9    5.28    4.85
 -23   1  -9   27.63    5.51
  22 -23  -9   27.88    6.34
   1  22  -9   25.25    5.65
  23  -1   9   28.27    5.69
 -22  23   9   29.54    5.33
   4  19  -9   -2.25    3.77
  19 -23  -9   -3.12    4.03
  23  -4   9    7.60    5.18
 -19  23   9    3.45    3.49
   7  16  -9   43.51    5.16
  16 -23  -9   38.82    5.90
  23  -7   9   40.88    5.57
 -16  23   9   25.03    4.05
  13 -23  -9    7.00    6.33
 -13  23   9    7.17    3.61
 -23  13  -9   24.62    3.69
 -10  23   9   24.13    3.96
 -23  16  -9    2.24    2.97
  16   7  -9    3.39    4.06
   7 -23  -9    5.15    3.92
  23 -16   9    9.40    4.77
 -23  19  -9   13.88    4.12
   4 -23  -9   14.30    4.43
  19   4  -9   18.04    5.36
 -19  -4   9    8.98    4.72
  23 -19   9    5.89    5.18
   1 -23  -9   23.36    5.67
  22   1  -9   15.94    6.26
 -23  22  -9   18.31    4.23
  23 -22   9   17.84    6.03
 -22  -1   9   21.83    5.69
 -23  25  -9   -5.43    4.21
  -2 -23  -9    7.60    6.37
 -25   2   9    4.60    5.81
  23 -25   9    9.10    6.63
  24 -24  -9    0.87    6.32
   0  24  -9   10.13    5.10
 -24   0  -9   -8.80    5.76
 -24  24   9   -2.09    4.60
  24   0   9    1.88    6.22
   3  21  -9    5.33    4.53
  21 -24  -9   -6.02    5.32
 -21  24   9    6.05    4.47
  24  -3   9   14.81    5.79
  18 -24  -9    5.20    4.50
   6  18  -9    2.53    3.67
 -18  24   9    6.85    4.13
  24  -6   9    6.13    4.43
   9  15  -9   23.22    4.91
  15 -24  -9   21.88    5.31
  24  -9   9   26.91    5.31
 -15  24   9   21.87    4.32
  12  12  -9    1.92    4.04
  12 -24  -9   -1.28    4.21
  24 -12   9    4.40    4.75
 -12  24   9    3.60    3.06
  15   9  -9   19.53    5.00
   9 -24  -9   24.95    5.40
  -9  24   9   21.18    5.34
  24 -15   9   25.31    5.87
   6 -24  -9   -2.88    4.15
  18   6  -9    1.45    4.72
 -24  18  -9   -1.45    3.63
  24 -18   9   -0.13    4.43
 -24  21  -9   33.09    4.96
   3 -24  -9   33.92    6.39
  21   3  -9   22.86    6.24
 -21  -3   9   21.89    5.37
  24 -21   9   21.69    6.31
 -24  24  -9    5.18    4.42
   0 -24  -9   -0.06    5.88
  24   0  -9   -6.84    6.60
  24 -24   9   -2.86    6.53
 -24   0   9   -6.92    5.51
  23 -25  -9   -0.81    6.43
   2  23  -9    8.30    5.34
 -25   2  -9    1.66    5.38
  25  -2   9   -0.38    5.99
 -23  25   9    0.36    4.39
  20 -25  -9   20.74    6.52
   5  20  -9   21.95    5.01
 -20  25   9   21.45    5.13
  25  -5   9   36.03    6.76
   8  17  -9   -0.70    4.17
  17 -25  -9   -7.87    4.38
 -17  25   9   -1.14    3.51
  25  -8   9  -10.84    4.33
  14 -25  -9   19.54    4.92
  11  14  -9    8.99    4.51
 -14  25   9    6.71    3.72
  25 -11   9   17.88    5.32
  14  11  -9   -5.11    4.27
  11 -25  -9    7.01    5.11
  25 -14   9    5.97    4.72
 -11  25   9   -0.68    3.83
 -25  17  -9   16.21    4.47
   8 -25  -9   25.01    5.27
  17   8  -9   17.34    5.06
  25 -17   9    6.53    5.53
   5 -25  -9    0.79    5.59
  20   5  -9    9.10    5.88
 -25  20  -9    6.71    4.54
  25 -20   9    7.12    5.33
 -20  -5   9    3.82    5.65
   2 -25  -9   20.93    6.47
  23   2  -9   -3.78    6.89
 -25  23  -9   -4.45    4.90
  25 -23   9    9.81    6.56
 -23  -2   9    4.44    5.54
   4  22  -9   17.46    5.68
  22 -26  -9   12.50    6.82
  26  -4   9    1.04    6.41
 -22  26   9   11.43    6.20
   7  19  -9   25.23    5.51
  19 -26  -9   12.60    6.06
 -19  26   9    8.50    5.00
  26  -7   9   11.15    6.20
  10  16  -9   -8.32    4.55
  16 -26  -9   -1.75    5.30
  26 -10   9   14.68    6.11
 -16  26   9    6.84    4.26
  13  13  -9   15.91    5.26
  13 -26  -9   24.87    6.17
  26 -13   9   27.24    6.07
 -13  26   9   29.31    4.76
  16  10  -9   -1.73    5.20
  10 -26  -9    7.51    5.82
  26 -16   9    4.27    5.52
 -26  19  -9   35.50    5.56
   7 -26  -9   15.11    5.93
  19   7  -9   30.30    6.27
 -19  -7   9   28.36    6.14
  26 -19   9   31.60    6.35
   4 -26  -9    2.59    6.36
  22   4  -9   -1.30    7.23
 -26  22  -9   -4.63    5.08
 -22  -4   9   -0.50    5.96
  26 -22   9   -2.64    6.42
   6  21  -9    3.04    5.74
  21 -27  -9   -5.60    6.46
  27  -6   9   12.22    7.09
   9  18  -9   35.39    6.07
  18 -27  -9   19.13    6.62
  27  -9   9   19.74    6.98
 -18  27   9   27.25    5.74
  12  15  -9  -12.06    5.10
  15 -27  -9    1.32    5.61
 -15  27   9    1.77    4.45
  27 -12   9   -2.45    5.97
  12 -27  -9   22.20    6.74
  15  12  -9   27.72    6.04
  27 -15   9   29.06    6.25
   9 -27  -9    6.66    5.63
  18   9  -9   -5.02    5.74
  27 -18   9   -0.80    6.37
 -27  21  -9    2.71    4.95
   6 -27  -9    3.46    6.24
  21   6  -9    8.48    7.53
 -21  -6   9   16.59    6.80
  27 -21   9    5.02    7.10
  17 -28  -9   14.42    6.40
  11  17  -9    4.07    6.13
 -17  28   9   14.51    5.68
  28 -11   9   21.39    6.34
  14 -28  -9   -6.70    6.19
  14  14  -9    3.07    6.13
 -14  28   9   10.41    5.28
  28 -14   9    8.24    6.51
  11 -28  -9   20.41    6.41
  17  11  -9   21.84    7.43
  28 -17   9   27.58    6.64
  -1   0 -10    6.28    0.79
  -1   0 -10    6.99    0.91
   1  -1 -10    7.77    1.63
   1  -1 -10    8.01    0.91
   1  -1 -10    6.56    0.88
   0   1 -10    4.73    1.45
  -1   0 -10    7.04    1.62
   0   1 -10    6.35    0.90
   1   0  10    7.38    1.48
   0  -1  10    7.41    0.95
   1   0  10    6.56    0.99
  -1   1  10    4.01    1.48
  -1   3 -10    1.41    0.63
   3  -2 -10    0.70    1.33
   3  -2 -10    2.67    0.65
   3  -2 -10    1.88    0.80
  -2  -1 -10    1.76    1.38
  -2  -1 -10    2.39    0.72
  -2  -1 -10    2.01    0.50
  -1   3 -10    4.46    1.46
  -3   2  10    2.33    1.09
   2   1  10    1.79    1.04
   1  -3  10    2.82    1.27
   2   1  10    3.36    1.02
   1  -3  10    2.74    0.69
  -2   2 -10  641.52   17.33
   0  -2 -10  652.55   16.15
   0  -2 -10  662.80   15.74
   0  -2 -10  692.17   17.25
   2   0 -10  642.00   16.19
  -2   2 -10  649.25   15.87
   2   0 -10  664.90   17.19
   2  -2  10  664.11   17.26
   0   2  10  655.75   16.25
  -2   0  10  599.23   16.84
   0   2  10  679.73   17.09
   2  -2  10  660.53   16.16
   5  -3 -10    0.66    0.67
   5  -3 -10    0.64    1.24
  -3  -2 -10    2.44    0.89
  -2   5 -10    1.48    0.72
  -3  -2 -10    3.89    1.30
   5  -3 -10    2.85    0.92
   3   2  10    0.82    1.16
   2  -5  10    0.54    1.18
   3   2  10    1.82    0.92
   2  -5  10    2.34    0.79
  -5   3  10    1.71    1.04
   1   2 -10    0.87    1.40
   2  -3 -10    0.95    0.69
   1   2 -10    1.14    0.39
  -3   1 -10    1.66    1.23
   1   2 -10    0.41    0.61
   2  -3 -10    1.09    0.72
  -3   1 -10    0.64    0.49
   2  -3 -10   -0.75    1.14
  -1  -2  10    1.97    0.46
  -1  -2  10    0.50    0.99
   3  -1  10    1.88    1.16
   3  -1  10    1.98    0.86
  -3   4 -10    0.87    0.61
   4  -1 -10   -0.57    0.43
  -1  -3 -10   -1.00    1.08
   4  -1 -10    1.59    1.28
   4  -1 -10    0.80    0.83
  -1  -3 -10   -1.10    0.78
  -4   1  10    0.12    0.95
   1   3  10    0.66    0.42
   3  -4  10    1.34    1.16
   1   3  10    0.93    0.79
   1   3  10    1.58    0.95
   3  -4  10    0.29    0.72
  -3   7 -10    3.35    0.90
  -4  -3 -10    4.01    1.45
   7  -4 -10    4.91    0.99
   7  -4 -10    5.91    1.28
  -4  -3 -10    4.11    1.16
  -7   4  10    3.97    1.13
  -7   4  10    3.84    1.13
   4   3  10    3.03    1.31
   4   3  10    3.21    1.24
   3  -7  10    5.85    1.83
   3  -7  10    5.18    1.51
   4  -4 -10  333.40    9.96
   4  -4 -10  351.96    9.11
  -4   0 -10  355.78    8.29
   4  -4 -10  346.67    9.38
  -4   0 -10  358.58   10.27
   0   4 -10  348.70    9.30
   0  -4  10  333.83   10.19
   4   0  10  340.69    9.66
   4   0  10  329.75    9.87
   0  -4  10  358.69    8.58
  -4   4  10  326.28    9.79
  -4   4  10  361.49    9.35
   3   1 -10   -0.08    1.39
   1  -4 -10    0.03    1.10
  -4   3 -10    0.15    0.58
   1  -4 -10   -0.20    0.77
   1  -4 -10    0.49    0.67
   3   1 -10    0.82    0.72
  -4   3 -10   -0.56    1.34
  -1   4  10    0.56    1.04
   4  -3  10    2.00    0.87
  -3  -1  10    0.85    0.95
  -1   4  10    0.11    0.55
   4  -3  10   -2.54    0.98
  -2  -4 -10  458.99   12.28
   6  -2 -10  457.49   12.24
   6  -2 -10  452.30   11.07
  -4   6 -10  462.06   11.81
  -2  -4 -10  462.30   12.68
   2   4  10  463.72   12.46
   4  -6  10  454.87   13.16
  -6   2  10  423.24   12.17
   2   4  10  443.73   12.37
   4  -6  10  466.81   11.94
  -5  -4 -10   -1.02    1.05
  -5  -4 -10    0.41    1.39
   9  -5 -10    2.19    1.24
   9  -5 -10    2.18    1.04
  -4   9 -10    1.25    0.91
  -9   5  10    2.10    1.16
   4  -9  10   -1.01    0.96
  -9   5  10    1.10    1.04
   5   4  10    1.89    1.23
   5   4  10    1.96    1.32
   4  -9  10    1.52    1.87
  -5  -1 -10   -1.04    1.25
   6  -5 -10   -0.81    0.86
  -1   6 -10    0.38    0.73
   1  -6  10    1.37    0.74
  -6   5  10    1.06    0.95
   5   1  10    1.08    0.98
   5   1  10   -0.79    1.08
  -6   5  10    1.97    1.01
   1  -6  10    1.66    1.45
   3  -5 -10    0.37    1.40
   3  -5 -10    0.16    0.81
  -5   2 -10    1.94    1.41
   2   3 -10    1.10    2.53
  -5   2 -10    0.51    0.49
   3  -5 -10    0.03    0.82
   2   3 -10   -0.32    0.70
   5  -2  10    0.25    1.01
  -2  -3  10    2.01    1.05
  -3   5  10   -0.05    0.65
   5  -2  10   -0.25    0.89
  -3   5  10    0.46    1.06
  -5   5 -10   -0.10    0.66
   5   0 -10    0.92    0.80
   0  -5 -10    0.78    0.80
   0  -5 -10   -0.49    1.19
   0   5  10    0.03    0.48
   0   5  10   -0.55    0.95
  -5   0  10    0.98    0.99
   5  -5  10   -0.51    0.85
   5  -5  10    1.34    1.48
   8  -3 -10   13.56    1.72
   8  -3 -10   10.47    1.35
  -3  -5 -10    8.85    1.52
  -5   8 -10   14.49    1.86
  -3  -5 -10   10.07    1.82
  -8   3  10   11.75    1.62
   5  -8  10   12.53    2.20
   3   5  10   11.58    1.75
   3   5  10    9.92    1.68
   5  -8  10   11.87    1.56
  11  -6 -10    6.97    1.44
  -5  11 -10    6.42    1.40
  11  -6 -10    5.33    3.50
  -6  -5 -10    2.88    1.50
 -11   6  10    5.77    1.37
   6   5  10    6.97    1.63
 -11   6  10    7.44    2.97
   5 -11  10    5.26    1.97
   6   5  10    5.03    1.66
   5 -11  10    7.67    1.60
   8  -6 -10  369.15   10.22
   8  -6 -10  388.26   11.07
  -6  -2 -10  384.77   11.09
  -2   8 -10  380.51   10.53
   6   2  10  395.35   10.76
  -8   6  10  366.91   10.74
   6   2  10  397.28   12.28
   2  -8  10  371.17   11.65
  -8   6  10  371.36   10.67
   1   5 -10   12.58    1.39
  -6   1 -10   12.80    2.02
   5  -6 -10   12.24    1.65
  -6   1 -10   12.91    0.84
   5  -6 -10   12.21    1.47
   5  -6 -10   10.27    1.75
  -1  -5  10   10.77    1.88
   6  -1  10   13.82    1.71
  -5   6  10   14.76    1.89
  -1  -5  10   13.43    1.01
  -5   6  10   12.53    1.47
   6  -1  10   14.83    1.94
  -6   4 -10  461.58   11.57
   2  -6 -10  473.63   12.36
   4   2 -10  442.78   12.24
   2  -6 -10  469.23   12.98
  -2   6  10  480.43   12.79
  -2   6  10  457.84   11.49
  -4  -2  10  454.41   12.64
   6  -4  10  463.14   12.52
  -6   7 -10    3.37    0.88
  -1  -6 -10    3.67    1.24
   7  -1 -10    4.01    1.09
  -7   1  10    3.54    1.17
   1   6  10    3.02    1.35
   6  -7  10    2.60    1.63
   6  -7  10    3.53    1.06
  -4  -6 -10  203.80    7.17
  -6  10 -10  206.78    6.68
  -4  -6 -10  213.59    7.28
  10  -4 -10  210.34    7.25
  10  -4 -10  191.49    7.22
 -10   4  10  218.54    7.27
   4   6  10  213.66    6.97
   4   6  10  216.85    7.45
 -10   4  10  210.46    6.67
   6 -10  10  215.83    8.12
   6 -10  10  218.29    6.97
  13  -7 -10    3.73    1.59
  -6  13 -10    0.34    1.33
  -7  -6 -10    1.21    1.85
  13  -7 -10    1.33    1.71
  -7  -6 -10    0.37    1.75
   7   6  10   -0.78    1.83
 -13   7  10    0.31    1.29
   6 -13  10    0.49    2.05
 -13   7  10    0.40    1.47
   6 -13  10    2.97    1.51
  -3  10 -10    0.05    1.16
  10  -7 -10    0.56    1.15
  -7  -3 -10    0.58    1.26
  -7  -3 -10   -0.34    1.48
  10  -7 -10    1.35    1.54
 -10   7  10   -0.89    1.12
 -10   7  10    1.87    1.32
   7   3  10    1.41    1.37
   3 -10  10    0.35    1.11
   7   3  10    1.43    1.43
   0   7 -10   -0.47    0.81
  -7   0 -10   -0.17    0.31
   7  -7 -10   -0.19    1.01
  -7   0 -10   -0.03    1.41
   7   0  10   -0.58    1.27
  -7   7  10   -0.38    0.87
   0  -7  10   -0.46    1.47
   7   0  10   -0.47    1.04
   0  -7  10   -0.08    0.72
  -7   7  10    0.37    1.16
   4  -7 -10    1.17    1.63
   3   4 -10    0.81    0.87
   4  -7 -10    0.54    0.87
  -7   3 -10    0.70    0.73
  -3  -4  10    1.13    1.21
  -4   7  10    1.56    0.82
   7  -3  10    0.69    1.01
   7  -3  10    0.92    1.36
  -4   7  10   -1.46    1.15
   1  -7 -10    1.21    1.06
   1  -7 -10    2.96    1.59
  -7   6 -10    0.77    0.78
   6   1 -10    2.26    1.11
  -6  -1  10   -0.01    1.04
   7  -6  10    0.69    1.13
   7  -6  10    0.99    1.70
  -1   7  10    1.42    1.10
  -7   9 -10    3.63    1.00
   9  -2 -10    2.89    1.29
   9  -2 -10    1.13    0.94
  -2  -7 -10    3.78    1.34
  -2  -7 -10    2.06    1.42
   7  -9  10    3.73    1.43
  -9   2  10    4.25    1.14
   7  -9  10    0.97    1.78
   2   7  10    3.33    1.49
  -5  -7 -10    2.60    1.76
  -7  12 -10   -0.02    1.16
  12  -5 -10    0.26    1.36
  -5  -7 -10    0.80    1.56
   5   7  10   -0.96    1.46
   7 -12  10   -0.07    1.41
   5   7  10    0.38    1.57
 -12   5  10    2.81    1.26
  -7  15 -10    0.93    1.39
  15  -8 -10   -0.70    1.96
  15  -8 -10    2.45    1.92
  -8  -7 -10   -0.16    1.76
 -15   8  10    1.42    1.39
   7 -15  10    1.22    1.79
   8   7  10    0.99    1.89
 -15   8  10    2.29    1.68
  -8  -4 -10  287.66    9.15
  12  -8 -10  283.15    8.80
  -8  -4 -10  285.53   12.54
  -4  12 -10  271.34    9.58
   8   4  10  299.97    8.54
 -12   8  10  282.41    8.85
   8   4  10  278.46   12.98
   4 -12  10  291.62    8.71
  -8  -1 -10   28.26    2.85
   9  -8 -10   27.88    2.26
  -1   9 -10   26.05    2.28
   8   1  10   24.02    2.47
   1  -9  10   22.05    1.88
  -9   8  10   22.53    2.10
   8   1  10   26.03    2.59
  -9   8  10   19.74    2.47
   1  -9  10   26.80    3.18
   6  -8 -10  465.34   12.69
  -8   2 -10  461.85   13.31
  -8   2 -10  494.23   11.42
   2   6 -10  459.32   12.65
   6  -8 -10  469.42   14.01
  -6   8  10  475.75   13.11
   8  -2  10  459.17   12.99
  -6   8  10  462.13   12.32
  -2  -6  10  479.18   11.42
  -2  -6  10  460.34   13.37
   8  -2  10  470.81   13.26
   3  -8 -10   12.46    1.78
  -8   5 -10   11.53    1.22
   5   3 -10   12.38    1.66
   3  -8 -10    9.95    1.98
   8  -5  10   13.79    2.29
  -3   8  10   10.42    2.30
   8  -5  10   12.92    1.76
  -3   8  10   11.30    1.26
  -5  -3  10   12.10    1.85
  -8   8 -10  307.33    9.23
   0  -8 -10  295.76    9.15
   8   0 -10  301.06    9.11
   0  -8 -10  300.05    9.46
   0   8  10  300.44    7.65
   8  -8  10  304.04   10.02
  -8   0  10  292.21    8.64
   8  -8  10  300.27    9.19
  11  -3 -10   -1.49    1.19
  -3  -8 -10    0.34    1.41
  -8  11 -10   -0.97    1.02
  11  -3 -10    1.20    1.44
  -3  -8 -10   -1.74    1.74
   8 -11  10    1.93    1.47
 -11   3  10    0.08    1.05
   3   8  10    0.40    0.59
   3   8  10   -0.90    1.52
  14  -6 -10  258.95    9.28
  -6  -8 -10  257.77    9.26
  14  -6 -10  256.42    8.10
  -8  14 -10  256.99    8.42
   8 -14  10  254.32    8.72
 -14   6  10  263.72    7.93
 -14   6  10  244.67    8.80
  -9  -8 -10    2.21    2.01
  17  -9 -10   -0.08    2.16
  -8  17 -10    1.15    1.79
 -17   9  10   -1.55    1.88
 -17   9  10   -0.44    1.63
   8 -17  10    1.52    2.11
  -5  14 -10   -0.13    1.54
  14  -9 -10    1.52    1.67
  -9  -5 -10   -3.06    3.02
  -9  -5 -10    0.04    1.48
 -14   9  10    0.10    1.70
 -14   9  10    2.44    1.51
   5 -14  10    0.66    1.62
   9   5  10    1.26    1.78
  -2  11 -10    1.65    1.26
  11  -9 -10    0.26    1.32
  -9  -2 -10    3.81    1.74
 -11   9  10    3.54    1.39
   9   2  10    1.38    1.48
   2 -11  10    0.50    1.15
   2 -11  10    5.42    1.82
 -11   9  10    1.41    1.43
   9   2  10    0.72    1.66
  -9   1 -10   18.35    1.12
   8  -9 -10   19.01    2.17
   1   8 -10   15.73    1.88
  -8   9  10   17.34    1.83
  -1  -8  10   18.43    1.63
   9  -1  10   19.00    2.47
  -1  -8  10   18.83    2.58
  -8   9  10   19.63    2.37
   9  -1  10   21.50    2.62
   4   5 -10    1.12    1.01
  -9   4 -10    0.78    0.70
   5  -9 -10   -1.64    1.92
   5  -9 -10    1.71    1.23
   9  -4  10    1.66    1.24
  -4  -5  10    1.35    0.56
  -5   9  10    2.58    0.97
  -4  -5  10    1.26    1.30
   9  -4  10   -1.76    1.48
  -5   9  10    0.93    1.38
   2  -9 -10    0.70    1.63
  -9   7 -10    1.53    0.89
   7   2 -10   -0.84    0.98
   2  -9 -10    2.43    1.25
  -2   9  10    1.35    0.80
  -2   9  10    0.90    1.32
   9  -7  10    0.56    1.75
  -7  -2  10   -0.35    1.08
  -1  -9 -10    1.06    1.27
  -9  10 -10    1.73    1.14
  -1  -9 -10    0.61    1.66
  10  -1 -10    2.21    1.70
  10  -1 -10    1.29    1.00
 -10   1  10    2.69    1.12
   1   9  10    1.63    1.52
   9 -10  10    2.13    1.52
   9 -10  10    3.61    2.17
   1   9  10    1.53    1.27
  -9  13 -10    1.67    1.24
  13  -4 -10    1.34    1.48
  13  -4 -10    2.66    1.83
  -4  -9 -10    1.17    2.16
   9 -13  10    1.45    1.55
 -13   4  10    4.38    1.92
 -13   4  10    0.64    1.39
  -9  16 -10    2.61    1.86
  -7  -9 -10    4.34    2.06
  16  -7 -10   -0.84    2.08
  16  -7 -10   -0.43    1.91
 -16   7  10    0.45    1.48
   9 -16  10   -1.92    1.99
 -16   7  10   -1.40    1.71
 -10  -9 -10    7.17    3.11
  19 -10 -10   -0.01    2.81
  -9  19 -10    4.86    2.42
 -19  10  10    7.00    2.63
   9 -19  10    5.52    2.41
 -19  10  10    9.58    2.29
 -10  -6 -10  140.76    6.57
  -6  16 -10  134.19    5.94
  16 -10 -10  130.33    6.07
  10   6  10  140.40    7.02
   6 -16  10  128.29    6.03
 -16  10  10  124.01    5.59
 -16  10  10  123.83    5.90
  13 -10 -10   -1.82    1.56
  -3  13 -10   -1.74    1.16
 -10  -3 -10    1.92    1.50
 -13  10  10   -0.80    1.52
 -13  10  10   -0.22    1.50
  10   3  10    1.45    1.84
   3 -13  10   -0.49    1.36
   0  10 -10  164.72    5.91
 -10   0 -10  157.12    6.07
 -10   0 -10  160.48    4.11
  10 -10 -10  152.94    5.87
   0 -10  10  156.13    5.69
 -10  10  10  156.20    6.05
  10   0  10  149.43    6.28
   0 -10  10  158.78    5.15
  10   0  10  155.35    5.74
   0 -10  10  148.17    6.74
 -10  10  10  161.78    5.86
 -10   3 -10    1.75    0.79
   3   7 -10    1.13    1.14
  -3  -7  10   -0.37    1.52
  10  -3  10   -0.10    1.60
  10  -3  10    0.29    1.21
  -3  -7  10    0.99    0.84
  -7  10  10   -0.36    1.46
  -7  10  10    0.04    0.92
   4 -10 -10  258.50    8.60
   6   4 -10  253.03    7.99
   4 -10 -10  261.07    8.33
 -10   6 -10  249.64    7.11
  10  -6  10  255.35    8.71
  -6  -4  10  249.78    7.95
  -4  10  10  259.44    7.21
  10  -6  10  255.39    8.46
  -6  -4  10  248.41    6.18
  -4  10  10  240.78    9.02
   1 -10 -10   -0.94    1.81
   9   1 -10   -0.31    0.79
 -10   9 -10   -1.91    0.99
   1 -10 -10   -0.29    1.22
   9   1 -10   -0.27    1.35
  -1  10  10    0.31    0.83
  10  -9  10   -1.70    2.08
  -1  10  10    1.05    1.45
  10  -9  10   -0.12    1.32
  -9  -1  10   -0.63    0.72
  -9  -1  10    1.79    1.07
  -2 -10 -10  321.14   10.48
 -10  12 -10  310.75    9.38
  -2 -10 -10  296.82   10.00
  12  -2 -10  295.89    9.97
  12  -2 -10  313.87    8.68
 -12   2  10  314.44    8.80
   2  10  10  319.25    8.03
  10 -12  10  310.48   10.15
  15  -5 -10    1.35    1.76
 -10  15 -10    3.34    1.66
  -5 -10 -10   -0.69    2.09
  15  -5 -10    1.19    2.26
 -15   5  10    1.72    1.40
 -15   5  10    5.39    2.23
 -10  18 -10  111.92    5.54
  -8 -10 -10  112.04    6.63
 -18   8  10  123.61    6.12
 -18   8  10  113.49    4.97
  10 -18  10  116.01    6.27
 -10  21 -10    0.89    2.49
  21 -11 -10   -3.74    3.01
 -11 -10 -10    6.86    3.44
  10 -21  10    4.08    3.13
 -21  11  10    3.91    2.89
  18 -11 -10   -0.92    2.48
  -7  18 -10    3.31    2.00
 -11  -7 -10   -0.25    2.14
  11   7  10   -1.57    2.33
 -18  11  10    0.55    2.10
 -18  11  10   -1.40    1.93
   7 -18  10    3.35    2.27
  15 -11 -10    3.80    2.03
 -11  -4 -10    3.40    2.25
 -11  -4 -10   -0.28    1.78
  -4  15 -10    0.24    1.54
   4 -15  10    0.35    1.78
  11   4  10    5.22    2.25
 -15  11  10    1.39    1.89
 -15  11  10   -0.51    1.71
  12 -11 -10    4.05    1.82
 -11  -1 -10    3.10    2.06
  -1  12 -10    3.96    1.60
 -12  11  10    1.63    1.78
   1 -12  10    3.31    1.43
 -12  11  10    3.53    1.58
   9 -11 -10    2.43    1.57
   2   9 -10    1.70    1.30
 -11   2 -10    0.47    0.77
  11  -2  10   -0.71    1.72
  -2  -9  10    0.16    1.91
  11  -2  10    0.13    1.78
  -9  11  10    1.64    1.48
  -9  11  10    1.81    1.37
   5   6 -10    0.60    1.32
   6 -11 -10   -0.32    1.38
 -11   5 -10    0.91    0.87
  11  -5  10    1.80    1.67
  -6  11  10    2.08    1.10
  11  -5  10    5.14    2.01
  -5  -6  10    1.89    0.84
  -5  -6  10    1.66    1.44
  -6  11  10    0.35    1.70
 -11   8 -10    7.99    1.37
   3 -11 -10    5.26    1.59
   8   3 -10    9.76    1.74
   3 -11 -10    4.63    2.41
  -3  11  10    8.97    1.30
  -3  11  10    6.05    1.94
  11  -8  10    8.76    2.34
  -8  -3  10    9.79    1.12
  -8  -3  10    9.35    1.57
  11  -8  10    7.84    1.84
   0 -11 -10    2.59    2.88
  11   0 -10    1.44    1.60
 -11  11 -10    1.99    1.39
  11   0 -10    1.86    1.22
   0 -11 -10    0.43    1.50
  11 -11  10    5.53    2.57
 -11   0  10    0.47    1.08
   0  11  10    1.40    0.99
  11 -11  10    2.37    1.87
   0  11  10    1.76    1.85
  -3 -11 -10    1.62    1.68
  14  -3 -10   -0.16    1.78
 -11  14 -10    1.00    1.34
  14  -3 -10    2.37    1.68
 -14   3  10    0.75    1.25
 -14   3  10    1.11    1.74
  17  -6 -10    4.01    2.52
  -6 -11 -10    2.36    2.14
  17  -6 -10    3.21    2.34
 -11  17 -10    6.73    1.96
  11 -17  10    4.27    2.46
 -17   6  10    3.61    1.56
 -17   6  10    4.48    2.47
  20  -9 -10    6.55    3.14
 -11  20 -10   -1.27    2.52
  -9 -11 -10    1.97    2.76
 -20   9  10   -0.41    2.32
  11 -20  10   -0.69    2.92
 -20   9  10    1.52    1.93
 -11  23 -10    9.99    3.87
 -23  12  10    8.62    3.90
  11 -23  10   10.13    4.09
  20 -12 -10   69.08    5.81
  -8  20 -10   72.33    5.02
 -12  -8 -10   72.64    5.56
 -20  12  10   68.48    5.17
 -20  12  10   79.01    4.89
   8 -20  10   69.49    5.46
  -5  17 -10    1.63    1.78
 -12  -5 -10    3.21    2.35
  17 -12 -10   -1.16    2.41
  12   5  10   -1.50    2.49
 -17  12  10    0.56    2.24
   5 -17  10    3.06    2.53
 -17  12  10    1.98    2.10
  -2  14 -10  197.63    7.34
  14 -12 -10  200.34   10.82
 -12  -2 -10  190.89    7.24
   2 -14  10  207.23    7.04
 -14  12  10  206.63    7.59
  12   2  10  200.97    8.16
 -14  12  10  199.81    7.57
 -12   1 -10    1.09    1.27
  11 -12 -10    2.43    1.68
   1  11 -10    0.94    1.55
 -11  12  10    1.59    1.52
 -11  12  10    3.76    1.95
  -1 -11  10    1.10    2.18
  -1 -11  10    1.61    1.36
   4   8 -10  292.39    9.73
   8 -12 -10  311.08   10.12
 -12   4 -10  325.60    8.46
  12  -4  10  307.59   10.55
  -4  -8  10  328.85   10.34
  12  -4  10  331.12    9.99
  -8  12  10  315.33    9.38
  -8  12  10  317.78   10.04
  -4  -8  10  325.96    8.47
   5 -12 -10    4.88    2.49
   5 -12 -10    8.22    1.85
  -5  12  10    8.33    1.43
  12  -7  10    9.36    2.62
  -7  -5  10    7.67    1.66
  12  -7  10    5.47    1.92
  -7  -5  10    8.24    1.05
 -12  10 -10  210.55    6.79
   2 -12 -10  218.16    7.81
  10   2 -10  205.51    7.49
 -10  -2  10  212.99    5.87
  12 -10  10  210.22    8.36
  12 -10  10  206.53    8.72
  -2  12  10  209.18    7.48
  -2  12  10  216.09    6.31
 -10  -2  10  220.61    6.65
  13  -1 -10    2.02    1.58
  13  -1 -10    0.40    1.77
 -12  13 -10    0.78    1.49
  -1 -12 -10    2.55    1.89
   1  12  10    3.42    1.21
 -13   1  10    3.22    1.23
  16  -4 -10  148.46    7.22
 -12  16 -10  153.92    6.34
  -4 -12 -10  157.12    7.23
  12 -16  10  147.61    7.08
 -16   4  10  153.04    5.20
 -16   4  10  156.51    6.89
  19  -7 -10   -5.21    3.17
  -7 -12 -10    5.33    2.56
 -12  19 -10    1.09    2.41
 -19   7  10    0.10    2.64
 -19   7  10    0.31    1.70
  12 -19  10    2.34    2.92
 -12  22 -10   68.58    5.85
 -10 -12 -10   74.60    6.60
  12 -22  10   71.74    6.56
 -22  10  10   72.20    6.39
 -12  25 -10    2.78    3.51
 -13 -12 -10   -6.33    4.30
 -25  13  10   -4.25    4.05
  12 -25  10   -4.36    4.49
  -9  22 -10    3.68    2.88
 -13  -9 -10    8.29    3.78
  22 -13 -10   -2.57    3.62
   9 -22  10    0.59    3.48
 -22  13  10   -0.43    3.26
 -13  -6 -10   -1.90    2.41
  19 -13 -10    2.55    2.89
  -6  19 -10    3.45    2.49
 -19  13  10    3.68    2.42
   6 -19  10    2.62    2.63
  13   6  10    4.91    2.91
 -19  13  10   -3.20    2.16
  16 -13 -10   -0.72    2.29
  -3  16 -10    3.71    1.84
 -13  -3 -10    0.15    2.19
 -16  13  10    1.40    2.13
 -16  13  10   -1.49    1.86
  13   3  10    0.83    2.56
   3 -16  10   -1.63    1.93
   0  13 -10    1.37    1.56
  13 -13 -10    2.80    2.05
  13   0  10    1.69    2.12
 -13  13  10    1.51    1.69
   0 -13  10    2.79    1.67
 -13  13  10    2.00    1.76
   3  10 -10    2.01    1.57
 -13   3 -10    1.50    1.03
  10 -13 -10    1.48    1.79
 -10  13  10    2.60    2.06
  13  -3  10   -0.52    1.81
  -3 -10  10    1.42    2.21
  -3 -10  10    2.01    1.32
 -13   6 -10    1.69    1.05
   7 -13 -10    2.54    1.94
   6   7 -10    2.90    1.58
  -6  -7  10    2.96    1.14
  13  -6  10    0.32    1.67
  -7  13  10    2.67    1.38
  -6  -7  10    2.63    1.68
  -7  13  10    1.64    1.98
 -13   9 -10   -0.23    1.18
   9   4 -10   -0.20    1.37
   4 -13 -10    1.49    1.58
  -9  -4  10    0.27    1.30
  -4  13  10    2.82    1.26
  -4  13  10   -3.10    1.98
  13  -9  10   -1.80    1.93
 -13  12 -10   -0.48    1.40
   1 -13 -10    0.13    1.99
  12   1 -10   -1.24    1.61
  -1  13  10    1.51    1.20
 -12  -1  10   -0.20    1.07
  13 -12  10    2.41    2.01
  15  -2 -10    4.48    2.12
  -2 -13 -10   -1.99    2.03
 -13  15 -10    2.30    1.79
 -15   2  10   -0.24    1.93
  13 -15  10   -3.27    1.92
 -15   2  10   -0.08    1.14
 -13  18 -10    0.08    2.31
  18  -5 -10   11.60    3.10
  -5 -13 -10    5.03    2.82
 -18   5  10    4.85    1.49
 -18   5  10    5.14    2.33
  13 -18  10    3.05    2.69
 -13  21 -10    5.52    3.09
  -8 -13 -10    2.52    3.27
 -21   8  10    1.52    2.85
  13 -21  10    3.55    3.48
 -13  24 -10   -0.51    3.27
 -11 -13 -10   -1.28    3.59
 -24  11  10    2.50    3.60
 -13  27 -10    4.26    5.02
 -14 -13 -10    6.35    5.01
 -27  14  10   -1.76    5.20
  13 -27  10   10.75    6.12
 -14 -10 -10   56.62    7.10
 -10  24 -10   57.37    6.24
  10 -24  10   63.56    7.25
 -24  14  10   58.43    5.87
  21 -14 -10   -0.18    3.51
 -14  -7 -10    1.31    3.01
  -7  21 -10    1.20    3.20
  14   7  10    6.11    3.74
   7 -21  10    6.21    3.27
 -21  14  10    3.01    2.91
 -14  -4 -10   90.67    5.84
  18 -14 -10   95.73    6.10
  -4  18 -10   93.55    5.36
  14   4  10  105.35    6.38
 -18  14  10  108.31    6.14
   4 -18  10   90.46    5.68
 -18  14  10  100.42    5.69
  15 -14 -10   -0.09    2.11
  -1  15 -10    1.29    2.04
 -15  14  10    2.32    2.16
   1 -15  10    1.68    2.00
 -15  14  10   -1.20    1.99
  14   1  10   -0.37    2.19
  12 -14 -10  207.11    8.34
   2  12 -10  229.82    7.98
 -12  14  10  224.04    7.79
  -2 -12  10  221.55    7.13
  -2 -12  10  224.84    9.09
 -12  14  10  230.83    8.29
  14  -2  10  214.02    8.67
 -14   5 -10   11.98    1.56
   5   9 -10   11.75    2.01
   9 -14 -10   11.74    3.90
  -5  -9  10    9.91    1.89
  -9  14  10   11.05    2.66
  14  -5  10    8.89    2.31
  -5  -9  10   16.17    2.73
  -5  -9  10   11.32    1.67
   6 -14 -10  226.09    8.55
   8   6 -10  223.37    8.01
 -14   8 -10  236.14    7.17
  -8  -6  10  236.45    7.69
  -6  14  10  241.64    7.36
  14  -8  10  226.50    8.71
  -6  14  10  233.78    8.59
   3 -14 -10    5.86    2.22
  11   3 -10   12.13    2.39
 -14  11 -10    4.39    2.02
 -11  -3  10    8.72    1.54
  -3  14  10    8.27    1.63
  14 -11  10    7.56    2.31
 -14  14 -10  154.23    6.20
  14   0 -10  156.51    7.09
   0 -14 -10  160.55    7.34
  14 -14  10  159.20    7.29
 -14   0  10  166.42    5.00
  17  -3 -10   -0.38    2.54
  -3 -14 -10    1.81    2.71
 -14  17 -10    1.62    1.87
  14 -17  10    3.94    2.67
 -17   3  10   -1.03    1.16
 -17   3  10   -2.94    2.21
 -14  20 -10  120.91    6.07
  -6 -14 -10  116.34    6.93
  20  -6 -10  110.20    7.15
 -20   6  10  102.86    6.39
 -20   6  10  106.73    4.23
  14 -20  10  105.45    7.08
 -14  23 -10    0.00    3.32
  -9 -14 -10   -0.50    5.02
 -23   9  10   -1.51    3.37
  14 -23  10   -1.25    3.94
 -12 -14 -10   30.05    5.60
 -14  26 -10   29.69    4.96
 -26  12  10   23.50    5.27
  14 -26  10   28.03    6.12
 -11  26 -10    1.04    4.04
 -15 -11 -10    4.53    5.14
  11 -26  10    9.40    5.59
 -26  15  10   -1.83    4.70
  23 -15 -10   -1.32    4.23
  -8  23 -10    8.81    3.66
 -15  -8 -10   10.42    4.42
   8 -23  10    3.68    3.97
 -23  15  10    1.69    3.59
  -5  20 -10   -3.55    2.31
 -15  -5 -10    1.46    2.74
  20 -15 -10   -2.29    3.24
  15   5  10   -2.59    2.81
   5 -20  10    5.39    3.09
 -20  15  10   -0.62    4.23
 -20  15  10    0.84    2.76
  17 -15 -10   -1.72    2.64
 -15  -2 -10    2.52    2.37
  -2  17 -10    1.70    2.41
  15   2  10    2.35    2.61
 -17  15  10    2.13    2.43
 -17  15  10    6.15    2.60
   1  14 -10    0.46    1.74
  14 -15 -10   -2.98    1.89
 -14  15  10    1.83    1.86
 -14  15  10    2.60    2.43
  -1 -14  10    0.34    2.92
  15  -1  10    0.07    2.05
  -1 -14  10    1.24    2.01
  11 -15 -10    2.87    2.29
 -15   4 -10    0.88    1.33
   4  11 -10    0.27    1.64
  15  -4  10    0.82    2.07
  -4 -11  10    0.18    1.63
 -11  15  10    2.54    2.43
  -4 -11  10    2.71    2.44
 -11  15  10    2.21    1.80
   7   8 -10    4.40    1.73
 -15   7 -10    1.43    1.24
   8 -15 -10    3.95    1.98
  -8  15  10    2.40    2.19
  15  -7  10    2.28    2.14
  -8  15  10    2.89    1.66
  -7  -8  10    1.45    1.86
  -7  -8  10    2.77    1.45
   5 -15 -10    5.66    2.02
  10   5 -10    6.54    1.99
 -15  10 -10    4.86    1.64
 -10  -5  10    7.56    1.68
  -5  15  10    2.88    1.59
  15 -10  10    6.42    2.55
   2 -15 -10    2.52    2.25
 -15  13 -10    1.54    1.55
  13   2 -10    0.49    2.24
  15 -13  10    3.19    2.34
  -2  15  10   -2.98    1.47
 -13  -2  10    1.54    1.11
 -15  16 -10    2.23    2.02
  -1 -15 -10   -3.17    2.20
  16  -1 -10   -0.22    2.19
 -16   1  10    1.03    2.26
 -16   1  10    1.66    1.00
  15 -16  10   -1.60    2.55
  -4 -15 -10    2.65    2.74
  19  -4 -10   -1.41    3.04
 -15  19 -10    4.10    2.53
 -19   4  10    8.96    2.91
  15 -19  10    4.78    3.41
 -19   4  10    5.72    1.24
  -7 -15 -10   -1.84    3.25
 -15  22 -10    6.09    3.06
 -22   7  10    1.35    2.97
  15 -22  10   -1.24    4.03
 -15  25 -10   -0.38    4.06
 -10 -15 -10   -2.08    4.57
  15 -25  10    4.84    4.89
 -25  10  10   -0.20    3.83
 -13 -15 -10   -2.98    6.14
  15 -28  10    3.76    6.48
 -16 -12 -10   47.65    7.50
  12 -28  10   30.35    7.34
 -16  -9 -10   -3.20    4.13
  -9  25 -10    5.02    3.72
 -25  16  10    6.73    4.51
   9 -25  10    5.12    4.94
  22 -16 -10   83.22    7.79
 -16  -6 -10   92.21    7.20
  -6  22 -10   83.87    6.00
 -22  16  10   86.16    6.35
   6 -22  10   99.25    7.06
  16   6  10   79.43    6.90
 -16  -3 -10    5.02    3.26
  -3  19 -10    3.96    2.76
  19 -16 -10    1.63    3.32
 -19  16  10    0.81    2.62
   3 -19  10   -0.09    2.94
 -19  16  10   -0.18    2.80
  16   3  10    2.84    3.48
  16 -16 -10  125.67    6.62
   0  16 -10  130.74    6.22
  16   0  10  127.35    7.39
 -16  16  10  133.41    6.36
 -16  16  10  137.72    6.84
   0 -16  10  126.18    7.08
   3  13 -10   -1.25    1.73
  13 -16 -10    1.65    2.50
 -13  16  10    0.18    1.78
  -3 -13  10   -4.62    2.70
  16  -3  10    4.59    2.54
  10 -16 -10  127.43    6.45
   6  10 -10  122.69    5.85
 -16   6 -10  125.13    4.72
  16  -6  10  129.32    6.81
 -10  16  10  124.38    5.42
 -10  16  10  128.36    6.26
  -6 -10  10  122.62    6.22
 -16   9 -10    3.66    1.73
   7 -16 -10    4.45    2.33
   9   7 -10   -0.47    1.67
  16  -9  10    4.78    2.50
  -7  16  10    3.68    1.76
  -9  -7  10    0.77    1.85
  -9  -7  10    2.85    1.43
 -16  12 -10  133.52    5.59
  12   4 -10  135.35    6.50
   4 -16 -10  136.49    6.70
  -4  16  10  144.01    6.19
  16 -12  10  134.71    7.05
 -12  -4  10  137.66    4.65
 -12  -4  10  144.37    4.42
   1 -16 -10   11.62    3.05
 -16  15 -10    5.02    2.19
  15   1 -10   12.27    3.04
 -15  -1  10    6.81    0.95
  16 -15  10   10.22    3.03
  -2 -16 -10   86.49    5.93
  18  -2 -10   76.82    6.46
 -16  18 -10   82.98    5.23
  16 -18  10   75.89    6.37
 -18   2  10   84.85    6.10
  -5 -16 -10   -2.15    3.17
  16 -21  10    3.17    3.77
 -21   5  10    2.93    4.55
 -16  24 -10   42.33    5.35
  -8 -16 -10   56.61    7.00
 -24   8  10   46.86    5.91
  16 -24  10   38.50    6.33
 -16  27 -10   -2.54    4.22
 -11 -16 -10   -4.03    5.77
 -27  11  10   -6.53    4.44
  16 -27  10    9.99    5.80
 -10  27 -10   14.36    4.73
 -17 -10 -10  -10.25    5.40
 -27  17  10    5.04    5.25
 -17  -7 -10    5.49    4.48
  -7  24 -10   -3.66    3.20
   7 -24  10   -3.61    4.46
 -24  17  10   -0.36    3.65
  -4  21 -10    4.32    3.26
  21 -17 -10    7.41    3.93
 -17  -4 -10    3.71    3.21
 -21  17  10    3.86    3.06
  17   4  10    4.24    3.52
   4 -21  10    6.63    3.53
 -17  -1 -10    2.44    3.02
  18 -17 -10   -1.50    2.99
  -1  18 -10   -0.26    2.29
  17   1  10    2.34    3.47
 -18  17  10   -3.89    2.97
 -18  17  10   -2.85    2.87
   1 -18  10   -3.09    2.75
   2  15 -10    4.31    2.14
  15 -17 -10    0.32    2.66
  17  -2  10    4.14    2.88
  -2 -15  10    5.18    3.46
 -15  17  10    2.55    2.34
 -15  17  10   -1.01    2.51
  12 -17 -10   -1.78    2.18
   5  12 -10   -3.45    1.79
  -5 -12  10    1.96    2.76
 -12  17  10    2.72    2.89
 -12  17  10   -1.20    1.89
  17  -5  10   -0.47    2.29
 -17   8 -10    2.66    1.79
   9 -17 -10    1.66    2.29
   8   9 -10    6.00    2.18
  17  -8  10    1.24    2.07
  -9  17  10    5.05    1.74
  -9  17  10    2.99    3.48
  -8  -9  10    5.19    2.19
  11   6 -10    1.94    2.03
   6 -17 -10    3.92    2.31
 -17  11 -10    2.37    1.78
 -11  -6  10   -0.15    1.30
  -6  17  10    2.37    1.69
 -11  -6  10    0.86    1.52
  17 -11  10    1.25    2.28
 -17  14 -10    2.55    2.07
  14   3 -10    3.27    2.32
   3 -17 -10    5.19    2.64
  17 -14  10    2.50    2.52
   0 -17 -10    7.46    3.03
 -17  17 -10    6.31    2.49
  17   0 -10    5.77    2.92
 -17   0  10    4.77    2.75
  17 -17  10    5.32    3.39
  20  -3 -10   -1.99    3.57
 -17  20 -10   -0.04    2.54
  -3 -17 -10    1.84    3.18
 -20   3  10   -5.55    3.27
  17 -20  10    0.65    3.61
  -6 -17 -10    9.36    4.22
 -17  23 -10   10.78    3.89
  17 -23  10   25.50    5.28
 -23   6  10    9.72    3.87
 -17  26 -10   -7.71    3.86
  -9 -17 -10    1.53    5.48
  17 -26  10    1.84    5.34
 -26   9  10   -7.99    3.89
 -18  -8 -10   44.53    6.96
  -8  26 -10   34.01    5.73
 -26  18  10   38.11    6.10
  -5  23 -10   -6.35    3.67
 -18  -5 -10   -0.03    4.12
  23 -18 -10    6.24    5.01
 -23  18  10    4.90    3.82
  18   5  10   -1.63    4.49
  -2  20 -10   69.13    6.60
 -18  -2 -10   74.39    6.52
  20 -18 -10   64.12    6.73
  18   2  10   81.15    7.25
 -20  18  10   74.51    6.13
   1  17 -10    1.83    2.37
  17 -18 -10    1.66    2.98
 -17  18  10    2.08    2.68
  18  -1  10   -4.29    2.64
 -17  18  10    2.12    3.12
  -1 -17  10    3.39    4.17
   4  14 -10  104.48    5.99
  14 -18 -10  100.86    6.34
 -14  18  10  113.85    6.92
  -4 -14  10  108.34    6.84
  18  -4  10  105.66    6.52
 -14  18  10  106.13    5.81
  11 -18 -10   -0.82    2.47
   7  11 -10    4.04    2.07
 -18   7 -10    0.57    1.87
  -7 -11  10   -0.82    2.54
  18  -7  10    1.58    2.77
 -11  18  10    0.08    3.01
 -11  18  10   -1.24    1.79
  10   8 -10  140.83    6.79
 -18  10 -10  150.51    5.91
   8 -18 -10  144.88    7.50
 -10  -8  10  146.24    5.80
  -8  18  10  146.55    6.05
  18 -10  10  143.54    7.56
   5 -18 -10    2.33    2.72
  13   5 -10    5.73    2.45
 -18  13 -10   -0.64    1.99
 -13  -5  10    1.41    1.20
  18 -13  10    0.65    2.64
  -5  18  10    2.24    2.04
 -13  -5  10    1.00    1.03
  16   2 -10   92.49    5.90
   2 -18 -10   88.88    6.13
 -18  16 -10   85.42    5.19
  18 -16  10   85.25    6.79
  19  -1 -10    0.32    3.31
 -18  19 -10   -0.36    2.74
  -1 -18 -10    1.01    3.04
 -19   1  10   10.95    3.29
  18 -19  10   -2.94    3.15
  22  -4 -10   49.59    6.55
 -18  22 -10   63.99    5.72
  -4 -18 -10   54.11    6.13
 -22   4  10   49.03    5.93
  18 -22  10   32.18    6.78
  -7 -18 -10    2.59    4.33
 -18  25 -10   -6.74    3.65
 -25   7  10    5.22    4.22
  18 -25  10    4.90    5.38
 -10 -18 -10   19.46    6.73
  18 -28  10   25.93    7.17
  25 -19 -10    5.61    5.92
  -6  25 -10   -3.35    4.33
 -19  -6 -10    3.38    5.14
  19   6  10    3.92    5.12
 -25  19  10   -4.99    3.86
  22 -19 -10   -0.46    4.56
  -3  22 -10    7.83    3.47
 -19  -3 -10   -3.58    3.74
  19   3  10    1.98    4.39
 -22  19  10   -7.14    3.13
 -19   0 -10   -2.42    3.22
  19 -19 -10    4.78    3.71
  19   0  10    1.09    3.88
  16 -19 -10    6.30    3.41
   3  16 -10    2.36    2.52
  19  -3  10    3.49    3.09
 -16  19  10    2.09    3.31
 -16  19  10    0.67    2.41
  -3 -16  10    0.57    4.13
  13 -19 -10    1.14    2.84
   6  13 -10   -1.40    2.15
  19  -6  10    0.91    2.88
  -6 -13  10    2.42    3.11
 -13  19  10    1.15    3.63
 -13  19  10    3.00    2.11
   9  10 -10    4.18    2.71
 -19   9 -10   -4.07    1.85
  10 -19 -10    0.93    2.43
  19  -9  10    4.05    3.04
 -10  19  10    1.94    2.31
  -9 -10  10   -0.75    2.37
 -19  12 -10    6.03    2.34
   7 -19 -10    8.29    2.83
  12   7 -10   -0.33    2.35
 -12  -7  10    3.30    1.65
  19 -12  10    2.42    2.84
  -7  19  10    4.26    2.15
 -12  -7  10    5.47    1.60
   4 -19 -10    5.73    3.09
 -19  15 -10    4.29    2.44
  15   4 -10    4.05    3.18
  19 -15  10    5.07    3.42
  18   1 -10    2.95    3.62
   1 -19 -10    6.73    3.33
 -19  18 -10    3.79    2.94
 -18  -1  10    6.04    3.27
  19 -18  10    4.78    3.44
  -2 -19 -10    8.96    4.65
  21  -2 -10   -1.09    4.61
 -19  21 -10    6.21    3.39
 -21   2  10   12.72    3.82
 -19  24 -10    0.94    3.97
  -5 -19 -10   -3.06    5.06
 -24   5  10    4.89    4.14
  19 -24  10   12.41    5.24
  -8 -19 -10   24.02    6.47
  19 -27  10    8.24    5.61
 -27   8  10    3.52    4.74
 -20  -7 -10   -2.40    5.76
  24 -20 -10   40.78    6.68
 -20  -4 -10   42.12    5.72
  -4  24 -10   29.45    5.34
  20   4  10   35.85    6.01
 -24  20  10   39.26    5.44
  21 -20 -10    6.38    5.35
  -1  21 -10    4.36    3.83
 -20  -1 -10   -1.92    3.95
  20   1  10   -3.21    4.57
 -21  20  10    3.44    3.34
  18 -20 -10   75.66    6.39
  20  -2  10   83.06    7.33
 -18  20  10   67.31    7.29
   5  15 -10   -1.68    2.49
  20  -5  10   -2.60    3.07
 -15  20  10    1.90    2.84
  12 -20 -10   71.94    5.85
   8  12 -10   75.55    5.23
 -12  20  10   75.05    4.94
  -8 -12  10   69.12    5.66
  20  -8  10   71.50    6.36
 -20  11 -10    3.71    2.28
   9 -20 -10    3.54    2.77
  11   9 -10   -1.03    2.46
  20 -11  10    4.32    3.39
 -11  -9  10    0.13    2.06
  -9  20  10    0.34    2.34
   6 -20 -10   89.58    6.78
  14   6 -10   83.25    6.18
 -20  14 -10   90.68    5.32
  20 -14  10   91.70    7.15
  -6  20  10   92.06    5.16
 -20  17 -10    8.12    2.96
  17   3 -10   -3.40    3.02
   3 -20 -10    2.41    3.51
  20 -17  10    9.49    3.84
  20   0 -10   76.16    6.82
 -20  20 -10   63.81    5.94
   0 -20 -10   74.24    6.69
 -20   0  10   75.48    6.40
  20 -20  10   66.08   11.26
  23  -3 -10    1.73    5.25
  -3 -20 -10   13.44    5.47
  20 -23  10    9.34    5.45
 -23   3  10   14.70    4.93
 -20  26 -10   32.77    5.42
  -6 -20 -10   37.24    7.19
 -26   6  10   27.03    6.31
  20 -26  10   21.65    6.59
  26 -21 -10   -2.17    6.44
  -5  26 -10    1.78    4.70
 -21  -5 -10   10.29    5.97
 -26  21  10  -11.64    6.23
  21   5  10    1.56    5.80
  -2  23 -10    5.18    3.87
 -21  -2 -10    2.46    4.76
  23 -21 -10   -1.84    5.16
  21   2  10   -6.84    5.14
 -23  21  10    5.63    4.10
   1  20 -10   -1.52    3.28
 -21   1 -10    0.18    3.56
 -20  21  10    0.02    3.51
  21  -1  10    0.39    3.89
  17 -21 -10    4.73    4.03
   4  17 -10    2.51    3.86
  21  -4  10    8.12    4.27
   7  14 -10    3.50    2.78
  14 -21 -10    3.85    3.66
 -14  21  10   -2.84    2.39
  21  -7  10   -9.34    3.62
  11 -21 -10    6.65    3.61
  10  11 -10    4.38    3.14
 -11  21  10    2.16    2.30
  21 -10  10   -0.71    3.55
  13   8 -10    3.60    3.28
   8 -21 -10    5.76    3.63
 -21  13 -10    2.63    2.62
  21 -13  10   -2.74    3.11
  -8  21  10   -2.78    2.60
   5 -21 -10    7.47    3.98
  16   5 -10   -1.91    3.49
 -21  16 -10   -0.41    2.74
  21 -16  10   10.04    3.76
 -21  19 -10    6.25    3.39
   2 -21 -10    3.34    3.72
  19   2 -10   -1.84    4.20
  21 -19  10    7.90    4.12
 -19  -2  10   -1.25    4.12
  22  -1 -10    0.21    5.51
  -1 -21 -10    0.34    4.65
 -21  22 -10    5.41    3.52
  21 -22  10   -1.82    4.45
 -22   1  10    5.31    4.54
 -21  25 -10    5.49    4.15
  -4 -21 -10   -2.67    5.55
 -25   4  10   -0.74    4.69
  21 -25  10    5.72    6.19
  25 -22 -10   -4.54    6.09
  -3  25 -10    2.38    4.58
 -22  -3 -10    3.17    5.60
 -25  22  10    0.18    5.11
  22   3  10   -3.59    6.12
 -22   0 -10   42.07    6.28
  22 -22 -10   47.92    6.39
   0  22 -10   42.46    5.87
 -22  22  10   44.97    5.91
  22   0  10   38.99    6.94
   3  19 -10    4.84    3.94
  19 -22 -10    0.05    4.58
 -19  22  10   -3.15    3.00
  22  -3  10    1.22    4.61
  16 -22 -10   46.93    5.94
   6  16 -10   54.58    5.79
  22  -6  10   56.07    9.11
 -16  22  10   48.26    5.40
  13 -22 -10   -0.92    3.72
   9  13 -10    5.74    3.55
 -13  22  10    1.55    3.15
  22  -9  10   -2.38    3.79
  12  10 -10   88.88    6.76
 -22  12 -10   82.13    5.28
  10 -22 -10   87.11    6.77
  22 -12  10   79.62    7.52
 -10  22  10   83.48    5.77
   7 -22 -10    6.38    3.58
 -22  15 -10    8.89    3.38
  22 -15  10   10.24    4.65
 -22  18 -10   59.22    5.69
   4 -22 -10   60.96    6.58
  18   4 -10   74.92    6.49
  22 -18  10   62.05    6.97
   1 -22 -10    1.45    4.57
  21   1 -10    2.14    5.43
 -22  21 -10    1.62    3.82
  22 -21  10    4.74    4.71
 -21  -1  10    3.25    4.79
  -2 -22 -10   39.23    6.80
  24  -2 -10   55.02    7.72
 -22  24 -10   46.30    5.96
  22 -24  10   41.59    7.29
 -24   2  10   39.27    6.46
  -1  24 -10   13.74    5.38
 -23  -1 -10    6.12    5.61
  24 -23 -10   13.72    6.44
 -24  23  10    1.68    4.93
  23   1  10    6.22    6.07
  21 -23 -10    4.76    5.53
 -23   2 -10    9.09    4.86
   2  21 -10    9.62    4.55
 -21  23  10   10.11    4.12
  23  -2  10    8.55    5.56
   5  18 -10   -3.66    3.30
  18 -23 -10   -1.40    4.45
  23  -5  10    1.04    4.18
 -18  23  10    0.04    3.18
  15 -23 -10    5.46    4.78
   8  15 -10   11.95    3.50
 -15  23  10    3.25    3.14
  23  -8  10    8.53    4.25
  12 -23 -10    6.82    5.02
  11  12 -10    4.60    3.90
 -12  23  10    5.11    3.20
  23 -11  10    2.39    4.06
 -23  14 -10   -0.29    3.36
  14   9 -10    0.82    3.83
   9 -23 -10   -1.07    3.73
  23 -14  10    1.68    4.41
  -9  23  10    6.12    3.31
   6 -23 -10    8.66    4.76
 -23  17 -10    4.66    3.60
  17   6 -10   14.29    4.74
  23 -17  10   -3.89    4.70
   3 -23 -10    9.28    4.49
  20   3 -10    2.02    5.33
 -23  20 -10    5.44    3.67
  23 -20  10    1.44    5.20
 -20  -3  10    2.71    4.63
   0 -23 -10    7.87    5.53
 -23  23 -10    9.74    4.72
  23   0 -10    4.29    5.87
  23 -23  10    8.74    5.91
 -23   0  10   13.85    5.51
  -3 -23 -10    9.59    6.86
  23 -26  10    6.84    7.02
   1  23 -10    4.53    5.07
  23 -24 -10  -11.03    5.55
 -24   1 -10   14.06    5.60
 -23  24  10    0.84    4.82
  24  -1  10    0.06    5.89
   4  20 -10   60.22    6.48
  20 -24 -10   64.19    7.87
  24  -4  10   60.30    7.84
 -20  24  10   59.55    6.88
  17 -24 -10   -0.65    4.90
   7  17 -10    1.50    4.21
 -17  24  10   10.12    4.03
  24  -7  10   -2.63    4.72
  14 -24 -10   57.79    7.16
  10  14 -10   68.08    6.79
  24 -10  10   63.83    7.51
 -14  24  10   61.43    6.21
  13  11 -10    4.47    4.23
  11 -24 -10   -1.38    4.60
  24 -13  10   -0.94    4.01
 -11  24  10    1.35    3.51
   8 -24 -10   40.44    5.73
  16   8 -10   56.87    6.20
 -24  16 -10   51.67    5.40
  24 -16  10   50.87    6.71
 -24  19 -10    1.64    3.87
   5 -24 -10    2.90    4.44
  19   5 -10   -6.40    4.95
 -19  -5  10   -4.56    4.86
  24 -19  10  -11.30    4.29
   2 -24 -10   35.53    6.67
  22   2 -10   44.23    7.25
 -24  22 -10   43.95    5.87
 -22  -2  10   43.75    6.52
  24 -22  10   37.42    7.24
  -1 -24 -10   14.07    5.93
  24 -25  10    3.04    6.84
  22 -25 -10    5.63    6.28
 -25   3 -10   -5.80    5.14
   3  22 -10    8.56    5.07
 -22  25  10   -8.26    4.96
  25  -3  10    4.98    6.31
   6  19 -10    6.11    4.30
  19 -25 -10    3.06    5.46
  25  -6  10    7.14    5.80
 -19  25  10    5.25    4.44
  16 -25 -10   -0.64    4.48
   9  16 -10   -2.96    4.33
  25  -9  10   -4.11    4.92
 -16  25  10   -1.00    3.57
  12  13 -10    2.52    4.07
  13 -25 -10   -2.25    5.02
  25 -12  10    2.89    5.10
 -13  25  10    4.66    3.94
  10 -25 -10   -0.22    5.09
  15  10 -10    4.70    4.47
  25 -15  10   -5.95    5.28
   7 -25 -10    3.38    5.18
 -25  18 -10    9.61    4.48
  18   7 -10    7.99    4.82
  25 -18  10    8.00    5.16
  21   4 -10    1.63    6.12
   4 -25 -10   11.09    6.01
 -25  21 -10   -5.94    4.59
  25 -21  10    4.04    6.06
 -21  -4  10    7.33    5.76
   1 -25 -10    0.79    5.65
  25 -24  10    1.00    7.08
 -24  -1  10    2.05    8.89
  21 -26 -10   -4.19    6.47
   5  21 -10   -9.26    5.28
 -21  26  10   -2.36    5.26
  26  -5  10    3.87    5.82
   8  18 -10   34.84    6.26
  18 -26 -10   24.81    6.85
 -18  26  10   33.18    5.72
  26  -8  10   42.98    7.00
  15 -26 -10   -1.14    5.52
  11  15 -10   -5.23    4.61
  26 -11  10    0.02    5.67
 -15  26  10    0.04    4.50
  14  12 -10   38.92    6.29
  12 -26 -10   47.99    7.14
  26 -14  10   26.38    7.08
 -12  26  10   44.43    5.57
   9 -26 -10    9.40    5.14
  17   9 -10    7.21    5.42
  26 -17  10   11.96    6.13
  20   6 -10   39.83    7.02
 -26  20 -10   37.19    5.64
   6 -26 -10   32.15    7.14
  26 -20  10   25.95    7.16
 -20  -6  10   34.30    6.82
   3 -26 -10    4.75    6.77
  26 -23  10   10.32    7.02
  20 -27 -10   -9.70    6.30
   7  20 -10   -4.76    5.81
  27  -7  10    2.96    6.60
  17 -27 -10    6.94    6.58
  10  17 -10   16.30    5.75
 -17  27  10   15.84    5.39
  27 -10  10   12.01    6.03
  14 -27 -10    6.63    5.48
  13  14 -10    7.66    5.40
  27 -13  10   -4.90    5.97
 -14  27  10    0.31    4.64
  16  11 -10   -1.07    5.56
  11 -27 -10    0.71    5.44
  27 -16  10    5.13    5.51
   8 -27 -10    6.93    5.68
  19   8 -10    7.34    6.68
 -19  -8  10    8.49    6.23
  27 -19  10    1.50    6.08
  12  16 -10   37.69    7.25
  16 -28 -10   53.14    8.44
 -16  28  10   37.33    6.29
  28 -12  10   44.86    8.14
  13 -28 -10   11.55    6.61
  15  13 -10    7.11    6.26
  28 -15  10    5.79    6.47
  18  10 -10   21.42    8.45
  10 -28 -10   48.05    7.86
  28 -18  10   37.29    7.80
   0  -1 -11   22.62    1.43
   1   0 -11   23.85    1.45
  -1   1 -11   21.08    2.46
   1   0 -11   25.89    2.71
   1   0 -11   22.69    1.29
  -1   1 -11   24.10    1.39
   0  -1 -11   24.21    2.45
   1  -1  11   22.20    1.52
   1  -1  11   21.34    2.16
   0   1  11   27.10    2.22
   0   1  11   21.86    1.58
  -2   0 -11    3.47    0.63
   2  -2 -11    3.97    0.84
   2  -2 -11    2.70    1.48
  -2   0 -11    5.00    1.60
   0   2 -11    2.55    1.50
   2  -2 -11    3.53    0.80
   0   2 -11    3.56    0.77
   2   0  11    3.49    1.20
   2   0  11    3.89    1.01
   0  -2  11    4.67    0.75
   0  -2  11    4.34    1.29
  -2   3 -11    2.88    0.77
  -1  -2 -11    2.84    1.42
   3  -1 -11    2.23    0.75
  -1  -2 -11    3.02    0.89
  -1  -2 -11    2.66    0.62
   3  -1 -11    0.19    1.44
  -2   3 -11    2.68    1.76
   3  -1 -11    1.87    0.62
  -3   1  11    2.35    1.22
   2  -3  11    3.72    0.88
   2  -3  11    4.59    1.68
   1   2  11    2.08    1.14
   1   2  11    2.40    0.94
  -1   4 -11    1.59    0.75
   4  -3 -11    2.55    0.90
   4  -3 -11    3.39    0.79
  -3  -1 -11    3.06    1.62
   4  -3 -11    5.06    1.68
  -3  -1 -11    1.31    0.84
  -3  -1 -11    2.45    0.48
  -4   3  11    3.31    1.15
   1  -4  11    3.66    1.39
   3   1  11    4.39    1.18
   1  -4  11    2.15    0.77
   1  -3 -11    2.32    1.54
   2   1 -11    2.15    1.67
   1  -3 -11    0.75    1.11
   2   1 -11    1.76    0.39
   2   1 -11    0.94    0.73
  -3   2 -11    1.65    0.63
  -3   2 -11    0.32    1.46
   1  -3 -11    1.12    0.81
   3  -2  11    2.37    0.86
  -1   3  11    2.26    1.18
  -2  -1  11    1.62    1.05
   3  -2  11    1.23    1.32
  -2  -3 -11    2.76    1.52
   5  -2 -11    1.87    1.00
  -3   5 -11   -0.01    0.73
  -2  -3 -11    1.97    0.93
   5  -2 -11    1.44    0.61
   2   3  11    0.79    0.33
   3  -5  11    2.45    1.81
  -5   2  11    2.04    1.07
   2   3  11    0.41    1.01
   2   3  11   -0.83    1.96
   3  -5  11    0.07    0.86
   6  -4 -11    6.15    1.26
  -2   6 -11    6.77    1.14
   6  -4 -11    6.33    1.02
  -4  -2 -11    5.54    1.22
  -4  -2 -11    3.98    1.66
  -6   4  11    8.04    1.38
   4   2  11    6.01    1.49
   2  -6  11    5.60    1.79
  -6   4  11    5.07    1.42
   2  -6  11    6.74    1.10
   4   2  11    6.33    1.38
   1   3 -11   12.63    2.32
   3  -4 -11   15.65    2.12
   3  -4 -11   16.07    1.51
  -4   1 -11   18.99    2.47
  -4   1 -11   17.68    1.05
   1   3 -11   17.68    1.59
   4  -1  11   18.81    1.85
  -1  -3  11   16.34    2.04
  -3   4  11   17.49    1.89
  -3   4  11   14.71    1.43
  -1  -3  11   16.87    0.89
   4   0 -11    0.16    0.80
   0  -4 -11   -0.91    1.33
  -4   4 -11    0.69    0.67
   0  -4 -11    0.26    0.75
  -4   0  11    0.95    1.06
   0   4  11    1.19    0.56
   0   4  11    0.66    1.23
   4  -4  11    1.70    0.96
   4  -4  11    0.98    1.29
   7  -3 -11    2.24    1.07
   7  -3 -11    0.34    0.74
  -4   7 -11   -0.53    0.87
  -3  -4 -11    0.20    1.37
  -3  -4 -11    0.70    0.98
   3   4  11    0.57    1.17
  -7   3  11    2.09    1.13
   4  -7  11    1.67    1.61
   3   4  11    1.68    1.26
   4  -7  11    0.59    0.96
   8  -5 -11   28.77    2.43
  -5  -3 -11   33.26    2.70
   8  -5 -11   29.98    2.24
  -5  -3 -11   35.65    2.66
  -3   8 -11   32.44    2.15
  -8   5  11   30.00    2.48
   3  -8  11   30.05    2.11
  -8   5  11   29.15    2.30
   5   3  11   31.11    2.62
   3  -8  11   27.53    3.32
   5   3  11   31.25    2.67
   5  -5 -11    0.85    1.66
  -5   0 -11    0.47    0.37
   5  -5 -11    0.85    1.01
   5  -5 -11    0.78    0.86
   0   5 -11    0.56    0.80
  -5   0 -11   -0.30    1.39
   0  -5  11    1.16    0.66
  -5   5  11    1.43    0.85
   5   0  11    0.80    1.09
  -5   5  11    0.71    1.11
   5   0  11   -1.02    1.09
   0  -5  11    1.68    1.49
   2  -5 -11   28.97    2.82
  -5   3 -11   26.45    1.39
  -5   3 -11   27.42    2.77
   2  -5 -11   24.06    1.83
   3   2 -11   25.74    1.94
   5  -3  11   25.88    2.45
  -2   5  11   25.44    1.53
  -3  -2  11   21.08    2.09
   5  -3  11   25.06    2.05
   6  -1 -11    9.95    0.75
   6  -1 -11    9.04    1.41
  -1  -5 -11    7.95    1.34
  -5   6 -11    8.96    1.18
  -1  -5 -11   11.44    2.05
  -6   1  11    9.80    1.66
   5  -6  11    9.64    1.45
   5  -6  11    8.38    1.94
   9  -4 -11    1.04    1.18
   9  -4 -11   -0.61    0.96
  -4  -5 -11    2.13    1.22
  -4  -5 -11    2.04    1.66
  -5   9 -11    0.79    0.99
  -9   4  11    2.99    1.27
   5  -9  11    1.99    1.15
   4   5  11    0.29    1.43
   4   5  11   -1.65    1.22
   5  -9  11   -0.56    1.72
  -9   4  11    0.46    1.13
  -6  -4 -11   18.10    2.44
  10  -6 -11   14.85    1.92
  -6  -4 -11   12.78    2.08
  10  -6 -11   16.52    2.42
  -4  10 -11   16.71    1.90
   4 -10  11   13.98    2.66
 -10   6  11   14.40    2.10
   6   4  11   17.42    2.38
   4 -10  11   18.40    1.95
 -10   6  11   17.03    2.20
  -1   7 -11    1.81    1.03
  -6  -1 -11    2.12    1.47
   7  -6 -11    1.71    1.11
   7  -6 -11    2.36    1.03
   6   1  11    0.41    1.16
  -7   6  11    0.95    1.11
   1  -7  11    1.42    0.86
   1  -7  11    4.56    1.71
   6   1  11    2.53    1.49
  -7   6  11    2.60    1.34
   4  -6 -11    6.40    1.78
   4  -6 -11    6.03    1.21
  -6   2 -11    6.58    1.87
   2   4 -11    6.47    1.27
  -6   2 -11    6.41    0.75
   6  -2  11    6.06    1.61
  -2  -4  11    4.19    1.35
   6  -2  11    6.66    1.46
  -4   6  11    5.36    1.07
  -4   6  11    7.46    1.58
   5   1 -11    6.54    1.27
  -6   5 -11    5.65    0.98
   1  -6 -11   10.31    1.95
   1  -6 -11    8.20    1.39
  -1   6  11    3.87    1.37
  -1   6  11    4.50    0.79
   6  -5  11    4.08    1.21
  -5  -1  11    3.11    1.26
   6  -5  11    5.17    1.87
  -6   8 -11    0.69    0.92
  -2  -6 -11    2.76    1.69
  -2  -6 -11    1.85    1.28
   8  -2 -11    1.08    1.12
   8  -2 -11    0.47    0.73
   6  -8  11    2.06    1.26
   2   6  11    0.96    1.34
   6  -8  11   -2.97    1.73
  -8   2  11    1.09    1.03
  -5  -6 -11    5.35    2.02
  -6  11 -11    8.73    2.72
  -5  -6 -11    5.89    1.88
  11  -5 -11    5.58    1.43
  11  -5 -11    7.06    1.93
   5   6  11    4.73    2.79
   5   6  11    5.15    1.93
   6 -11  11   10.07    1.99
   6 -11  11    6.15    1.63
   6 -11  11    4.80    2.34
 -11   5  11    3.59    1.39
 -11   5  11    6.74    1.78
  -7  -5 -11   47.25    3.71
  12  -7 -11   48.66    3.11
  -5  12 -11   48.23    3.01
  -7  -5 -11   53.60    3.71
  12  -7 -11   49.62    3.69
   7   5  11   46.98    3.87
   5 -12  11   48.12    4.03
   5 -12  11   45.70    3.07
 -12   7  11   49.49    3.18
 -12   7  11   43.14    3.41
  -2   9 -11    8.11    1.54
   9  -7 -11    5.12    1.79
  -7  -2 -11    4.17    1.79
   9  -7 -11    5.90    1.42
   2  -9  11    7.59    1.30
   2  -9  11    6.04    2.27
  -9   7  11    7.33    1.48
   7   2  11    6.58    1.84
  -9   7  11    7.66    1.66
  -7   1 -11   24.74    1.11
   1   6 -11   24.51    1.97
  -7   1 -11   26.49    2.87
   6  -7 -11   23.61    1.99
   7  -1  11   25.33    2.32
  -6   7  11   27.32    2.57
  -1  -6  11   24.21    2.62
   7  -1  11   26.06    2.56
  -6   7  11   24.99    1.86
  -1  -6  11   24.33    1.41
   4   3 -11    8.08    1.46
  -7   4 -11    7.87    1.00
   3  -7 -11    7.85    1.93
   3  -7 -11    5.94    1.35
  -3   7  11   10.02    1.15
   7  -4  11   10.62    2.02
  -4  -3  11    8.20    1.65
   7  -4  11   10.06    1.56
  -3   7  11    9.43    1.82
   0  -7 -11   24.08    3.07
  -7   7 -11   25.49    1.84
   7   0 -11   22.42    2.11
   0  -7 -11   25.29    2.19
   7  -7  11   28.47    2.36
  -7   0  11   24.91    2.20
   0   7  11   25.14    1.35
   7  -7  11   28.58    3.36
  10  -3 -11   39.82    2.19
  -3  -7 -11   36.59    2.88
  -3  -7 -11   38.46    3.09
  -7  10 -11   37.05    2.53
   7 -10  11   33.30    2.78
   7 -10  11   36.73    3.81
   3   7  11   35.02    3.03
 -10   3  11   39.42    2.65
  13  -6 -11    2.77    1.77
  -7  13 -11    1.21    1.38
  -6  -7 -11   -0.28    1.75
  13  -6 -11    1.89    1.55
  -6  -7 -11    0.57    2.14
   6   7  11   -1.20    1.72
 -13   6  11    2.22    1.65
   7 -13  11    1.52    1.70
  14  -8 -11   -1.46    1.93
  14  -8 -11    1.59    1.88
  -8  -6 -11   -0.18    1.68
  -6  14 -11    0.32    1.57
   6 -14  11   -1.25    1.66
 -14   8  11   -0.03    1.59
   8   6  11   -3.17    1.72
 -14   8  11    2.16    1.57
  -8  -3 -11    2.53    1.81
  -8  -3 -11    1.52    1.47
  11  -8 -11    2.40    1.49
  -3  11 -11    4.35    1.54
  11  -8 -11    2.33    1.92
   3 -11  11    6.50    1.80
   8   3  11    3.90    1.74
   3 -11  11    4.47    1.38
   3 -11  11    4.31    2.44
 -11   8  11    2.79    1.61
 -11   8  11    3.22    1.53
   8   3  11    6.36    1.94
   8  -8 -11    0.24    1.15
   0   8 -11    1.65    1.06
  -8   0 -11    1.41    1.65
  -8   8  11    0.26    1.41
  -8   8  11    1.07    1.03
   8   0  11    0.43    1.28
   0  -8  11    3.20    0.98
   0  -8  11    1.86    1.78
   5  -8 -11   -0.07    2.02
   3   5 -11    2.28    1.08
   5  -8 -11    1.84    1.22
   8  -3  11    3.17    1.68
  -3  -5  11    1.52    1.43
   8  -3  11    1.02    1.31
  -5   8  11    1.93    0.99
  -5   8  11    2.78    1.35
  -8   6 -11    1.38    0.84
   6   2 -11    1.00    1.08
   2  -8 -11    3.61    1.94
   2  -8 -11   -1.59    0.94
  -2   8  11    1.30    0.79
  -2   8  11    1.25    1.32
  -6  -2  11   -0.67    1.09
   8  -6  11    0.84    1.32
   8  -6  11    0.73    1.85
   9  -1 -11    6.90    1.59
  -8   9 -11    6.34    1.33
  -1  -8 -11    5.28    2.22
  -1  -8 -11    8.33    1.66
   1   8  11    7.26    0.82
   1   8  11    6.41    1.81
   8  -9  11    4.19    2.49
   8  -9  11    6.78    2.03
  -9   1  11    7.59    1.46
  -4  -8 -11    3.03    2.02
  12  -4 -11    3.22    1.41
  12  -4 -11    5.11    1.72
  -4  -8 -11   -0.48    1.44
   8 -12  11    2.30    1.57
 -12   4  11    2.43    1.42
 -12   4  11    2.77    1.37
   8 -12  11    0.98    2.77
  -7  -8 -11   13.69    2.68
  15  -7 -11   12.76    2.70
  -8  15 -11   12.28    2.18
  15  -7 -11   14.55    3.04
 -15   7  11   15.88    2.20
 -15   7  11   14.83    2.76
  16  -9 -11   44.34    3.72
  -9  -7 -11   37.56    3.80
  -7  16 -11   38.23    3.64
 -16   9  11   48.33    3.46
   7 -16  11   38.04    4.03
   9   7  11   39.18    4.05
 -16   9  11   47.97    3.82
  -9  -4 -11    3.09    1.73
  -4  13 -11    5.79    1.61
  -9  -4 -11    4.40    2.15
  13  -9 -11    3.59    1.83
   4 -13  11    6.65    3.16
 -13   9  11    4.49    1.60
   9   4  11    2.36    2.17
 -13   9  11    5.80    1.76
  -9  -1 -11   53.35    3.82
  10  -9 -11   52.51    3.17
  -1  10 -11   45.06    3.14
   1 -10  11   48.24    4.09
   1 -10  11   48.56    2.67
   9   1  11   50.77    3.72
   9   1  11   47.25    3.41
 -10   9  11   45.94    3.38
 -10   9  11   48.58    3.19
   2   7 -11    2.48    1.14
  -9   2 -11    2.12    0.67
  -9   2 -11    5.35    1.88
   7  -9 -11    1.97    1.15
   9  -2  11    1.85    1.51
  -2  -7  11    1.13    1.73
  -2  -7  11    3.01    0.82
  -7   9  11    0.23    0.98
   9  -2  11    1.64    1.69
  -7   9  11   -0.37    1.43
  -9   5 -11    7.23    1.08
   5   4 -11    8.38    1.50
   4  -9 -11    3.55    2.22
   9  -5  11    8.42    1.74
  -5  -4  11    7.73    1.70
  -4   9  11    6.60    1.62
  -4   9  11    5.50    1.13
   9  -5  11   10.27    2.24
  -9   8 -11   11.74    1.52
   8   1 -11   12.92    1.91
   1  -9 -11   10.58    1.82
   1  -9 -11   11.17    2.36
   9  -8  11   11.34    2.72
  -1   9  11   13.69    1.38
  -8  -1  11   13.42    1.83
  -1   9  11   13.55    2.02
   9  -8  11   13.64    2.05
  11  -2 -11   11.97    1.50
  -2  -9 -11    7.03    2.13
  11  -2 -11    9.54    1.91
  -2  -9 -11   10.80    2.48
  -9  11 -11    7.41    1.55
   9 -11  11   11.33    3.49
   2   9  11    8.77    2.14
 -11   2  11    7.00    1.55
   9 -11  11   10.34    1.93
   2   9  11    9.97    0.98
  14  -5 -11   11.92    2.09
  14  -5 -11   10.75    2.74
  -5  -9 -11   13.69    2.43
  -9  14 -11   14.55    2.13
 -14   5  11   15.05    2.52
 -14   5  11   10.60    1.87
   9 -14  11   10.70    2.61
  17  -8 -11   -0.50    2.12
  17  -8 -11    0.84    2.85
  -8  -9 -11   -0.21    2.14
  -9  17 -11   -1.46    1.67
 -17   8  11    1.57    2.42
   9 -17  11    0.03    2.30
 -17   8  11    0.23    1.77
  -8  18 -11   -1.96    1.83
 -10  -8 -11   -0.14    2.24
 -18  10  11   -1.47    1.86
 -18  10  11    5.33    2.32
   8 -18  11    5.14    2.68
  15 -10 -11    2.94    2.08
 -10  -5 -11    1.18    2.12
  -5  15 -11    1.25    1.61
  10   5  11    5.79    2.42
   5 -15  11    2.74    1.95
 -15  10  11    5.99    2.02
 -15  10  11    3.23    1.98
  12 -10 -11    2.43    1.78
  -2  12 -11    3.24    1.41
 -10  -2 -11    2.07    2.11
   2 -12  11    5.03    1.51
   2 -12  11    1.37    2.44
 -12  10  11    2.90    1.79
 -12  10  11    8.79    1.99
 -10   1 -11   -0.34    0.64
   9 -10 -11    1.55    1.41
   1   9 -11   -0.65    1.15
 -10   1 -11    1.57    1.91
  -9  10  11    1.31    1.43
  -1  -9  11    1.17    0.99
  -9  10  11    1.17    1.64
  -1  -9  11   -0.98    1.97
  10  -1  11    5.28    1.99
  10  -1  11   -0.08    1.39
 -10   4 -11    1.11    0.82
   6 -10 -11    2.52    1.40
  10  -4  11   -1.49    1.71
  -4  -6  11    1.04    1.52
  -6  10  11    3.57    1.75
  -6  10  11    1.91    1.11
  -4  -6  11    1.42    0.64
  10  -4  11    2.69    1.43
   7   3 -11   19.38    2.66
 -10   7 -11   17.39    1.67
   3 -10 -11   16.52    2.13
   3 -10 -11   15.33    2.67
  -3  10  11   19.42    1.67
  10  -7  11   20.73    2.60
  -3  10  11   23.55    3.22
  10  -7  11   23.49    3.11
  -7  -3  11   18.28    2.24
   0 -10 -11    2.57    2.35
 -10  10 -11    2.25    1.14
  10   0 -11    1.68    1.38
   0 -10 -11    1.24    1.72
  10 -10  11    0.13    2.45
 -10   0  11    0.06    1.11
  10 -10  11    0.48    1.48
   0  10  11    0.19    0.85
  13  -3 -11    2.97    2.09
 -10  13 -11    6.70    1.74
  -3 -10 -11    2.31    1.65
  13  -3 -11    6.48    1.65
  10 -13  11    4.42    2.89
 -13   3  11    4.47    1.53
 -13   3  11    3.02    1.87
  10 -13  11    4.06    2.20
  16  -6 -11    3.92    2.02
 -10  16 -11    1.42    1.65
  16  -6 -11    4.50    2.47
  -6 -10 -11   -0.01    2.27
 -16   6  11   -0.10    1.50
  10 -16  11    1.57    2.31
 -16   6  11   -1.20    1.80
  19  -9 -11    6.31    2.87
 -10  19 -11   10.25    2.81
  -9 -10 -11    6.19    2.85
 -19   9  11   14.61    2.37
 -19   9  11    8.48    2.82
  10 -19  11   12.32    3.09
  20 -11 -11   30.75    4.02
  -9  20 -11   33.99    4.14
 -11  -9 -11   31.42    4.33
   9 -20  11   29.41    4.18
 -20  11  11   29.50    3.67
 -20  11  11   33.61    4.39
 -11  -6 -11    8.63    2.83
  -6  17 -11    3.27    2.02
 -17  11  11    6.37    2.21
  11   6  11    0.59    2.69
 -17  11  11    9.20    2.59
   6 -17  11    5.47    2.30
  14 -11 -11   75.14    4.36
 -11  -3 -11   57.00    5.41
  -3  14 -11   67.57    3.91
 -11  -3 -11   61.69    4.19
 -14  11  11   61.46    4.20
  11   3  11   66.13    4.61
 -14  11  11   67.74    4.13
   3 -14  11   60.57    3.85
  11 -11 -11   -0.42    1.58
 -11   0 -11   -2.44    1.97
   0  11 -11   -1.28    1.29
   0 -11  11    2.30    2.36
   0 -11  11   -1.39    1.32
 -11  11  11   -0.76    1.66
 -11  11  11    1.30    1.50
 -11   3 -11   20.18    1.52
   8 -11 -11   19.15    2.53
  -3  -8  11   18.71    1.66
  11  -3  11   20.28    2.67
  -8  11  11   19.57    2.53
  -3  -8  11   24.30    3.11
  11  -3  11   19.47    2.66
  -8  11  11   21.61    2.09
   5 -11 -11    8.56    1.87
   6   5 -11    5.02    1.67
 -11   6 -11    7.39    1.20
   5 -11 -11    8.11    2.47
  -6  -5  11    8.79    1.84
  -5  11  11    7.77    1.95
  11  -6  11    5.67    1.77
  11  -6  11    8.72    2.29
 -11   9 -11   15.69    1.91
   2 -11 -11   13.28    2.89
   2 -11 -11   13.94    2.24
   9   2 -11   13.01    2.23
  11  -9  11   15.81    2.58
  -9  -2  11   18.68    2.18
  -2  11  11   14.12    2.60
  -2  11  11   15.33    1.79
 -11  12 -11   25.98    2.96
  12  -1 -11   35.95    3.43
  -1 -11 -11   29.44    3.03
   1  11  11   26.81    2.02
 -12   1  11   27.08    2.40
  11 -12  11   31.23    4.76
  11 -12  11   33.37    6.01
 -11  15 -11    5.85    1.89
  -4 -11 -11    3.42    1.97
  15  -4 -11    7.75    2.35
 -15   4  11    4.64    1.50
 -15   4  11    4.38    2.02
  11 -15  11    6.11    2.40
 -11  18 -11   28.52    3.49
  -7 -11 -11   26.32    4.07
  18  -7 -11   31.54    4.53
 -18   7  11   29.06    3.13
 -18   7  11   28.48    3.91
  11 -18  11   33.76    4.41
 -10 -11 -11    0.38    3.61
 -11  21 -11    4.76    2.98
 -21  10  11    4.71    3.35
  11 -21  11   -4.42    3.15
 -10  22 -11    0.73    3.16
 -12 -10 -11    8.70    3.72
 -22  12  11   -3.52    2.81
  10 -22  11    0.29    3.57
 -12  -7 -11    0.64    2.49
  19 -12 -11    0.32    2.84
  -7  19 -11    0.23    2.19
   7 -19  11   -2.90    2.43
  12   7  11   -2.25    2.91
 -19  12  11    2.48    2.44
 -19  12  11    4.25    2.81
 -12  -4 -11    0.12    2.36
  -4  16 -11    2.76    1.83
  16 -12 -11   -1.15    3.62
 -16  12  11    1.30    2.18
  12   4  11    1.02    2.57
 -16  12  11    0.93    2.06
   4 -16  11    3.05    2.05
 -12  -1 -11   15.32    2.63
  13 -12 -11    8.88    2.37
  -1  13 -11    8.19    2.20
 -13  12  11    8.15    2.42
   1 -13  11   12.28    5.55
  12   1  11    7.40    2.38
   1 -13  11    9.55    1.98
 -13  12  11    8.61    2.03
   2  10 -11   12.77    2.04
  10 -12 -11   12.40    2.33
 -12   2 -11   12.43    1.26
 -10  12  11   13.59    2.01
 -10  12  11   12.40    2.21
  -2 -10  11   12.72    1.70
  -2 -10  11   10.75    2.75
 -12   5 -11   12.81    1.45
   5   7 -11   14.34    2.04
   7 -12 -11   11.62    2.09
  -7  12  11   17.40    2.59
  -5  -7  11   11.31    2.20
  -7  12  11   15.20    1.91
   8   4 -11    3.58    1.51
   4 -12 -11    1.00    2.87
   4 -12 -11    4.87    2.19
 -12   8 -11    5.69    1.24
  -8  -4  11    4.07    1.54
  -4  12  11    4.35    2.32
  12  -8  11    2.15    2.87
  -4  12  11    5.64    2.38
  12  -8  11    5.25    2.23
 -12  11 -11   29.22    2.61
  11   1 -11   36.20    3.15
   1 -12 -11   36.90    3.50
  -1  12  11   33.31    2.17
 -11  -1  11   28.22    2.48
  12 -11  11   36.34    3.71
  14  -2 -11   -0.55    1.87
  -2 -12 -11   -2.09    1.77
 -12  14 -11   -0.57    1.64
 -14   2  11    2.57    1.84
  12 -14  11    0.21    1.85
 -14   2  11   -0.56    1.25
 -12  17 -11   15.31    2.69
  17  -5 -11   11.63    3.25
  -5 -12 -11   11.74    2.81
 -17   5  11   19.99    3.31
 -17   5  11   13.20    1.99
  12 -17  11   17.14    3.25
 -12  20 -11   -5.85    2.15
  -8 -12 -11    3.44    2.80
 -20   8  11    1.52    2.10
  12 -20  11    1.57    2.97
 -20   8  11   -2.93    3.00
 -12  23 -11   15.49    4.12
 -11 -12 -11   13.36    4.76
  12 -23  11   13.71    4.41
 -23  11  11   14.75    4.01
 -13 -11 -11   39.89    6.15
 -11  24 -11   44.11    5.53
 -24  13  11   42.84    5.24
  11 -24  11   48.16    6.33
 -13  -8 -11   12.15    3.46
  -8  21 -11    7.50    5.25
  21 -13 -11   10.74    3.83
 -21  13  11   15.03    5.14
   8 -21  11   13.45    3.55
 -13  -5 -11   33.17    4.02
  -5  18 -11   42.54    3.85
  18 -13 -11   38.73    4.70
   5 -18  11   39.29    4.44
 -18  13  11   49.01    4.31
 -18  13  11   40.78    4.12
  13   5  11   40.93    4.60
 -13  -2 -11    6.11    2.25
  -2  15 -11    2.09    1.81
  15 -13 -11    3.43    2.29
  13   2  11    3.45    2.25
   2 -15  11    5.95    2.11
 -15  13  11    8.02    2.38
 -15  13  11    3.16    2.29
   1  12 -11   37.44    3.05
  12 -13 -11   34.98    3.61
  13  -1  11   31.91    3.52
 -12  13  11   33.25    3.81
  -1 -12  11   34.70    2.76
  -1 -12  11   33.78    4.01
 -12  13  11   33.54    3.33
   4   9 -11   -0.27    1.35
 -13   4 -11    1.47    1.06
  -9  13  11    3.57    1.87
  -9  13  11    0.47    1.55
  -4  -9  11    2.81    2.76
  13  -4  11    0.68    1.89
   7   6 -11   15.74    2.30
   6 -13 -11   21.14    2.82
 -13   7 -11   19.03    2.05
  13  -7  11   16.33    4.40
  -6  13  11   22.30    3.04
  -6  13  11   19.35    2.16
  10   3 -11   15.11    2.30
   3 -13 -11   11.23    2.33
 -13  10 -11   12.46    1.88
 -10  -3  11   15.00    1.92
  -3  13  11   10.88    2.53
  13 -10  11    6.58    2.50
  -3  13  11   11.95    1.70
   0 -13 -11    5.85    2.12
 -13  13 -11    2.57    1.48
  13   0 -11    2.75    1.99
 -13   0  11    5.02    1.44
  13 -13  11    1.86    2.02
 -13  16 -11   46.89    3.49
  16  -3 -11   45.28    4.77
  -3 -13 -11   53.60    4.52
 -16   3  11   47.80    2.91
 -16   3  11   51.78    4.61
  13 -16  11   48.03    4.58
  19  -6 -11   -1.26    3.38
  -6 -13 -11   -0.54    2.90
 -13  19 -11    3.23    2.28
 -19   6  11   -2.42    1.70
  13 -19  11    1.14    3.02
 -19   6  11    2.38    2.97
  -9 -13 -11   33.22    4.91
 -13  22 -11   39.66    4.66
 -22   9  11   44.91    5.08
  13 -22  11   45.53    5.94
 -13  25 -11   -2.33    3.64
 -12 -13 -11    0.68    4.62
  13 -25  11   -4.60    4.82
 -25  12  11    0.44    4.40
 -14 -12 -11   -7.16    4.90
 -12  26 -11    4.29    4.47
 -26  14  11   -5.51    3.98
  12 -26  11    7.93    5.37
 -14  -9 -11   -4.85    3.83
  -9  23 -11    2.21    3.49
 -23  14  11    9.07    3.97
   9 -23  11    9.13    4.16
  -6  20 -11   -1.94    2.67
 -14  -6 -11    1.12    3.23
 -20  14  11   -0.95    2.65
  14   6  11    0.80    3.50
   6 -20  11   -0.94    3.05
  17 -14 -11   14.75    3.09
  -3  17 -11   11.20    2.54
 -14  -3 -11   10.54    2.85
  14   3  11    9.65    2.98
 -17  14  11   12.43    2.95
 -17  14  11   10.70    2.68
   3 -17  11    9.10    3.31
   0  14 -11    2.05    1.83
  14 -14 -11    3.11    2.09
   0 -14  11   -2.93    3.22
  14   0  11   -3.13    2.21
   0 -14  11    3.96    1.89
 -14  14  11    0.09    2.21
 -14  14  11    1.98    1.79
   3  11 -11    4.53    1.80
  11 -14 -11    8.64    2.40
  -3 -11  11   -0.57    2.44
  14  -3  11    4.66    2.03
 -11  14  11    6.33    1.98
 -11  14  11    5.59    2.24
   6   8 -11    2.63    1.63
 -14   6 -11   -0.12    2.20
   8 -14 -11   -0.73    1.88
  -8  14  11    4.10    1.63
  -6  -8  11    1.79    1.97
  14  -6  11   -1.34    1.73
  -8  14  11   -0.61    2.00
   9   5 -11   28.35    2.92
 -14   9 -11   20.92    2.28
   5 -14 -11   28.35    3.33
  14  -9  11   23.85    3.16
  -5  14  11   22.70    3.10
  -5  14  11   23.15    2.32
  -9  -5  11   23.89    2.91
   2 -14 -11    0.59    1.88
  12   2 -11    2.63    1.93
 -14  12 -11    1.52    1.59
  14 -12  11   -2.08    2.07
 -12  -2  11    0.43    1.33
  -2  14  11    1.44    1.38
  -1 -14 -11   32.71    4.18
  15  -1 -11   35.11    4.21
 -14  15 -11   28.69    3.27
 -15   1  11   34.62    2.48
  18  -4 -11   -1.46    3.20
  -4 -14 -11    3.68    2.86
 -14  18 -11    5.05    2.26
 -18   4  11    3.16    1.47
  14 -18  11    1.56    2.52
 -18   4  11    2.19    3.02
 -14  21 -11   25.83    5.55
  -7 -14 -11   26.46    4.67
  14 -21  11   14.80    4.08
 -10 -14 -11    5.37    4.65
 -14  24 -11    4.28    3.90
  14 -24  11   -1.14    4.55
 -24  10  11    7.17    4.13
 -14  27 -11   10.42    5.40
 -13 -14 -11   18.94    6.46
 -27  13  11   11.31    5.65
  14 -27  11   18.52    6.15
 -15 -13 -11   36.51    6.97
  13 -28  11   42.74    7.88
 -15 -10 -11   -0.57    4.84
 -10  25 -11   -2.01    3.70
 -25  15  11    0.56    4.12
  10 -25  11    3.74    4.89
  -7  22 -11   40.65    5.09
  22 -15 -11   31.88    5.12
 -15  -7 -11   40.00    6.05
   7 -22  11   43.32    5.60
 -22  15  11   38.33    4.89
  15   7  11   40.15    6.26
 -15  -4 -11    1.71    2.80
  -4  19 -11    0.32    2.50
  19 -15 -11    1.76    3.34
 -19  15  11    2.76    2.71
  15   4  11   -2.48    2.77
 -19  15  11   -1.86    2.81
   4 -19  11   -3.03    2.70
  16 -15 -11   46.24    4.69
  -1  16 -11   41.96    3.94
   1 -16  11   49.88    5.77
 -16  15  11   51.08    4.76
   1 -16  11   47.27    4.10
 -16  15  11   47.81    4.15
  15   1  11   40.60    5.11
  13 -15 -11    1.13    2.35
   2  13 -11    2.95    1.97
 -13  15  11    0.03    2.59
 -13  15  11    0.17    1.96
  -2 -13  11   -0.12    2.98
  15  -2  11    0.56    2.46
  10 -15 -11   49.35    4.15
 -15   5 -11   44.06    2.70
   5  10 -11   44.18    3.36
  -5 -10  11   37.91    4.27
 -10  15  11   37.67    3.26
 -10  15  11   45.42    4.49
  15  -5  11   33.87    4.17
 -15   8 -11    3.94    1.57
   7 -15 -11    7.11    2.26
   8   7 -11    6.90    1.98
  -8  -7  11    6.15    2.13
  15  -8  11    4.81    2.42
  -7  15  11   10.26    2.80
  -7  15  11    8.72    1.88
  -8  -7  11   11.83    2.20
  11   4 -11   10.03    2.60
   4 -15 -11   11.06    2.47
 -15  11 -11   14.07    2.14
 -11  -4  11   15.41    1.96
  15 -11  11   11.93    2.63
  -4  15  11   13.85    2.04
 -15  14 -11   12.25    2.41
   1 -15 -11    5.95    2.74
  14   1 -11   10.38    2.56
 -14  -1  11   10.15    1.50
  15 -14  11    5.13    2.38
  -2 -15 -11   -1.01    2.63
  17  -2 -11   -4.52    2.89
 -15  17 -11   -2.69    1.87
 -17   2  11    1.10    1.21
 -17   2  11   -0.79    2.63
  15 -17  11    2.36    2.56
  -5 -15 -11   30.68    4.37
 -15  20 -11   36.69    4.26
  20  -5 -11   28.70    4.75
 -20   5  11   33.57    2.55
 -20   5  11   33.06    4.50
  15 -20  11   31.24    4.73
  -8 -15 -11   -6.09    3.39
 -15  23 -11    0.14    3.01
  15 -23  11    5.93    5.10
 -23   8  11    2.52    3.39
 -15  26 -11   14.27    4.96
 -11 -15 -11   16.35    5.74
 -26  11  11   22.07    5.58
  15 -26  11    3.45    5.72
 -11  27 -11    7.11    4.56
 -16 -11 -11   -4.15    4.76
 -27  16  11   -0.41    5.30
 -16  -8 -11    7.42    4.51
  -8  24 -11   -0.24    3.94
   8 -24  11    0.70    4.78
 -24  16  11    4.65    3.91
  -5  21 -11    7.48    3.05
 -16  -5 -11   -0.64    3.12
  21 -16 -11    6.55    4.07
   5 -21  11    0.29    3.38
  16   5  11    4.99    3.58
 -21  16  11    5.37    3.18
 -16  -2 -11    6.09    2.73
  18 -16 -11    2.05    3.13
  -2  18 -11    0.99    2.75
 -18  16  11    1.51    2.45
 -18  16  11    0.46    2.99
  16   2  11   -2.07    2.83
   2 -18  11   -1.68    4.50
   1  15 -11   10.31    2.53
  15 -16 -11    3.93    2.59
  -1 -15  11    6.01    3.73
 -15  16  11    9.17    2.72
  16  -1  11    8.51    2.89
 -15  16  11   10.68    2.66
   4  12 -11    3.54    1.99
  12 -16 -11    3.26    2.44
 -12  16  11   -0.63    1.74
  16  -4  11    2.46    2.36
  -4 -12  11   -2.74    2.74
 -12  16  11   -0.94    2.34
   9 -16 -11   22.33    3.27
   7   9 -11   25.94    3.11
 -16   7 -11   27.38    2.59
  -9  16  11   25.22    3.54
  16  -7  11   26.68    3.79
  -7  -9  11   25.53    3.24
  -9  16  11   25.50    2.94
   6 -16 -11   -0.09    2.33
 -16  10 -11    0.35    1.72
  10   6 -11    2.51    1.91
 -10  -6  11   -0.06    1.42
 -10  -6  11   -0.01    1.71
  16 -10  11    0.01    2.53
  13   3 -11   16.76    3.01
   3 -16 -11   17.86    3.39
 -16  13 -11   22.02    2.53
 -13  -3  11   10.70    1.65
  16 -13  11   18.42    3.16
  -3  16  11   14.35    2.22
   0 -16 -11    2.00    2.82
  16   0 -11   -1.97    2.75
 -16  16 -11    2.50    1.99
  16 -16  11    9.18    3.14
 -16   0  11   -0.07    1.09
  -3 -16 -11   12.31    3.88
 -16  19 -11    9.11    2.96
  19  -3 -11   10.04    3.95
  16 -19  11    8.04    3.69
 -19   3  11    9.93    3.56
  -6 -16 -11    3.70    5.06
 -16  22 -11    3.18    3.54
  22  -6 -11    6.61    4.45
 -22   6  11    3.15    3.34
  16 -22  11    4.45    4.25
  -9 -16 -11   15.78    5.20
 -16  25 -11    0.71    4.27
  16 -25  11   10.14    5.37
 -25   9  11    2.86    4.65
 -12 -16 -11    0.15    6.12
  16 -28  11    0.23    6.79
  -9  26 -11   29.94    5.40
 -17  -9 -11   26.46    5.57
 -26  17  11   41.69    6.37
  23 -17 -11    2.75    4.79
  -6  23 -11    8.84    3.46
 -17  -6 -11    2.06    3.82
  17   6  11   12.21    4.39
 -23  17  11    9.09    4.26
  20 -17 -11   49.09    6.10
 -17  -3 -11   48.70    6.15
  -3  20 -11   43.00    4.93
 -20  17  11   43.77    6.07
  17   3  11   53.20    6.52
  17 -17 -11    6.01    3.37
   0  17 -11    6.95    2.63
 -17  17  11    4.16    2.54
   0 -17  11   -2.30    4.21
  17   0  11   -0.69    3.17
 -17  17  11    7.59    3.17
   3  14 -11   33.25    3.81
  14 -17 -11   36.45    4.71
 -14  17  11   32.49    3.69
  -3 -14  11   37.02    4.65
  17  -3  11   28.01    4.36
 -14  17  11   28.10    4.14
   6  11 -11    0.76    2.00
  11 -17 -11   -0.18    2.28
 -11  17  11   -1.64    1.97
  -6 -11  11   -0.67    2.55
  17  -6  11    1.98    2.42
 -11  17  11   -4.20    2.59
   9   8 -11   34.04    3.53
   8 -17 -11   35.20    4.34
  -8  17  11   34.17    3.21
  17  -9  11   30.87    3.95
  -9  -8  11   28.83    3.65
 -17  12 -11    9.57    2.12
  12   5 -11    6.85    2.29
   5 -17 -11    6.99    2.88
  -5  17  11    6.94    2.08
 -12  -5  11    7.61    1.73
  17 -12  11    6.11    2.71
 -12  -5  11    5.82    1.51
   2 -17 -11   15.19    3.23
  15   2 -11   15.11    3.12
 -17  15 -11   18.35    2.87
 -15  -2  11   15.72    1.58
 -15  -2  11   19.92    1.55
  17 -15  11   14.45    3.76
  -1 -17 -11   37.86    4.89
 -17  18 -11   29.15    3.69
  18  -1 -11   31.46    4.76
 -18   1  11   31.30    4.30
  17 -18  11   32.70    4.57
  21  -4 -11   19.51    4.96
 -17  21 -11   14.25    3.54
  -4 -17 -11   17.22    4.31
  17 -21  11   14.80    4.10
 -21   4  11   14.52    3.87
 -17  24 -11   21.97    4.59
  -7 -17 -11   22.58    5.69
 -24   7  11   12.17    4.10
  17 -24  11   21.59    5.33
 -17  27 -11   -0.71    4.47
 -10 -17 -11   -8.65    5.60
 -27  10  11    6.88    5.52
  17 -27  11   -5.44    5.98
 -18  -7 -11    4.52    4.57
  -7  25 -11    5.88    4.48
 -25  18  11   -0.20    4.50
  22 -18 -11   -1.86    4.29
  -4  22 -11   -0.59    3.46
 -18  -4 -11    5.35    3.76
 -22  18  11   -5.50    3.64
  18   4  11    3.20    4.05
  19 -18 -11   13.87    3.96
 -18  -1 -11    9.89    3.39
  18   1  11    6.14    3.50
 -19  18  11    4.91    3.32
   2  16 -11    5.02    2.80
  16 -18 -11   -0.44    2.78
  -2 -16  11    7.04    4.08
  18  -2  11   -0.19    2.91
 -16  18  11    1.91    2.74
 -16  18  11    9.66    3.49
  13 -18 -11   13.99    3.23
   5  13 -11   21.74    3.18
 -13  18  11   23.00    2.94
 -13  18  11   18.11    3.99
  -5 -13  11   18.45    3.64
  18  -5  11   26.67    3.88
  10 -18 -11    4.68    2.66
   8  10 -11    6.61    2.50
 -18   8 -11    0.09    2.25
 -10  18  11    1.22    2.07
  -8 -10  11    1.53    2.55
  18  -8  11    2.85    2.71
  11   7 -11   10.28    2.64
   7 -18 -11   10.08    2.84
 -18  11 -11   14.32    2.51
  -7  18  11   15.18    2.61
  18 -11  11    9.73    3.27
 -11  -7  11   12.18    2.18
 -18  14 -11   -0.58    1.85
   4 -18 -11    1.03    2.58
  14   4 -11   -6.94    2.55
 -14  -4  11    1.88    1.00
 -14  -4  11   -0.90    1.12
  18 -14  11    2.20    2.94
 -18  17 -11   26.25    3.34
  17   1 -11   19.71    4.02
   1 -18 -11   18.24    3.94
  18 -17  11   16.46    3.83
  -2 -18 -11   -6.69    3.16
  20  -2 -11    2.71    4.33
 -20   2  11   -2.89    3.60
  18 -20  11    0.62    3.85
 -18  23 -11   10.87    3.69
  -5 -18 -11   10.08    4.80
  23  -5 -11   16.51    5.74
 -23   5  11   20.90    4.83
  18 -23  11   15.74    5.26
  -8 -18 -11    2.84    5.36
 -18  26 -11   -3.83    4.57
 -26   8  11    4.62    5.30
  18 -26  11    4.47    5.88
 -19  -8 -11    3.57    5.39
 -19  -5 -11   30.34    5.44
  -5  24 -11   33.27    5.03
  24 -19 -11   25.77    6.39
 -24  19  11   31.00    5.52
  19   5  11   33.18    6.54
  21 -19 -11    7.30    4.49
 -19  -2 -11   -3.51    3.54
  -2  21 -11    0.65    3.13
 -21  19  11    0.19    3.41
  19   2  11    7.15    3.98
   1  18 -11   40.51    5.15
  18 -19 -11   42.04    5.25
 -18  19  11   39.35    4.49
 -18  19  11   50.52    6.42
  19  -1  11   36.09    5.41
  15 -19 -11    5.04    3.32
   4  15 -11    1.91    2.77
  19  -4  11    0.65    3.50
 -15  19  11    0.04    2.31
  -4 -15  11    2.28    3.90
 -15  19  11    2.58    3.81
  12 -19 -11   29.81    4.36
   7  12 -11   22.39    3.35
 -12  19  11   34.18    3.75
  19  -7  11   19.98    3.99
  -7 -12  11   19.05    3.57
 -19  10 -11    5.81    2.29
  10   9 -11    6.32    2.70
   9 -19 -11    7.36    2.83
 -10  -9  11    8.65    2.49
  19 -10  11   10.23    3.52
  -9  19  11    5.82    2.41
  13   6 -11   19.84    3.74
 -19  13 -11   17.66    2.93
   6 -19 -11   23.88    4.33
  -6  19  11   18.65    2.81
 -13  -6  11   16.79    1.87
 -13  -6  11   20.33    2.50
  19 -13  11   23.52    4.12
 -19  16 -11    2.77    2.60
  16   3 -11    5.44    3.09
   3 -19 -11   -3.78    2.63
  19 -16  11    2.68    3.48
 -19  19 -11    4.57    3.02
   0 -19 -11    0.70    4.03
  19   0 -11   -8.21    5.05
 -19   0  11    3.69    4.28
  19 -19  11    1.28    3.60
  -3 -19 -11   19.49    5.17
  22  -3 -11   31.12    6.11
 -19  22 -11   16.12    3.82
  19 -22  11   23.53    5.67
 -22   3  11   13.30    4.67
 -19  25 -11    6.06    4.07
  -6 -19 -11   -0.74    4.83
 -25   6  11   11.25    4.56
  19 -25  11   -2.10    5.18
  -6  26 -11   -4.88    4.42
 -20  -6 -11   -4.32    5.49
 -26  20  11    2.51    5.26
 -20  -3 -11    3.07    4.59
  23 -20 -11    9.43    5.47
  -3  23 -11   10.32    4.49
 -23  20  11   -0.51    4.30
  20   3  11    9.37    5.39
   0  20 -11    1.65    3.33
 -20   0 -11    5.03    3.99
  20 -20 -11    5.94    4.49
 -20  20  11    4.63    3.35
  20   0  11   12.17    4.64
   3  17 -11   18.33    5.54
  17 -20 -11   12.68    4.29
  20  -3  11   16.15    4.12
 -17  20  11    8.70    3.52
 -17  20  11    6.82    4.04
   6  14 -11    0.28    2.60
  14 -20 -11    4.09    3.54
 -14  20  11    4.47    2.88
  20  -6  11   -2.22    2.88
  11 -20 -11   12.17    3.40
   9  11 -11   10.87    3.15
 -11  20  11   15.11    3.08
  20  -9  11   14.74    4.15
  -9 -11  11   11.17    3.13
   8 -20 -11   -1.09    2.74
 -20  12 -11    4.00    2.42
  12   8 -11   -1.20    2.64
 -12  -8  11   -0.43    1.92
  20 -12  11    2.09    3.12
  -8  20  11   -0.15    2.52
   5 -20 -11   16.10    4.40
  15   5 -11   22.57    3.93
 -20  15 -11   26.88    3.62
  20 -15  11   23.97    4.49
 -20  18 -11   -3.64    2.62
  18   2 -11   -1.41    5.00
   2 -20 -11   -0.12    3.33
 -18  -2  11    0.64    4.35
  20 -18  11   -4.03    3.40
  21  -1 -11   41.82    6.44
  -1 -20 -11   27.56    5.28
 -20  21 -11   32.18    4.59
 -21   1  11   33.17    5.48
  20 -21  11   25.10    5.13
 -20  24 -11    5.16    3.77
  -4 -20 -11    2.52    5.58
 -24   4  11    9.25    4.91
  20 -24  11    3.00    5.58
  -7 -20 -11    3.55    6.55
  20 -27  11    6.63    6.72
 -21  -4 -11    2.70    5.63
  -4  25 -11   10.02    5.16
  25 -21 -11    5.84    6.70
 -25  21  11   11.03    5.58
  21   4  11    6.62    5.95
  -1  22 -11   41.45    5.72
  22 -21 -11   48.93    6.57
 -21  -1 -11   32.14    5.75
  21   1  11   33.62    6.36
 -22  21  11   39.68    5.40
   2  19 -11    8.85    3.50
  19 -21 -11    2.05    4.36
  21  -2  11    7.65    4.43
 -19  21  11   -5.66    3.39
  16 -21 -11   34.62    5.59
   5  16 -11   38.93    4.87
 -16  21  11   38.87    4.73
  21  -5  11   38.88    5.52
   8  13 -11   -1.80    3.14
  13 -21 -11   -0.71    3.25
 -13  21  11    0.49    2.80
  21  -8  11   -6.47    3.19
  10 -21 -11   25.04    4.77
  11  10 -11   22.50    3.61
  21 -11  11   19.02    4.34
 -10  21  11   35.24    4.39
 -21  14 -11   14.55    3.15
  14   7 -11   11.23    3.64
   7 -21 -11   19.24    4.28
  21 -14  11    8.69    3.82
  -7  21  11   19.28    3.37
   4 -21 -11   14.65    6.24
  17   4 -11    1.23    4.07
 -21  17 -11    9.06    3.25
  21 -17  11    7.23    4.25
   1 -21 -11    2.71    4.66
 -21  20 -11   10.81    3.44
  20   1 -11   11.75    4.57
  21 -20  11   -3.30    4.54
 -20  -1  11   15.27    4.23
 -21  23 -11    6.66    4.46
  -2 -21 -11   -0.26    5.27
  23  -2 -11    4.21    5.27
  21 -23  11  -12.26    5.00
 -23   2  11   -3.31    4.81
  -5 -21 -11   11.51    6.44
 -21  26 -11   14.17    7.28
 -26   5  11   24.07    6.35
  21 -26  11   24.76    6.91
 -22  -2 -11    3.12    5.09
  24 -22 -11    6.47    6.39
  -2  24 -11   -5.45    4.32
 -24  22  11   11.13    5.25
  22   2  11    6.91    5.75
   1  21 -11    6.59    4.18
  21 -22 -11   11.57    5.06
 -22   1 -11    2.58    4.52
 -21  22  11    4.28    4.19
  22  -1  11    7.56    5.39
   4  18 -11    6.86    3.69
  18 -22 -11    8.25    4.96
  22  -4  11    9.06    4.84
 -18  22  11   10.12    3.94
   7  15 -11   30.47    4.35
  15 -22 -11   31.48    5.42
  12 -22 -11    1.92    4.10
  22 -10  11    5.37    3.71
 -12  22  11    5.86    3.14
  13   9 -11   30.74    5.63
 -22  13 -11   25.09    3.70
   9 -22 -11   19.76    4.68
  22 -13  11   24.86    5.22
  -9  22  11   20.78    3.76
  16   6 -11   -2.71    3.43
 -22  16 -11   -5.06    2.86
   6 -22 -11    2.55    3.86
  22 -16  11    5.60    4.76
  19   3 -11   22.89    5.04
   3 -22 -11   19.67    5.16
 -22  19 -11   21.31    4.31
  22 -19  11   28.03    5.87
 -19  -3  11   14.18    4.91
  22   0 -11    2.40    5.88
   0 -22 -11    4.59    4.83
 -22  22 -11    5.11    4.22
  22 -22  11    3.63    5.55
 -22   0  11   14.06    5.26
  -3 -22 -11   28.11    6.86
 -22  25 -11   22.56    5.58
  22 -25  11   12.12    6.10
 -25   3  11   32.54    6.58
 -23   0 -11    4.53    5.69
  23 -23 -11    9.82    6.02
   0  23 -11    0.72    4.66
 -23  23  11    8.85    5.22
  23   0  11    5.26    6.03
   3  20 -11   29.62    5.43
  20 -23 -11   40.02    6.67
 -20  23  11   26.85    5.09
  23  -3  11   30.47    6.06
  17 -23 -11    1.18    4.82
   6  17 -11    4.24    4.02
  23  -6  11    0.63    4.08
 -17  23  11   -6.69    3.18
   9  14 -11   41.55    4.99
  14 -23 -11   41.80    6.02
 -14  23  11   41.24    4.90
  23  -9  11   35.58    6.17
  12  11 -11    3.21    3.85
  11 -23 -11    5.21    4.30
 -11  23  11    1.57    3.32
  23 -12  11   -1.25    4.38
   8 -23 -11   13.42    4.30
 -23  15 -11   13.67    3.61
  15   8 -11   13.80    4.63
  23 -15  11   11.40    4.50
   5 -23 -11    0.90    4.60
  18   5 -11   15.97    5.05
 -23  18 -11   11.20    3.85
  23 -18  11    2.89    5.16
   2 -23 -11    1.89    4.52
  21   2 -11   15.48    5.81
 -23  21 -11   -5.07    4.26
 -21  -2  11   -2.86    5.11
  23 -21  11    5.81    5.51
  24  -1 -11   14.73    6.44
 -23  24 -11    3.88    5.17
  -1 -23 -11   18.74    6.55
 -24   1  11    5.23    5.69
  23 -24  11   18.23    6.64
  22 -24 -11   -7.33    5.66
 -24   2 -11    2.92    5.13
   2  22 -11    4.22    5.10
 -22  24  11   -3.04    4.23
  24  -2  11   -3.62    5.79
  19 -24 -11   14.89    5.68
   5  19 -11    7.83    4.01
  24  -5  11    8.55    5.66
 -19  24  11   11.23    4.01
  16 -24 -11   -1.39    4.91
   8  16 -11    1.37    4.13
  24  -8  11   -4.24    4.26
 -16  24  11   -4.36    3.88
  13 -24 -11   26.76    5.29
  11  13 -11   34.99    5.21
  24 -11  11   25.38    5.96
 -13  24  11   23.85    4.35
  14  10 -11   -3.98    4.23
  10 -24 -11    0.31    4.20
  24 -14  11    0.10    5.07
  17   7 -11   23.34    5.15
   7 -24 -11   20.71    5.80
 -24  17 -11   15.22    4.21
  24 -17  11   26.22    6.12
 -24  20 -11   -4.15    4.26
   4 -24 -11   -9.20    5.08
  20   4 -11    7.97    5.64
  24 -20  11   -6.61    5.56
 -20  -4  11   11.52    5.36
   1 -24 -11    9.24    6.25
 -24  23 -11   20.48    4.91
  23   1 -11   17.73    7.22
  24 -23  11   25.29    6.46
 -23  -1  11    4.35    6.05
   4  21 -11   -6.45    4.82
  21 -25 -11   -0.90    5.67
 -21  25  11   -1.85    4.88
  25  -4  11    2.63    6.23
  18 -25 -11   16.88    5.30
   7  18 -11   23.47    5.07
  25  -7  11   24.24    6.26
 -18  25  11   12.43    4.86
  10  15 -11    2.03    3.96
  15 -25 -11   -2.81    5.17
 -15  25  11    7.71    4.18
  25 -10  11   -7.60    4.64
  13  12 -11   20.26    5.26
  12 -25 -11    5.83    5.10
 -12  25  11    9.27    4.29
  25 -13  11   12.86    5.77
   9 -25 -11    9.24    4.76
  16   9 -11    1.07    4.96
  25 -16  11    3.31    4.77
 -25  19 -11   11.05    4.53
  19   6 -11    7.73    5.56
   6 -25 -11   -2.08    4.86
  25 -19  11   15.45    6.18
 -19  -6  11   16.95    5.75
  22   3 -11   27.01    7.28
 -25  22 -11   19.26    5.25
   3 -25 -11    8.50    6.31
  25 -22  11    5.78    6.67
 -22  -3  11   -6.02    5.68
  20 -26 -11   -4.40    6.13
   6  20 -11    1.32    5.28
 -20  26  11   -4.97    4.93
  26  -6  11    1.17    6.19
   9  17 -11   22.18    5.74
  17 -26 -11   17.76    6.30
  26  -9  11    9.12    5.93
 -17  26  11   17.51    5.28
  12  14 -11    0.73    4.84
  14 -26 -11    2.25    5.58
 -14  26  11    6.75    4.39
  26 -12  11   -3.03    5.73
  15  11 -11   16.62    5.45
  11 -26 -11   29.53    6.58
  26 -15  11   19.12    6.13
   8 -26 -11    1.13    5.58
  18   8 -11    2.90    5.51
  26 -18  11   -0.77    6.21
  21   5 -11   19.32    7.43
   5 -26 -11   29.33    6.99
 -26  21 -11    7.32    5.30
 -21  -5  11   34.31    6.90
  26 -21  11   17.33    7.15
  19 -27 -11   -5.88    5.53
   8  19 -11   -6.11    5.71
 -19  27  11   -6.27    5.60
  27  -8  11   -7.71    6.54
  11  16 -11    8.79    5.90
  16 -27 -11   15.62    6.64
 -16  27  11   29.77    5.42
  27 -11  11   25.98    7.22
  13 -27 -11    5.02    5.81
  14  13 -11   -1.38    5.64
  27 -14  11   -6.22    5.97
  17  10 -11   23.86    6.54
  10 -27 -11    4.84    6.45
  27 -17  11   17.23    6.92
   7 -27 -11   -2.80    6.24
 -20  -7  11   -3.98    8.76
  27 -20  11   -8.93    6.96
  13  15 -11   10.96    8.39
  15 -28 -11    8.02    6.49
  28 -13  11   16.91    6.38
  12 -28 -11    6.19    6.15
  28 -16  11    9.82    7.19
   0   0 -12  941.80   23.99
   0   0 -12  918.66   22.21
   0   0 -12  924.27   22.36
   0   0  12  933.19   23.79
   0   0  12  928.15   22.32
  -1  -1 -12    5.56    1.04
  -1  -1 -12    5.30    0.85
   2  -1 -12    5.28    0.82
   2  -1 -12    4.20    1.95
  -1   2 -12    3.79    1.83
  -1   2 -12    5.16    0.89
   2  -1 -12    5.42    1.03
  -1  -1 -12    5.67    1.67
   1   1  12    4.99    1.41
   1  -2  12    3.71    0.89
   1   1  12    5.75    1.11
  -2   1  12    5.39    1.44
  -2   1 -12    6.51    1.98
   1  -2 -12    6.32    1.01
   1   1 -12    5.01    1.86
   1   1 -12    5.95    0.76
   1  -2 -12    7.99    1.05
  -2   1 -12    4.09    0.82
   1  -2 -12    5.78    1.72
   1   1 -12    6.21    1.01
  -1  -1  12    5.57    1.63
   2  -1  12   10.39    1.93
  -1  -1  12    7.49    0.82
  -1   2  12    8.38    1.77
   4  -2 -12  470.58   11.40
  -2  -2 -12  477.98   13.32
   4  -2 -12  463.04   12.23
  -2  -2 -12  479.05   11.16
  -2  -2 -12  462.06   12.27
  -2   4 -12  463.01   11.95
   2   2  12  467.82   13.01
   2   2  12  459.71   12.39
  -4   2  12  443.65   12.87
   2  -4  12  438.99   13.29
   2  -4  12  457.81   11.76
  -3   0 -12    8.44    1.80
  -3   0 -12    9.68    0.94
   3  -3 -12    9.25    2.14
   3  -3 -12   10.10    1.28
   0   3 -12    5.77    1.91
   3  -3 -12    9.58    1.13
   0   3 -12    8.24    1.14
   3   0  12    9.99    1.43
   0  -3  12    9.08    1.80
  -3   3  12    7.82    1.58
   3   0  12   11.91    1.92
   0  -3  12   10.32    1.10
   3   0 -12   -0.43    0.77
   0  -3 -12   -0.76    0.80
   3   0 -12    0.51    0.44
  -3   3 -12   -0.27    1.64
   0  -3 -12    1.75    1.57
   0  -3 -12    0.48    0.68
  -3   3 -12   -0.36    0.60
   3  -3  12    0.28    1.33
   3  -3  12    0.30    0.87
   0   3  12   -0.05    1.12
   0   3  12    0.05    0.66
  -3   0  12   -1.04    1.20
  -3  -3 -12    0.70    0.96
  -3   6 -12    0.24    0.87
  -3  -3 -12    2.15    2.01
   6  -3 -12   -0.46    0.94
   6  -3 -12   -0.12    0.74
   3  -6  12    1.27    1.38
   3   3  12   -0.69    0.97
   3   3  12    0.34    1.18
   3  -6  12    0.37    1.65
  -6   3  12   -0.70    1.15
  -4  -1 -12    1.53    0.99
  -1   5 -12    2.29    1.02
   5  -4 -12    2.23    1.05
  -4  -1 -12    2.26    0.41
   5  -4 -12    2.86    0.94
  -4  -1 -12    2.70    1.99
  -5   4  12    2.75    1.06
   4   1  12    0.71    1.18
  -5   4  12    1.91    1.18
   1  -5  12    2.48    0.81
   4   1  12    2.39    1.53
   1  -5  12    1.33    1.46
   2   2 -12  438.87   11.62
   2  -4 -12  422.74   11.28
   2  -4 -12  426.66   11.42
   2  -4 -12  430.82   12.64
  -4   2 -12  460.36   11.17
  -4   2 -12  447.28   13.01
   4  -2  12  451.40   12.73
   4  -2  12  442.68   11.77
  -2   4  12  442.89   11.19
  -2  -2  12  404.24   12.36
   5  -1 -12    1.59    0.47
  -1  -4 -12    2.70    1.04
  -4   5 -12    2.10    0.86
  -1  -4 -12    1.48    1.83
   4  -5  12    1.64    0.98
   1   4  12    1.10    1.27
  -5   1  12    2.52    1.30
   4  -5  12    1.78    1.51
   1   4  12    0.62    0.49
  -4  -4 -12  256.33    8.14
  -4  -4 -12  258.03    8.60
   8  -4 -12  255.29    8.10
  -4   8 -12  252.86    7.65
   8  -4 -12  251.85    7.00
  -8   4  12  259.29    8.11
   4  -8  12  258.23    7.58
  -8   4  12  252.11    8.07
   4  -8  12  244.29    9.02
   4   4  12  261.07    8.38
   4   4  12  260.34    8.24
   7  -5 -12    9.35    1.60
   7  -5 -12    7.55    1.38
  -5  -2 -12    7.22    2.06
  -2   7 -12   10.07    1.43
  -5  -2 -12    9.56    1.96
   2  -7  12    7.03    1.22
   2  -7  12    7.40    2.21
   5   2  12    7.76    1.88
   5   2  12    6.03    1.72
  -7   5  12    8.15    1.51
  -7   5  12    8.36    1.57
   4  -5 -12    0.46    1.81
   4  -5 -12    0.97    1.00
  -5   1 -12    0.79    0.53
  -5   1 -12    1.74    1.79
   4  -5 -12    1.55    0.97
  -4   5  12    0.32    1.28
  -4   5  12    1.38    0.92
   5  -1  12   -0.97    1.39
   5  -1  12    1.98    1.15
  -1  -4  12    0.22    1.29
  -1  -4  12    0.57    0.50
  -5   4 -12    0.98    0.71
   1  -5 -12    2.07    1.71
   1  -5 -12    1.40    0.98
   4   1 -12    0.85    1.04
   5  -4  12    0.64    1.01
  -4  -1  12   -1.09    1.23
  -1   5  12    1.53    1.30
   5  -4  12   -0.46    1.65
   7  -2 -12    0.25    1.08
  -2  -5 -12    2.98    1.89
  -2  -5 -12    2.33    1.33
   7  -2 -12   -0.08    0.67
   2   5  12   -0.64    1.24
  -7   2  12    1.17    1.16
   5  -7  12   -1.05    1.57
   5  -7  12    0.36    1.06
  -5  -5 -12    5.55    1.62
  -5  10 -12    5.50    1.40
  -5  -5 -12    5.89    2.01
  10  -5 -12    6.90    1.39
  10  -5 -12    7.53    2.28
 -10   5  12    6.95    1.62
   5   5  12    3.78    1.67
 -10   5  12    4.80    1.91
   5   5  12    5.56    1.86
   5 -10  12    5.67    1.56
   5 -10  12    7.00    2.27
  -3   9 -12    3.45    1.29
   9  -6 -12    3.49    1.28
   9  -6 -12    5.30    1.60
  -6  -3 -12    3.83    1.82
  -6  -3 -12    1.91    1.33
   6   3  12    1.30    1.62
   3  -9  12    2.80    1.16
   3  -9  12    5.33    2.31
  -9   6  12    3.37    1.30
   6   3  12    2.41    1.54
  -9   6  12    3.33    1.45
   0   6 -12  386.61   10.64
   6  -6 -12  363.08   10.76
  -6   0 -12  398.18   11.74
   6  -6 -12  368.01   10.30
   6   0  12  395.12   11.27
   0  -6  12  372.59   11.70
  -6   6  12  372.78   11.12
  -6   6  12  377.01   10.56
   0  -6  12  387.56    9.58
   6   0  12  398.66   11.28
   3   3 -12    0.24    0.91
  -6   3 -12    0.65    0.67
   3  -6 -12    1.16    0.95
  -6   3 -12   -0.03    1.66
   3  -6 -12   -1.41    1.75
   6  -3  12    1.69    1.20
  -3   6  12    2.20    0.83
  -3  -3  12   -2.20    1.27
  -3   6  12    0.30    1.19
   6  -3  12   -1.87    1.41
  -6   6 -12  356.76    9.58
   0  -6 -12  358.98   10.30
   0  -6 -12  352.85   10.82
   6   0 -12  354.08   10.26
   0   6  12  365.93    8.82
   6  -6  12  349.91   11.33
   6  -6  12  338.44   10.07
   0   6  12  375.92   10.80
  -6   0  12  351.19   10.44
  -3  -6 -12    2.98    2.00
   9  -3 -12    2.82    1.01
   9  -3 -12    0.03    1.19
  -6   9 -12    1.54    1.21
  -3  -6 -12    1.37    1.45
   3   6  12    3.51    1.61
   6  -9  12    1.55    1.35
   6  -9  12    4.44    2.28
  -9   3  12    0.91    1.25
  -6  12 -12  278.27    8.94
  -6  -6 -12  307.17    9.83
  12  -6 -12  275.44    9.74
  12  -6 -12  289.63    8.46
  -6  -6 -12  290.61    9.89
   6 -12  12  290.66    9.12
 -12   6  12  291.74    9.08
   6   6  12  291.82   10.21
 -12   6  12  282.29    9.51
   6 -12  12  283.84   10.71
  11  -7 -12    3.90    1.45
  -7  -4 -12    2.36    3.01
  -7  -4 -12    0.70    1.97
   4 -11  12    1.78    2.37
   7   4  12    7.50    3.59
   7   4  12    3.37    2.22
 -11   7  12    6.05    1.57
   4 -11  12    5.53    1.51
  -7  -1 -12    1.72    1.71
   8  -7 -12    1.82    1.49
  -1   8 -12    0.78    1.06
   8  -7 -12    1.40    1.17
  -8   7  12   -0.79    1.21
   7   1  12    0.27    1.60
   1  -8  12    0.81    1.70
   7   1  12   -2.13    1.35
  -8   7  12   -0.27    1.40
   1  -8  12   -0.23    0.99
  -7   2 -12   -0.26    0.60
  -7   2 -12   -0.60    1.68
   5  -7 -12    0.83    1.05
   2   5 -12    0.30    0.91
  -5   7  12    0.62    1.40
   7  -2  12   -1.15    1.53
  -5   7  12    0.43    0.89
   7  -2  12   -0.98    1.27
  -2  -5  12    2.79    1.60
   2  -7 -12    1.65    1.89
   5   2 -12   -0.10    1.03
  -7   5 -12    0.99    0.84
   2  -7 -12   -0.71    1.10
  -2   7  12    1.05    0.80
  -2   7  12    0.65    2.76
   7  -5  12    2.78    1.60
   7  -5  12   -0.03    1.13
  -5  -2  12    0.41    1.34
   8  -1 -12    0.41    1.27
  -1  -7 -12    3.35    1.80
  -7   8 -12    1.15    0.92
  -1  -7 -12    1.71    1.42
   1   7  12    1.08    0.56
  -8   1  12    0.41    1.20
   7  -8  12    2.83    2.01
   7  -8  12    2.28    1.29
   1   7  12    1.57    1.68
  -7  11 -12    7.65    1.54
  -4  -7 -12    5.96    2.12
  11  -4 -12    7.79    1.96
  -4  -7 -12    3.66    2.18
 -11   4  12    2.46    1.51
   4   7  12    7.40    1.97
 -11   4  12    3.66    1.63
   7 -11  12    6.53    2.62
   7 -11  12    7.56    1.82
  -7  14 -12    0.81    1.47
  14  -7 -12    1.61    1.83
  14  -7 -12    2.54    2.31
  -7  -7 -12    4.19    1.93
   7 -14  12    3.73    1.85
   7   7  12   -1.13    2.00
   7 -14  12    6.46    3.58
 -14   7  12    3.52    1.89
 -14   7  12    1.66    1.62
  -5  13 -12    5.90    1.80
  -8  -5 -12    5.05    2.09
  13  -8 -12    5.63    1.80
  13  -8 -12    3.62    2.27
   5 -13  12    9.77    3.34
 -13   8  12    2.85    1.79
   8   5  12    2.18    2.15
   5 -13  12    7.50    1.91
 -13   8  12    7.68    2.03
  -8  -2 -12  258.00    8.65
  10  -8 -12  258.41    8.03
  -2  10 -12  255.46    8.38
  -8  -2 -12  257.85    8.84
  10  -8 -12  254.18   11.91
   2 -10  12  257.84    7.58
   8   2  12  252.77    8.89
   2 -10  12  267.26    9.75
 -10   8  12  248.66   10.88
   8   2  12  259.89    8.36
 -10   8  12  267.18    8.56
   7  -8 -12   -0.56    1.15
   1   7 -12    1.35    1.13
  -8   1 -12    1.45    0.52
  -8   1 -12   -0.67    1.78
  -7   8  12    3.00    1.64
   8  -1  12   -0.48    1.31
  -1  -7  12    0.98    0.81
  -1  -7  12   -3.30    1.60
   8  -1  12    0.94    1.63
  -7   8  12   -0.61    1.09
   4  -8 -12  181.16    7.02
   4   4 -12  181.92    6.21
   4  -8 -12  188.99    6.33
  -8   4 -12  186.67    5.25
  -4   8  12  192.76    6.84
   8  -4  12  179.98    6.87
  -4  -4  12  182.05    6.74
  -4   8  12  183.40    5.56
   7   1 -12   12.42    1.78
   1  -8 -12   14.12    2.10
  -8   7 -12   14.38    1.62
   1  -8 -12   13.74    2.72
  -1   8  12   17.77    2.44
  -7  -1  12   11.71    1.92
  -1   8  12   13.92    1.30
   8  -7  12   11.12    2.47
   8  -7  12   12.47    1.96
  -2  -8 -12  293.27    9.34
  10  -2 -12  276.92    7.38
  -2  -8 -12  285.06    9.59
  -8  10 -12  274.23    8.43
   8 -10  12  280.06   10.38
 -10   2  12  263.09    8.53
   2   8  12  302.24    9.27
   8 -10  12  283.53    9.07
  13  -5 -12    6.51    1.65
  -5  -8 -12    8.05    2.13
  -8  13 -12    4.64    1.58
  13  -5 -12    6.51    2.12
 -13   5  12    4.58    1.87
 -13   5  12    5.06    1.71
   8 -13  12    7.15    3.29
   8 -13  12    7.17    1.98
  16  -8 -12  135.85    7.35
  -8  16 -12  138.00    6.06
  16  -8 -12  137.14    5.95
  -8  -8 -12  147.85    7.11
 -16   8  12  145.25    6.73
 -16   8  12  142.71    5.82
   8 -16  12  119.76    8.36
  -9  -6 -12   -4.20    1.84
  -6  15 -12    1.15    1.63
  15  -9 -12    5.18    2.14
 -15   9  12   -1.02    1.79
   6 -15  12    1.32    3.19
   9   6  12   -2.88    2.26
 -15   9  12   -1.07    2.11
   6 -15  12   -0.41    1.86
  -9  -3 -12    0.46    1.49
  -9  -3 -12    2.23    2.20
  -3  12 -12    2.23    1.47
 -12   9  12    2.40    1.70
 -12   9  12    5.13    1.80
   3 -12  12    2.96    2.46
   9   3  12    5.12    2.00
   3 -12  12    3.45    1.56
  -9   0 -12    1.11    2.06
   0   9 -12    4.56    1.48
   9  -9 -12    2.39    1.45
  -9   9  12    4.58    1.43
   9   0  12    3.25    2.02
   0  -9  12    2.02    1.09
   0  -9  12    3.49    2.16
  -9   9  12    0.86    1.54
   9   0  12    2.05    1.53
  -9   3 -12   -0.21    0.77
   3   6 -12   -1.20    1.07
   6  -9 -12    0.13    1.25
  -6   9  12   -0.41    0.99
  -3  -6  12    0.43    1.62
  -6   9  12   -3.26    1.46
   9  -3  12    0.47    1.46
   9  -3  12   -0.19    1.65
   6   3 -12    0.32    1.19
   3  -9 -12   -2.04    1.26
  -9   6 -12    0.88    0.84
   3  -9 -12    2.06    2.06
   9  -6  12    1.20    1.53
   9  -6  12    0.89    1.77
  -6  -3  12    0.06    1.41
  -3   9  12    0.49    1.71
  -3   9  12    0.30    0.90
  -9   9 -12    9.38    1.62
   0  -9 -12   11.61    2.70
   9   0 -12   12.16    2.35
   0  -9 -12   12.73    2.20
   9  -9  12   11.93    2.69
   9  -9  12   14.73    2.23
  -9   0  12   14.64    1.92
  12  -3 -12    3.29    1.68
  -3  -9 -12   -0.55    1.78
  -9  12 -12    3.77    1.35
   9 -12  12    0.72    1.68
 -12   3  12   -0.15    1.47
   9 -12  12    4.55    3.18
 -12   3  12    2.73    1.67
  -9  15 -12    0.97    1.83
  -6  -9 -12    1.06    2.04
  15  -6 -12    6.22    1.92
  15  -6 -12    4.83    2.25
   9 -15  12    3.61    2.17
 -15   6  12    1.95    1.92
   9 -15  12   10.22    3.97
 -15   6  12    5.79    1.69
  18  -9 -12    2.42    3.76
  -9  18 -12   -2.01    1.91
  -9  -9 -12   -0.44    2.32
   9 -18  12    3.52    2.62
 -18   9  12   -0.63    2.22
 -18   9  12   -0.79    2.01
 -10  -7 -12    3.35    2.65
  17 -10 -12    2.07    2.96
  -7  17 -12    2.98    1.98
 -17  10  12   -1.52    2.05
 -17  10  12   -1.78    1.98
   7 -17  12    0.41    2.40
  10   7  12    5.83    2.93
  14 -10 -12  158.23    6.50
 -10  -4 -12  158.98    7.01
  -4  14 -12  172.78    6.66
  10   4  12  155.23    7.24
 -14  10  12  157.77    6.59
   4 -14  12  176.24    8.57
 -14  10  12  160.95    6.53
   4 -14  12  159.73    6.23
  11 -10 -12   -2.00    1.51
  -1  11 -12   -2.46    1.48
 -10  -1 -12    1.41    2.28
 -11  10  12   -0.24    1.58
   1 -11  12   -0.96    2.40
   1 -11  12    1.61    1.28
 -11  10  12    1.51    1.78
 -10   2 -12  399.30    9.54
   8 -10 -12  376.08   11.33
  10  -2  12  395.58   12.06
  -8  10  12  386.49   10.96
  -8  10  12  386.57   11.72
  10  -2  12  397.93   11.62
  -2  -8  12  366.74   12.18
  -2  -8  12  387.43    9.78
 -10   5 -12    1.93    0.93
   5 -10 -12    1.87    1.48
   5   5 -12    3.21    1.34
   5 -10 -12   -4.77    3.95
  -5  10  12   -0.05    1.01
  10  -5  12    0.72    1.97
  10  -5  12    3.28    1.62
  -5  10  12    2.25    1.86
  -5  -5  12   -0.93    1.52
 -10   8 -12  252.18    7.60
   2 -10 -12  274.45    8.80
   2 -10 -12  261.24    9.27
  -8  -2  12  245.70    8.20
  -2  10  12  265.99    8.94
  -2  10  12  270.90    7.24
  10  -8  12  265.05    8.86
 -10  11 -12   -0.01    1.38
  -1 -10 -12    3.47    1.86
  11  -1 -12    0.08    1.56
 -11   1  12   -0.60    1.82
  10 -11  12    5.53    3.07
  10 -11  12    0.68    1.56
  -4 -10 -12  190.53    7.95
  14  -4 -12  182.37    7.76
 -10  14 -12  200.75    7.05
  10 -14  12  177.86    8.93
 -14   4  12  195.12    6.62
 -14   4  12  201.52    7.74
  10 -14  12  185.41    7.56
  17  -7 -12    3.30    2.63
 -10  17 -12   -0.30    1.85
  -7 -10 -12    6.23    2.88
 -17   7  12    4.70    1.95
 -17   7  12    3.83    2.36
  10 -17  12    7.59    2.61
 -10  20 -12   76.26    5.33
 -10 -10 -12   77.57    6.06
  10 -20  12   93.24    6.31
 -20  10  12   86.75    5.74
  19 -11 -12    0.46    2.99
  -8  19 -12    0.55    2.55
 -11  -8 -12    1.13    2.99
   8 -19  12    4.31    2.75
 -19  11  12    2.63    2.53
 -19  11  12    0.89    2.56
 -11  -5 -12   -2.73    1.94
  16 -11 -12    5.56    2.49
  -5  16 -12   -0.39    1.80
 -16  11  12   -1.84    1.97
   5 -16  12   -2.33    2.45
 -16  11  12   -1.27    1.93
  11   5  12    0.71    2.18
 -11  -2 -12    1.02    1.93
  -2  13 -12    0.03    1.64
  13 -11 -12   -3.42    1.76
   2 -13  12    1.98    3.01
 -13  11  12   -0.88    1.91
   2 -13  12    1.38    1.57
 -13  11  12    0.90    1.78
  11   2  12    2.15    2.15
   1  10 -12    0.75    1.50
  10 -11 -12    0.59    1.74
  -1 -10  12    1.37    2.44
  -1 -10  12    2.08    1.25
 -10  11  12    1.02    1.48
  11  -1  12   -1.85    1.76
 -10  11  12   -0.67    1.65
   4   7 -12    3.39    1.35
   7 -11 -12    4.02    1.70
 -11   4 -12    5.59    1.06
  11  -4  12    2.71    2.30
  -7  11  12    5.45    2.10
  -7  11  12    4.44    1.39
  11  -4  12    8.48    1.94
  -4  -7  12    5.78    1.95
 -11   7 -12    1.52    1.11
   4 -11 -12    0.50    1.40
   7   4 -12    1.48    1.46
   4 -11 -12    2.06    2.50
  11  -7  12    4.56    2.04
  11  -7  12    3.91    2.53
  -7  -4  12    2.05    1.59
  -4  11  12    2.09    1.08
  -4  11  12   -0.28    1.81
  10   1 -12    1.17    1.53
   1 -11 -12   -1.14    1.52
 -11  10 -12    0.74    1.32
  -1  11  12    0.79    2.09
  11 -10  12    2.45    2.83
  11 -10  12   -0.69    1.78
  -1  11  12    1.57    1.03
 -10  -1  12   -2.12    1.87
  13  -2 -12    2.44    1.98
 -11  13 -12    0.37    1.37
  -2 -11 -12    2.07    1.70
 -13   2  12    2.88    1.35
  11 -13  12    2.44    2.45
  -5 -11 -12   -0.49    1.90
 -11  16 -12   -0.26    2.01
  16  -5 -12   -1.05    2.70
  11 -16  12    1.72    2.03
 -16   5  12   -3.42    2.16
 -16   5  12    0.76    1.58
 -11  19 -12   13.60    3.07
  -8 -11 -12   11.85    3.20
  11 -19  12   11.51    3.21
 -19   8  12   11.76    2.98
 -19   8  12   10.05    2.34
 -11  22 -12   -3.30    3.00
 -11 -11 -12    8.10    4.21
 -22  11  12    9.14    4.00
  11 -22  12    0.42    3.50
  -9  21 -12    1.40    3.51
 -12  -9 -12    5.13    3.57
 -21  12  12    2.09    3.95
   9 -21  12   -2.48    3.23
  -6  18 -12  100.31    5.43
 -12  -6 -12   93.54    6.27
  18 -12 -12   83.77    5.63
 -18  12  12   99.37    5.99
   6 -18  12   84.26    5.36
 -18  12  12   93.04    5.33
  12   6  12   90.24    6.70
 -12  -3 -12   -1.47    1.84
  15 -12 -12    0.43    2.28
  -3  15 -12    0.29    1.73
 -15  12  12   -3.88    2.18
   3 -15  12   -0.30    3.65
  12   3  12   -0.54    2.15
 -15  12  12   -0.90    2.07
   3 -15  12    3.17    1.91
  12 -12 -12  188.02    7.32
   0  12 -12  186.24    7.08
   0 -12  12  196.54    8.80
  12   0  12  183.58    7.82
   0 -12  12  200.85    6.35
 -12  12  12  189.93    7.53
 -12  12  12  190.63    7.14
   3   9 -12    1.59    1.45
   9 -12 -12   -2.76    1.67
 -12   3 -12    0.19    0.93
  -9  12  12    1.74    1.54
  12  -3  12    0.70    3.14
  -9  12  12   -1.85    1.73
  -3  -9  12    2.94    2.24
   6 -12 -12  222.96    8.15
 -12   6 -12  226.65    6.66
   6   6 -12  227.63    7.91
  12  -6  12  230.71    8.52
  -6  12  12  235.89    7.13
  -6  -6  12  230.16    8.07
  -6  12  12  232.48    8.41
   9   3 -12   10.73    1.99
 -12   9 -12    7.67    1.49
   3 -12 -12   10.75    2.23
  -3  12  12   11.06    1.55
  -9  -3  12    9.46    2.35
  -3  12  12    9.16    2.19
  12  -9  12    9.48    2.39
  12   0 -12  258.10    9.19
   0 -12 -12  268.18    9.44
 -12  12 -12  272.71    8.41
 -12   0  12  260.66    8.00
  12 -12  12  254.15    9.64
  15  -3 -12    5.25    2.39
  -3 -12 -12    1.13    2.09
 -12  15 -12    0.89    1.59
  12 -15  12   -1.33    2.34
 -15   3  12    3.49    2.15
 -15   3  12   -3.19    1.44
 -12  18 -12   92.48    5.20
  18  -6 -12   88.15    6.85
  -6 -12 -12   94.93    6.35
  12 -18  12   96.95    6.22
 -18   6  12  103.43    4.72
 -18   6  12   99.81    6.22
  -9 -12 -12    2.62    3.44
 -21   9  12    3.00    4.02
  12 -21  12    2.89    3.25
 -12 -12 -12   55.20    7.27
 -12  24 -12   57.17    5.87
 -24  12  12   56.25    6.34
 -13 -10 -12   -0.91    3.65
 -10  23 -12   -2.51    3.09
  10 -23  12    0.23    4.10
 -23  13  12    5.64    3.55
  20 -13 -12   -3.01    3.26
 -13  -7 -12   -1.01    3.14
  -7  20 -12    3.95    2.87
   7 -20  12    1.12    2.93
  13   7  12    3.78    3.57
 -20  13  12    4.47    2.90
 -13  -4 -12    2.57    2.73
  -4  17 -12   -2.37    2.15
  17 -13 -12    2.48    2.84
 -17  13  12    0.71    2.44
 -17  13  12   -1.58    2.16
  13   4  12   -2.99    2.80
   4 -17  12    0.78    2.65
   4 -17  12    7.36    4.29
  -1  14 -12    1.86    1.84
  14 -13 -12    2.66    2.66
  13   1  12   -5.00    2.30
   1 -14  12    3.19    3.25
 -14  13  12   -0.44    1.74
 -14  13  12   -0.16    2.31
   1 -14  12    0.89    2.02
  11 -13 -12    2.00    1.99
   2  11 -12    1.29    1.61
  13  -2  12   -2.50    1.71
 -11  13  12    1.09    2.16
 -11  13  12    0.18    1.61
  -2 -11  12    0.85    2.57
   8 -13 -12    2.36    1.80
   5   8 -12    3.73    1.64
 -13   5 -12    2.18    1.11
  -8  13  12   -0.97    2.16
  -5  -8  12    7.26    2.23
  13  -5  12    2.65    1.82
   5 -13 -12    9.47    3.62
 -13   8 -12    9.86    1.60
   8   5 -12    5.56    1.79
  -5  13  12   12.82    1.77
  -5  13  12   11.03    2.39
  -8  -5  12    6.95    2.02
  13  -8  12    6.75    2.37
  11   2 -12   -2.08    1.66
 -13  11 -12   -0.78    1.69
   2 -13 -12   -1.15    1.99
  -2  13  12    0.23    1.20
  13 -11  12    0.73    1.84
 -11  -2  12    0.65    1.44
  14  -1 -12   -1.51    1.93
 -13  14 -12   -0.52    1.44
  -1 -13 -12    2.40    1.99
  13 -14  12   -0.89    2.01
 -14   1  12    2.31    1.55
 -13  17 -12    8.81    2.24
  -4 -13 -12    8.01    2.72
  17  -4 -12   14.47    3.37
  13 -17  12    8.43    2.74
 -17   4  12   10.74    2.95
 -17   4  12    4.58    1.68
 -13  20 -12    3.57    2.78
  20  -7 -12   -1.85    3.23
  -7 -13 -12    1.84    3.37
  13 -20  12    5.79    3.16
 -20   7  12    0.87    2.83
 -13  23 -12    5.51    3.31
 -10 -13 -12    3.64    3.80
 -23  10  12    1.62    3.98
  13 -23  12   -7.79    3.97
 -13 -13 -12   -3.00    4.47
 -13  26 -12    9.02    4.89
 -26  13  12   -2.81    4.28
  13 -26  12   -2.75    5.60
 -14 -11 -12   -0.07    4.79
 -11  25 -12   -2.30    4.37
 -25  14  12    3.05    4.69
  11 -25  12    5.15    5.08
  -8  22 -12   78.31    6.54
 -22  14  12   96.04    6.49
   8 -22  12   88.92    6.88
 -14  -5 -12    1.09    2.63
  19 -14 -12    1.55    3.15
  -5  19 -12   -1.01    2.36
 -19  14  12    2.91    2.93
   5 -19  12    3.96    2.96
 -19  14  12    2.35    2.69
  14   5  12    3.64    3.22
 -14  -2 -12  128.21    6.65
  16 -14 -12  128.41    6.73
  -2  16 -12  129.69    6.32
 -16  14  12  136.95    6.71
   2 -16  12  141.26    6.08
   2 -16  12  143.66    8.73
  14   2  12  135.45    7.26
 -16  14  12  137.52    6.42
  13 -14 -12   -1.42    2.17
   1  13 -12   -1.04    1.64
  -1 -13  12   -2.52    2.92
  14  -1  12   -0.05    2.38
 -13  14  12   -0.16    1.84
 -13  14  12   -3.43    2.42
  10 -14 -12  212.88    7.98
   4  10 -12  207.28    7.70
 -10  14  12  214.22    7.40
 -10  14  12  211.03    8.12
  14  -4  12  195.75    8.31
  -4 -10  12  210.00    8.53
 -14   7 -12    1.27    1.27
   7 -14 -12    1.56    1.97
   7   7 -12    2.97    1.89
  -7  14  12    1.63    2.85
  -7  -7  12   -1.59    1.86
  -7  14  12    3.23    2.24
  14  -7  12    2.73    1.91
   4 -14 -12  203.75    8.29
 -14  10 -12  214.39    6.98
  10   4 -12  205.31    7.84
  -4  14  12  217.26    6.68
 -10  -4  12  200.27    7.03
  14 -10  12  207.87    8.50
 -14  13 -12    2.90    1.58
  13   1 -12    3.33    2.08
   1 -14 -12    1.72    2.14
 -13  -1  12    3.63    1.51
  14 -13  12    1.95    2.44
  -2 -14 -12  101.29    6.20
  16  -2 -12  117.44    6.79
 -14  16 -12  102.24    5.18
 -16   2  12  105.13    4.28
  14 -16  12  119.51    6.39
 -16   2  12  118.60    6.58
  -5 -14 -12    8.17    3.09
  19  -5 -12   10.76    4.10
 -14  19 -12   -0.87    2.59
 -19   5  12    4.02    1.85
  14 -19  12    1.69    3.17
 -19   5  12   -4.80    2.84
  -8 -14 -12   65.91   10.38
 -14  22 -12   62.40    5.98
  14 -22  12   83.66    7.10
 -22   8  12   80.39    6.70
 -11 -14 -12   -3.56    4.92
 -14  25 -12    2.24    3.75
  14 -25  12   -4.29    4.97
 -25  11  12   -0.94    4.57
 -14 -14 -12   27.84    7.27
 -15 -12 -12    6.62    5.86
 -12  27 -12   -1.05    6.42
 -27  15  12   -7.29    6.77
 -15  -9 -12   -2.53    4.42
  -9  24 -12    0.85    3.99
 -24  15  12    8.11    3.98
 -15  -6 -12    2.58    3.67
  21 -15 -12   -2.75    3.51
  -6  21 -12   -2.18    3.07
   6 -21  12   -4.14    3.73
  15   6  12    1.21    4.14
 -21  15  12    5.17    3.12
  18 -15 -12   -0.87    2.98
 -15  -3 -12   -3.30    2.45
  -3  18 -12    3.69    2.71
 -18  15  12   -0.61    3.06
  15   3  12   -0.61    2.83
   3 -18  12    4.99    4.65
 -18  15  12    0.89    2.61
   0  15 -12    5.16    2.30
  15 -15 -12    2.36    2.62
 -15  15  12    4.62    2.58
  15   0  12    6.09    2.98
   0 -15  12    9.46    3.83
 -15  15  12    4.88    2.55
   3  12 -12   -2.67    1.70
  12 -15 -12    3.46    2.11
  -3 -12  12    1.71    2.86
 -12  15  12   -0.07    1.65
  15  -3  12    0.80    2.10
 -12  15  12    2.38    2.44
 -15   6 -12   -0.47    1.36
   6   9 -12    0.61    1.62
   9 -15 -12   -4.48    2.06
  -6  -9  12    0.33    2.24
  -9  15  12   -3.17    1.37
  15  -6  12   -0.02    2.28
  -9  15  12   -1.47    2.60
   6 -15 -12    1.23    2.30
 -15   9 -12    1.76    1.51
   9   6 -12    4.82    1.89
  15  -9  12    2.85    2.22
  -9  -6  12    0.36    1.85
  -6  15  12    1.13    1.94
 -15  12 -12    0.71    1.75
  12   3 -12    1.78    2.08
   3 -15 -12   -0.97    2.12
 -12  -3  12    2.10    1.56
  15 -12  12   -2.10    2.44
  -3  15  12    0.08    1.58
   0 -15 -12   -1.01    2.61
  15   0 -12   -4.08    2.54
 -15  15 -12    4.54    2.09
 -15   0  12    0.63    1.40
  15 -15  12    0.35    2.44
  18  -3 -12   -1.16    3.11
 -15  18 -12   -1.77    2.07
  -3 -15 -12   -4.76    3.06
 -18   3  12   -2.11    1.40
  15 -18  12    4.64    3.02
 -18   3  12    1.42    2.73
  21  -6 -12    8.55    4.40
  -6 -15 -12    9.13    4.02
 -15  21 -12    7.44    3.01
 -21   6  12    2.14    3.39
  15 -21  12    1.76    3.81
  -9 -15 -12  -11.01    4.33
 -15  24 -12    2.44    3.45
  15 -24  12   -3.98    4.70
 -24   9  12    0.53    3.82
 -15  27 -12    4.75    5.25
 -12 -15 -12   -3.47    5.79
 -27  12  12    1.90    4.77
  15 -27  12  -10.41    5.89
 -16 -10 -12   24.06    6.25
 -10  26 -12   34.57    5.73
 -26  16  12   29.62    5.53
 -16  -7 -12    7.77    4.11
  -7  23 -12    2.46    3.84
  16   7  12   -3.57    3.88
 -23  16  12    0.80    4.21
  20 -16 -12   93.82    7.02
 -16  -4 -12   96.30    6.56
  -4  20 -12   96.00    6.36
  16   4  12   97.23    7.00
 -20  16  12   84.57    7.54
   4 -20  12   75.91    9.55
  17 -16 -12   -1.06    2.89
  -1  17 -12    1.64    2.60
 -16  -1 -12   -2.20    2.44
   1 -17  12   -0.57    4.28
 -17  16  12   -1.24    3.04
  16   1  12    0.22    2.82
 -17  16  12   -1.42    2.34
  14 -16 -12  129.89    6.91
   2  14 -12  135.56    6.38
  16  -2  12  130.97    7.40
  -2 -14  12  124.81    7.73
 -14  16  12  123.79    6.89
 -14  16  12  130.60    6.12
   5  11 -12    2.32    2.04
  11 -16 -12    1.93    2.21
 -11  16  12   -0.28    2.92
 -11  16  12    0.09    1.87
  16  -5  12   -1.63    2.53
  -5 -11  12   -0.78    2.74
 -16   8 -12  129.80    4.95
   8   8 -12  127.17    6.24
   8 -16 -12  132.46    6.69
  -8  -8  12  129.72    5.95
  -8  16  12  124.69    5.34
  16  -8  12  121.74    6.57
  11   5 -12    1.96    2.36
 -16  11 -12    4.26    1.81
   5 -16 -12   -1.70    1.92
  16 -11  12    0.10    2.55
  -5  16  12    0.63    1.70
 -11  -5  12    2.17    1.80
  14   2 -12   96.70    5.74
 -16  14 -12   98.49    4.95
   2 -16 -12   94.73    6.34
 -14  -2  12   90.73    3.85
  16 -14  12   98.17    6.03
 -16  17 -12    2.93    2.53
  17  -1 -12   -0.02    2.89
  -1 -16 -12    5.02    2.84
  16 -17  12    3.31    3.28
 -17   1  12    3.85    2.75
 -17   1  12    3.18    1.35
  -4 -16 -12   88.61    6.87
 -16  20 -12  101.86    6.24
  16 -20  12   95.42    7.22
  -7 -16 -12   -0.74    4.42
 -16  23 -12    9.99    3.85
 -23   7  12    8.98    4.27
  16 -23  12    4.27    4.71
 -10 -16 -12   46.01    6.92
 -16  26 -12   30.51    5.73
  16 -26  12   37.54    6.76
 -26  10  12   34.72    5.70
 -17  -8 -12   -3.73    4.84
  -8  25 -12    7.97    4.61
 -25  17  12    8.58    4.28
  22 -17 -12   -5.66    4.59
  -5  22 -12   -2.04    3.49
 -17  -5 -12   15.06    4.41
 -22  17  12   -0.36    3.82
  17   5  12    1.48    4.34
  19 -17 -12    0.93    3.47
 -17  -2 -12    5.38    3.60
  -2  19 -12    0.70    3.98
  17   2  12   -0.31    3.66
 -19  17  12    1.84    3.09
   1  16 -12   -5.02    2.47
  16 -17 -12    2.63    3.07
 -16  17  12   -3.58    2.73
  -1 -16  12   -1.76    3.99
 -16  17  12   -0.75    3.24
  17  -1  12   -2.46    3.29
   4  13 -12    0.58    2.32
  13 -17 -12    2.07    2.40
 -13  17  12    0.42    1.91
 -13  17  12   -0.51    3.29
  17  -4  12    1.29    2.70
  -4 -13  12    3.95    3.39
  10 -17 -12    5.51    2.47
   7  10 -12    1.34    2.03
 -10  17  12   -0.25    1.88
  17  -7  12    1.44    2.50
  -7 -10  12   -3.29    2.56
  10   7 -12    2.97    2.20
   7 -17 -12    3.09    2.34
 -17  10 -12    5.90    1.97
 -10  -7  12    2.65    2.04
  17 -10  12    2.40    2.55
  -7  17  12    5.42    2.01
  13   4 -12   -1.98    2.65
 -17  13 -12    1.10    1.96
   4 -17 -12    1.90    2.40
  17 -13  12    5.66    2.83
 -13  -4  12    4.08    1.61
   1 -17 -12    2.86    2.97
  16   1 -12    6.90    3.11
 -17  16 -12    2.74    2.47
 -16  -1  12    2.96    1.22
  17 -16  12    2.25    2.92
 -17  19 -12    2.89    2.60
  19  -2 -12    5.73    4.04
  -2 -17 -12   -0.05    3.53
  17 -19  12    1.51    3.75
 -19   2  12    6.06    3.58
  22  -5 -12   -5.17    4.03
  -5 -17 -12    7.08    4.56
 -17  22 -12    3.37    3.32
  17 -22  12    3.42    6.65
 -22   5  12    3.36    4.10
 -17  25 -12    7.59    4.78
  -8 -17 -12    9.18    5.14
  17 -25  12   12.27    5.38
 -25   8  12   10.30    4.49
 -18  -9 -12    9.24    6.07
 -18  -6 -12   38.97    6.47
  -6  24 -12   31.08    5.50
 -24  18  12   40.00    5.86
  18   6  12   34.74    6.57
 -18  -3 -12    9.62    4.04
  -3  21 -12   -2.12    3.07
  21 -18 -12    5.86    4.38
  18   3  12    0.14    4.24
 -21  18  12    1.38    3.42
 -18   0 -12   55.10    5.46
   0  18 -12   60.39    5.62
  18 -18 -12   61.47    6.40
 -18  18  12   77.93    5.97
  18   0  12   59.97    6.10
 -18  18  12   55.02    6.27
  15 -18 -12    0.87    2.97
   3  15 -12    4.39    2.48
  -3 -15  12    2.16    3.99
 -15  18  12    6.01    3.19
 -15  18  12    0.09    2.66
  18  -3  12    6.27    3.46
   6  12 -12   99.02    5.85
  12 -18 -12   92.33    6.46
  -6 -12  12   94.75    6.54
 -12  18  12   94.71    5.32
  18  -6  12   99.20    6.50
 -12  18  12   91.74    8.60
   9 -18 -12    2.21    2.86
 -18   9 -12    3.99    2.06
   9   9 -12    3.03    2.27
  18  -9  12    2.05    2.65
  -9  -9  12   -0.97    2.35
  -9  18  12    0.32    2.11
   6 -18 -12  145.65    7.37
 -18  12 -12  133.99    5.80
  12   6 -12  136.63    7.08
  18 -12  12  132.22    7.67
 -12  -6  12  137.26    5.29
  -6  18  12  133.49    5.73
 -18  15 -12    1.61    2.25
   3 -18 -12    2.94    3.07
  15   3 -12   -3.40    3.02
  18 -15  12    2.57    3.38
 -15  -3  12    3.54    1.13
 -15  -3  12    2.66    1.21
  18   0 -12   80.24    6.43
   0 -18 -12   81.86    7.03
 -18  18 -12   77.13    5.12
 -18   0  12   86.60    6.19
  18 -18  12   74.92    6.95
 -18  21 -12    8.45    3.18
  -3 -18 -12   -0.34    3.93
  21  -3 -12   10.41    5.22
 -21   3  12   -1.18    3.95
 -18  24 -12   41.23    5.58
  -6 -18 -12   27.74    5.68
  18 -24  12   27.29    6.35
 -24   6  12   43.70    5.59
  -9 -18 -12   -3.31    5.34
  18 -27  12    1.92    6.46
  -7  26 -12    2.68    5.24
 -19  -7 -12    4.67    5.77
 -26  19  12    6.31    5.40
  -4  23 -12    1.75    4.12
 -19  -4 -12    5.97    4.01
  23 -19 -12   -3.69    4.93
  19   4  12   -4.58    4.31
 -23  19  12    1.69    3.98
  20 -19 -12    6.66    4.34
  -1  20 -12    2.05    3.17
 -19  -1 -12   -0.14    3.48
 -20  19  12   -0.61    3.31
  19   1  12   -3.06    3.81
  17 -19 -12    3.46    3.76
   2  17 -12    2.28    2.88
 -17  19  12   -4.31    3.03
 -17  19  12   -5.31    3.63
  19  -2  12    3.16    3.66
  14 -19 -12    3.65    2.92
   5  14 -12   -1.73    2.47
  19  -5  12   -3.11    3.26
 -14  19  12   -0.12    2.37
 -14  19  12    2.46    5.73
  -5 -14  12    6.68    4.97
   8  11 -12    4.90    2.51
  11 -19 -12   -2.51    3.09
  -8 -11  12    2.53    2.95
 -11  19  12    4.01    2.45
  19  -8  12    6.21    3.30
  11   8 -12    1.29    2.62
 -19  11 -12    1.66    2.37
   8 -19 -12    0.36    2.84
  -8  19  12    5.10    2.42
 -11  -8  12    6.70    2.28
  19 -11  12    6.03    3.01
  14   5 -12    6.77    3.32
   5 -19 -12    4.20    3.41
 -19  14 -12    5.92    2.40
  19 -14  12   11.64    4.10
 -14  -5  12    8.07    1.56
   2 -19 -12   11.81    3.68
  17   2 -12    5.67    3.93
 -19  17 -12    7.53    3.00
  19 -17  12    5.68    3.48
  20  -1 -12   -0.61    4.11
 -19  20 -12   -2.21    3.23
  -1 -19 -12   -0.86    3.79
 -20   1  12   -2.28    3.46
  23  -4 -12    4.70    5.33
 -19  23 -12    3.46    4.32
  -4 -19 -12   12.95    5.19
  19 -23  12    4.64    5.25
 -23   4  12    7.12    4.44
 -19  26 -12    1.23    4.47
  -7 -19 -12   -3.61    5.72
 -26   7  12    6.83    5.48
  19 -26  12    7.79    6.34
  -5  25 -12   -0.07    4.84
 -20  -5 -12    0.80    5.27
 -25  20  12   -1.86    5.02
  20   5  12    1.75    5.86
  22 -20 -12   66.83    7.94
  -2  22 -12   41.69    5.34
 -20  -2 -12   46.68    6.50
 -22  20  12   56.64    6.67
  20   2  12   44.74    6.54
   1  19 -12   -1.84    3.26
  19 -20 -12   -1.80    3.60
 -19  20  12   -2.01    3.28
  20  -1  12    8.06    4.55
  16 -20 -12   74.99    6.95
 -16  20  12   82.27    5.94
  20  -4  12   93.19    7.51
  13 -20 -12   -0.09    3.58
   7  13 -12    5.27    3.25
 -13  20  12    0.14    2.40
  20  -7  12    4.64    3.31
  10  10 -12   83.11    5.74
  10 -20 -12   75.38    6.12
  20 -10  12   89.04    7.17
 -10  20  12   79.77    5.27
  13   7 -12    4.55    3.12
   7 -20 -12    1.26    3.59
 -20  13 -12    2.22    2.53
  20 -13  12    3.01    3.80
 -13  -7  12    3.82    1.86
  -7  20  12   -0.28    2.58
   4 -20 -12   88.27    6.62
  16   4 -12   73.16    6.97
 -20  16 -12   75.69    5.37
  20 -16  12   77.79    7.30
  19   1 -12    3.39    4.41
 -20  19 -12   -2.89    2.73
   1 -20 -12   -1.25    4.11
 -19  -1  12    1.17    3.84
  -2 -20 -12   46.91    6.51
  22  -2 -12   60.64    7.35
 -20  22 -12   54.08    6.12
 -22   2  12   61.94    6.52
  20 -22  12   45.13    6.60
  -5 -20 -12    2.28    5.16
 -20  25 -12    6.89    4.40
 -25   5  12   -6.20    5.17
  20 -25  12    5.52    6.28
  24 -21 -12    1.65    5.75
 -21  -3 -12   -0.55    4.42
  -3  24 -12   11.20    4.96
 -24  21  12    5.95    4.53
  21   3  12   -3.00    5.08
   0  21 -12    2.60    4.18
  21 -21 -12    8.73    5.18
 -21   0 -12   13.34    4.79
  21   0  12    7.12    5.19
 -21  21  12    9.76    4.33
   3  18 -12    4.25    3.31
  18 -21 -12   12.03    4.20
 -18  21  12   -0.08    3.12
  21  -3  12    0.33    4.10
  15 -21 -12   14.72    4.54
   6  15 -12   12.03    3.48
 -15  21  12    8.42    3.27
  21  -6  12   15.07    4.73
   9  12 -12    4.76    3.14
  12 -21 -12    7.00    3.92
 -12  21  12    2.92    2.93
  21  -9  12    5.98    3.68
  12   9 -12    2.95    3.07
   9 -21 -12    7.74    4.00
  -9  21  12    7.41    3.02
  21 -12  12   11.18    4.15
   6 -21 -12    7.13    3.64
 -21  15 -12   -4.34    2.71
  15   6 -12    9.82    4.81
  21 -15  12    2.23    3.65
  18   3 -12    9.48    3.95
   3 -21 -12    5.83    4.14
  21 -18  12    8.07    4.60
  21   0 -12    6.66    5.45
   0 -21 -12    5.65    4.98
 -21  21 -12    9.72    3.97
 -21   0  12   -2.45    4.55
  21 -21  12    9.06    4.98
  24  -3 -12   -8.56    5.54
  -3 -21 -12   -0.05    5.58
 -21  24 -12   -5.80    4.58
  21 -24  12   -5.16    5.72
 -24   3  12   -3.86    4.57
 -22  -4 -12   16.40    6.75
  23 -22 -12    7.07    5.77
 -22  -1 -12    6.93    5.40
  -1  23 -12    0.79    4.89
  22   1  12    6.46    5.56
 -23  22  12   -9.72    4.47
 -22   2 -12   51.83    6.42
   2  20 -12   54.90    5.94
  20 -22 -12   52.71    7.01
  22  -2  12   51.40    6.57
 -20  22  12   51.67    6.39
  17 -22 -12   -3.62    3.93
   5  17 -12    4.80    3.55
 -17  22  12   -4.27    3.60
  22  -5  12   -1.40    4.61
   8  14 -12   73.70    5.87
  14 -22 -12   81.97    7.13
  22  -8  12   63.50    7.06
 -14  22  12   69.55    5.88
  11 -22 -12    2.63    4.15
  11  11 -12    9.64    3.84
 -11  22  12    5.88    3.29
   8 -22 -12   49.41    9.88
 -22  14 -12   46.00    5.38
  14   8 -12   57.19    6.42
  22 -14  12   56.65    8.12
   5 -22 -12    4.74    4.05
  17   5 -12   -2.65    3.68
  22 -17  12    3.99    4.68
  20   2 -12   62.36    7.40
   2 -22 -12   52.48    6.79
 -22  20 -12   50.67    5.46
 -20  -2  12   50.60    6.69
  22 -20  12   50.03    7.15
 -22  23 -12    3.00    4.61
  -1 -22 -12   16.80    6.12
  23  -1 -12    1.88    5.66
 -23   1  12   13.02    5.26
  22 -23  12    8.61    6.07
  -4 -22 -12   25.24    6.56
  22 -26  12   12.24    7.12
  25 -23 -12   -1.44    7.27
 -23  -2 -12    4.86    5.60
  23   2  12   -7.18    5.74
  22 -23 -12    2.98    5.77
   1  22 -12  -11.43    4.61
 -23   1 -12   -8.85    4.81
 -22  23  12   -0.14    4.73
  23  -1  12   -6.79    5.38
   4  19 -12   -5.28    4.29
  19 -23 -12    0.69    4.89
 -19  23  12    2.83    3.72
  23  -4  12    6.67    4.71
  16 -23 -12    3.05    4.66
   7  16 -12    2.69    4.03
 -16  23  12   -4.18    3.29
  23  -7  12    1.37    4.90
  13 -23 -12    1.87    4.43
  10  13 -12   15.77    4.43
 -13  23  12   11.02    3.45
  23 -10  12   26.81    5.62
  13  10 -12    6.24    3.79
  10 -23 -12    1.46    3.97
  23 -13  12   -1.28    4.53
   7 -23 -12   13.76    5.11
  16   7 -12    7.94    4.49
  23 -16  12    3.88    5.11
   4 -23 -12   12.08    5.21
  19   4 -12    8.55    4.71
 -23  19 -12    9.31    4.14
 -19  -4  12   16.43    4.60
  23 -19  12    9.32    4.87
 -23  22 -12    5.22    4.40
  22   1 -12    8.24    6.38
   1 -23 -12    7.11    5.57
 -22  -1  12    2.98    4.85
  23 -22  12    3.87    5.15
  -2 -23 -12    4.59    6.89
  23 -25  12    1.95    6.72
  24 -24 -12   42.49    7.79
 -24   0 -12   33.15    6.89
  24   0  12   29.27    7.36
 -24   3 -12    5.52    4.71
  21 -24 -12   -5.09    5.55
   3  21 -12   -0.63    4.92
 -21  24  12   -6.61    4.11
  24  -3  12   -0.36    5.04
  18 -24 -12   51.12    6.83
   6  18 -12   48.32    6.14
  24  -6  12   45.75    6.79
 -18  24  12   52.57    6.57
   9  15 -12    2.44    3.87
  15 -24 -12    2.97    5.02
  24  -9  12   -2.20    5.08
 -15  24  12   -4.01    3.32
  12 -24 -12   65.67    8.15
  12  12 -12   59.17    7.32
  24 -12  12   58.27    7.14
 -12  24  12   57.96    6.11
  15   9 -12   -4.07    4.51
   9 -24 -12   11.77    5.13
  24 -15  12    8.68    4.67
   6 -24 -12   50.90    7.06
  18   6 -12   48.57    6.27
 -24  18 -12   35.78    5.26
  24 -18  12   46.37    7.20
  21   3 -12   -5.42    5.94
   3 -24 -12    2.02    5.64
 -24  21 -12    4.57    4.50
  24 -21  12    0.49    5.85
 -21  -3  12   -1.62    5.72
   0 -24 -12   32.97    7.33
  24 -24  12   33.62    7.09
 -25   2 -12    4.10    5.37
  23 -25 -12   -0.80    6.75
  25  -2  12  -12.75    5.85
  20 -25 -12    1.42    5.63
   5  20 -12   -0.23    5.14
  25  -5  12    5.04    6.13
 -20  25  12    5.38    4.87
   8  17 -12    0.83    4.87
  17 -25 -12   -1.38    5.43
  25  -8  12    8.11    5.00
 -17  25  12    7.12    4.65
  11  14 -12   -1.87    4.66
  14 -25 -12    5.92    4.75
  25 -11  12   10.23    5.23
 -14  25  12   -0.21    4.17
  14  11 -12   -3.43    4.93
  11 -25 -12    0.23    5.41
  25 -14  12    6.62    5.67
  17   8 -12   -1.24    5.16
   8 -25 -12    5.64    5.43
  25 -17  12    9.48    5.92
 -25  20 -12    3.00    4.74
  20   5 -12   11.10    6.32
   5 -25 -12    8.92    6.42
  25 -20  12    3.93    5.59
 -20  -5  12    6.06    5.86
   2 -25 -12   13.80    6.89
  25 -23  12    2.64    6.83
  22 -26 -12   26.54    7.78
 -26   4 -12   21.25    6.47
   7  19 -12    0.20    5.27
  19 -26 -12    6.55    6.23
  26  -7  12    4.67    5.77
 -19  26  12    4.82    5.25
  10  16 -12   41.95    5.93
  16 -26 -12   24.13    6.47
  26 -10  12   21.73    6.51
 -16  26  12   36.91    5.34
  13 -26 -12    1.42    5.67
  13  13 -12   -0.36    5.19
  26 -13  12    7.56    5.84
  16  10 -12   41.96    6.97
  10 -26 -12   30.79    6.75
  26 -16  12   45.60    7.35
  19   7 -12    6.25    6.31
   7 -26 -12    3.81    5.36
  26 -19  12    0.19    6.50
   4 -26 -12   23.01    8.08
  26 -22  12   12.62    7.53
  18 -27 -12   13.28    6.79
   9  18 -12    7.71    7.48
  27  -9  12    5.90    5.95
 -18  27  12   -0.08    5.38
  12  15 -12   23.17    6.34
  15 -27 -12   10.40    6.49
  27 -12  12   16.81    6.22
  12 -27 -12   16.00    6.49
  15  12 -12   -5.42    5.87
  27 -15  12   -6.67    5.99
   9 -27 -12    5.44    5.83
  18   9 -12   11.96    6.92
  27 -18  12    8.75    6.28
  14 -28 -12   33.50    8.47
  28 -14  12   19.28    8.77
  -1   0 -13   10.83    1.46
   0   1 -13   10.58    1.22
   1  -1 -13   12.79    1.36
  -1   0 -13    9.58    1.10
   0   1 -13   10.87    2.29
   1  -1 -13   10.20    1.18
   0   1 -13   10.41    1.28
   1  -1 -13   10.80    2.16
  -1   0 -13    6.59    2.19
   0  -1  13   10.81    2.06
  -1   1  13   10.73    2.06
   1   0  13   13.00    2.13
   0  -1  13   12.30    1.26
   1   0  13    9.48    1.50
   3  -2 -13    5.18    0.89
   3  -2 -13    3.97    1.08
  -2  -1 -13    3.83    1.08
  -2  -1 -13    4.81    1.86
  -1   3 -13    4.92    1.08
  -2  -1 -13    4.06    0.78
  -1   3 -13    1.53    2.18
   1  -3  13    4.34    1.65
   2   1  13    4.48    1.56
  -3   2  13    3.94    1.52
   1  -3  13    5.25    0.98
   2   1  13    1.55    1.11
   0  -2 -13   14.09    2.46
   2   0 -13   10.28    1.06
  -2   2 -13    9.90    1.19
  -2   2 -13    6.71    2.14
   0  -2 -13    9.43    1.15
   0  -2 -13    9.88    1.32
   2   0 -13   11.05    1.36
   0   2  13   10.76    2.09
  -2   0  13    7.65    1.85
   2  -2  13   10.22    1.97
  -3  -2 -13    4.43    1.29
  -3  -2 -13    2.29    0.56
   5  -3 -13    4.41    1.23
  -3  -2 -13    1.17    1.72
   5  -3 -13    1.91    0.87
  -2   5 -13    3.20    1.15
  -5   3  13    3.81    1.56
   3   2  13    1.73    1.27
   2  -5  13    2.25    1.66
   2  -5  13    3.21    1.02
   3   2  13    2.64    0.48
   3   2  13   -0.48    1.46
   2  -3 -13   20.93    1.61
   2  -3 -13   18.60    2.74
  -3   1 -13   18.67    1.32
   1   2 -13   16.10    1.65
   2  -3 -13   13.92    1.59
  -3   1 -13   19.75    2.83
  -2   3  13   19.39    2.32
   3  -1  13   17.98    2.44
   3  -1  13   15.53    1.84
  -1  -2  13   16.77    1.14
  -1  -2  13   18.46    2.36
  -1  -3 -13    9.77    1.52
  -1  -3 -13   11.49    1.18
   4  -1 -13    7.81    1.31
  -3   4 -13   11.29    1.35
  -1  -3 -13   12.04    2.23
   1   3  13   13.32    2.00
   3  -4  13    8.45    1.35
   3  -4  13    9.05    1.96
  -4   1  13   13.57    2.06
   1   3  13   10.53    1.54
   1   3  13   10.86    1.09
   7  -4 -13    2.43    1.26
   7  -4 -13   -0.49    0.91
  -3   7 -13    0.66    0.97
  -4  -3 -13    0.38    1.09
  -4  -3 -13    0.86    1.81
   4   3  13    1.29    1.38
  -7   4  13    1.38    1.30
   3  -7  13   -0.25    1.75
   4   3  13   -0.19    1.59
   3  -7  13    1.31    1.02
  -7   4  13    1.91    1.27
   4  -4 -13    0.24    1.04
  -4   0 -13   -0.37    0.54
   4  -4 -13    0.85    1.03
  -4   0 -13    0.71    1.63
  -4   4  13   -1.19    0.82
   0  -4  13   -0.06    0.70
   0  -4  13   -0.56    1.54
   4   0  13    1.05    1.33
   4   0  13   -0.52    1.11
  -4   4  13    2.98    1.59
  -4   3 -13    0.95    1.89
   3   1 -13    1.46    1.14
  -4   3 -13    0.18    0.73
   1  -4 -13    2.13    1.03
   1  -4 -13    1.40    0.90
   1  -4 -13   -0.71    1.67
  -1   4  13   -0.89    1.39
  -3  -1  13    0.64    1.25
   4  -3  13    2.20    1.55
   4  -3  13    0.67    1.01
  -1   4  13    1.83    0.80
   6  -2 -13    2.99    1.26
  -4   6 -13    2.81    1.07
  -2  -4 -13    1.58    1.19
  -2  -4 -13    3.03    1.84
   2   4  13    0.48    1.24
   4  -6  13    5.65    1.93
  -6   2  13    3.62    1.46
   4  -6  13    3.54    1.17
   2   4  13    1.70    1.60
   9  -5 -13    8.98    1.48
  -4   9 -13    6.79    1.48
  -5  -4 -13    9.85    1.97
   9  -5 -13   11.83    1.96
  -5  -4 -13    6.05    1.98
   5   4  13   10.32    2.13
  -9   5  13    9.78    1.80
  -9   5  13    9.28    1.72
   4  -9  13   10.15    2.47
   4  -9  13    9.41    1.65
   5   4  13    9.76    2.07
  -1   6 -13    6.26    1.38
   6  -5 -13    6.05    1.23
   6  -5 -13    3.81    1.25
  -5  -1 -13    2.61    1.78
  -5  -1 -13    6.71    1.43
   1  -6  13    3.05    1.02
   1  -6  13    4.92    2.07
   5   1  13    4.43    1.70
   5   1  13    3.98    1.55
  -6   5  13    3.84    1.32
  -6   5  13    5.16    1.64
   2   3 -13    5.27    1.25
   3  -5 -13    6.92    2.17
  -5   2 -13    4.57    2.25
   3  -5 -13    4.69    1.30
   3  -5 -13    6.41    1.22
  -3   5  13    4.75    1.56
  -3   5  13    7.20    1.18
  -2  -3  13    5.51    1.70
   5  -2  13    3.93    1.72
   5  -2  13    6.42    1.49
   5   0 -13   22.54    2.02
   0  -5 -13   22.12    1.99
  -5   5 -13   22.19    1.68
   0  -5 -13   22.47    2.77
  -5   0  13   25.05    2.62
   0   5  13   25.43    1.36
   0   5  13   20.82    2.44
   5  -5  13   27.13    2.21
  -3  -5 -13   26.28    2.61
   8  -3 -13   29.66    1.74
  -5   8 -13   24.66    2.03
   8  -3 -13   24.84    2.45
   5  -8  13   28.75    3.61
  -8   3  13   28.48    2.63
   3   5  13   25.85    2.95
   3   5  13   26.84    2.72
   5  -8  13   26.00    2.23
  -5  11 -13   -1.33    1.21
  11  -6 -13   -1.84    1.26
  11  -6 -13    0.26    1.58
  -6  -5 -13    0.18    1.42
  -6  -5 -13    3.53    2.37
   5 -11  13    1.36    1.56
   6   5  13   -1.00    1.56
   5 -11  13    2.91    2.45
 -11   6  13   -0.72    1.61
 -11   6  13    0.20    1.66
  -6  -2 -13   19.71    2.71
  -2   8 -13   27.52    2.27
  -6  -2 -13   26.52    2.61
   8  -6 -13   27.88    2.13
   8  -6 -13   25.51    2.74
  -8   6  13   29.17    2.87
   6   2  13   29.08    2.94
   2  -8  13   23.87    3.17
   6   2  13   24.96    2.83
  -8   6  13   27.56    2.55
   5  -6 -13   12.18    1.74
   1   5 -13   12.38    1.65
   5  -6 -13   13.34    1.64
  -6   1 -13   14.27    1.02
  -1  -5  13   13.88    0.94
  -5   6  13   13.57    2.05
  -1  -5  13   13.51    2.44
   6  -1  13   15.21    2.30
   6  -1  13   10.43    1.79
  -5   6  13   15.13    1.73
  -6   4 -13    0.25    0.78
   4   2 -13    1.44    1.01
   2  -6 -13    0.56    1.09
   2  -6 -13    2.49    1.91
  -4  -2  13    1.25    1.44
   6  -4  13   -1.73    1.49
   6  -4  13    0.35    1.20
  -2   6  13    0.65    0.85
   7  -1 -13    2.48    1.23
  -6   7 -13    1.91    0.99
  -1  -6 -13    1.40    1.37
  -1  -6 -13    1.96    1.86
   6  -7  13    3.16    1.26
   1   6  13    4.17    1.70
   6  -7  13    1.69    2.30
  -7   1  13    1.48    1.41
   1   6  13   -0.23    0.52
  10  -4 -13    2.57    1.88
  -6  10 -13    3.06    1.53
  -4  -6 -13   -1.34    2.20
  -4  -6 -13    0.63    1.49
  10  -4 -13    2.50    1.23
   6 -10  13    2.29    1.49
   4   6  13    1.34    1.67
   4   6  13    3.30    2.00
 -10   4  13    4.08    2.11
   6 -10  13    4.09    2.66
 -10   4  13    2.31    1.51
  13  -7 -13    4.32    1.74
  13  -7 -13    1.44    2.08
  -7  -6 -13   11.23    2.49
  -6  13 -13    8.95    1.95
 -13   7  13    6.59    2.06
   6 -13  13    1.22    3.39
   6 -13  13    6.18    1.85
   7   6  13   10.39    2.75
 -13   7  13    7.40    2.34
  -7  -3 -13   60.57    3.83
  10  -7 -13   63.28    4.10
  -7  -3 -13   58.80    4.37
  -3  10 -13   53.21    3.86
  10  -7 -13   54.26    3.13
 -10   7  13   49.50    3.64
   7   3  13   60.15    3.95
   3 -10  13   54.27    3.01
 -10   7  13   56.68    3.63
   7   3  13   59.70    3.86
   3 -10  13   55.19    5.00
   7  -7 -13    5.00    1.45
   7  -7 -13    4.02    1.66
  -7   0 -13    4.84    2.17
   0   7 -13    4.33    1.36
   7   0  13    4.08    1.51
   0  -7  13    3.81    1.93
  -7   7  13    4.21    1.39
  -7   7  13    3.10    1.74
   0  -7  13    4.24    1.00
   7   0  13    2.81    1.97
   4  -7 -13    2.25    2.16
  -7   3 -13    4.12    2.03
   3   4 -13    3.80    1.26
   4  -7 -13    4.70    1.33
  -7   3 -13    3.10    0.83
  -4   7  13    1.39    1.00
   7  -3  13    3.89    1.47
   7  -3  13    3.39    1.95
  -4   7  13    0.07    1.38
  -3  -4  13    4.77    1.71
   1  -7 -13    9.66    2.10
   1  -7 -13    8.88    2.42
   6   1 -13   10.64    1.73
  -7   6 -13    7.87    1.26
  -1   7  13   10.07    1.25
   7  -6  13   10.74    2.37
  -6  -1  13   10.80    1.90
   7  -6  13   11.12    1.86
  -1   7  13    9.83    2.09
  -7   9 -13    1.30    1.26
  -2  -7 -13    4.17    1.59
   9  -2 -13    3.65    1.47
  -2  -7 -13    6.21    2.44
   7  -9  13    4.15    2.33
   7  -9  13    2.02    1.45
  -9   2  13    2.33    1.42
   2   7  13    1.37    1.72
  12  -5 -13   29.43    3.55
  -7  12 -13   25.20    2.47
  12  -5 -13   27.74    2.61
  -5  -7 -13   26.75    2.99
   7 -12  13   27.86    2.89
 -12   5  13   27.75    3.10
   7 -12  13   31.54    4.43
 -12   5  13   27.55    3.30
  15  -8 -13    5.09    2.57
  -8  -7 -13    2.18    2.33
  15  -8 -13    0.64    2.05
  -7  15 -13   -2.74    1.76
 -15   8  13    1.88    1.84
   7 -15  13    6.15    4.07
   7 -15  13   -4.58    1.98
 -15   8  13   -0.81    2.01
   8   7  13   -3.07    2.28
  -8  -4 -13    2.68    1.92
  12  -8 -13    1.08    1.66
  -4  12 -13    1.02    1.41
  12  -8 -13    0.47    1.89
   4 -12  13   -0.62    1.50
   4 -12  13   -5.99    2.72
 -12   8  13    1.74    1.57
   8   4  13    0.12    1.81
 -12   8  13   -1.08    1.77
   9  -8 -13    7.46    1.63
  -8  -1 -13    9.31    2.41
  -1   9 -13    5.16    1.52
   1  -9  13    3.75    2.35
  -9   8  13    7.07    1.99
   8   1  13    6.33    2.15
  -9   8  13    9.03    1.71
   8   1  13    7.63    2.19
  -8   2 -13    8.50    2.28
   6  -8 -13    1.93    1.33
   2   6 -13    5.20    1.37
  -8   2 -13    6.52    0.84
   8  -2  13    5.13    1.56
   8  -2  13    6.28    2.01
  -6   8  13    3.40    1.22
  -6   8  13    6.54    1.73
  -2  -6  13    4.17    1.95
   5   3 -13    5.32    1.43
  -8   5 -13    5.47    1.06
   3  -8 -13    9.03    2.63
  -3   8  13    5.78    1.16
  -3   8  13    8.85    2.06
  -5  -3  13    3.47    1.56
   8  -5  13    3.94    2.11
   8  -5  13    6.47    1.60
   8   0 -13    0.72    1.29
   0  -8 -13    0.54    1.29
   0  -8 -13   -2.59    2.29
  -8   8 -13    0.63    1.07
   0   8  13    1.90    0.77
  -8   0  13    1.44    1.42
   0   8  13   -1.68    1.48
   8  -8  13    2.06    1.45
  11  -3 -13    5.47    1.93
  -3  -8 -13    4.17    1.87
  -8  11 -13    3.70    1.42
   8 -11  13    6.33    2.86
 -11   3  13    2.15    1.65
   8 -11  13    6.35    1.90
  14  -6 -13    0.68    2.08
  -8  14 -13    1.81    1.60
  -6  -8 -13    2.09    1.97
   8 -14  13   -1.61    3.54
 -14   6  13    1.43    1.65
 -14   6  13   -0.68    1.82
   8 -14  13   -1.25    1.82
  -9  -8 -13    9.41    2.94
  -8  17 -13    2.75    2.22
   8 -17  13   -4.55    6.95
 -17   9  13    8.31    2.56
 -17   9  13    5.12    2.23
   8 -17  13    8.24    2.74
  14  -9 -13   53.55    3.71
  -9  -5 -13   59.79    4.22
  -5  14 -13   59.26    3.77
   9   5  13   58.42    4.58
 -14   9  13   56.66    4.00
 -14   9  13   62.00    4.13
   5 -14  13   55.74    6.27
   5 -14  13   59.06    3.90
  -2  11 -13    2.70    1.45
  11  -9 -13    1.37    1.60
  -9  -2 -13    5.29    2.44
 -11   9  13    3.08    1.96
   2 -11  13    2.29    1.46
 -11   9  13    0.78    1.53
   2 -11  13    5.02    2.78
   8  -9 -13   65.41    3.51
  -9   1 -13   65.81    4.48
  -1  -8  13   55.15    4.45
  -1  -8  13   65.09    2.55
  -8   9  13   64.66    3.47
  -8   9  13   60.54    4.05
   9  -1  13   56.64    4.09
   9  -1  13   63.09    3.91
   4   5 -13    6.24    1.48
   5  -9 -13    6.39    1.61
  -9   4 -13    7.31    1.10
  -4  -5  13    5.96    2.08
  -5   9  13    6.96    1.31
   9  -4  13    6.79    2.32
  -5   9  13    4.26    1.81
   9  -4  13    5.93    1.71
  -9   7 -13   20.94    1.99
   2  -9 -13   29.50    3.76
   7   2 -13   24.34    2.46
   2  -9 -13   23.07    2.67
  -2   9  13   21.06    2.85
   9  -7  13   21.74    2.74
  -2   9  13   19.94    1.71
  -7  -2  13   29.21    2.75
  -1  -9 -13   24.96    3.39
  10  -1 -13   17.53    2.48
  -9  10 -13   17.67    2.00
   9 -10  13   24.40    2.80
 -10   1  13   19.47    2.34
  13  -4 -13   10.91    2.72
  -9  13 -13   12.07    2.01
  -4  -9 -13    9.99    2.60
 -13   4  13   12.90    1.98
   9 -13  13    7.70    3.30
   9 -13  13    8.34    2.32
 -13   4  13   12.23    2.51
  16  -7 -13   26.87    4.03
  -9  16 -13   27.43    3.28
  -7  -9 -13   21.84    3.60
 -16   7  13   23.74    3.29
 -16   7  13   20.86    2.67
   9 -16  13   24.20    5.39
   9 -16  13   21.83    3.26
 -10  -9 -13    0.85    2.57
  -9  19 -13    0.19    2.58
 -19  10  13   -1.83    2.30
   9 -19  13    6.09    3.09
 -19  10  13   -1.01    2.80
 -10  -6 -13   -0.81    2.07
  -6  16 -13    3.21    2.04
  16 -10 -13    4.37    2.47
   6 -16  13    1.54    4.42
 -16  10  13    4.31    2.11
  10   6  13    1.20    2.45
 -16  10  13    4.28    2.33
   6 -16  13    6.98    2.52
  -3  13 -13    1.91    1.65
 -10  -3 -13    1.66    1.74
  13 -10 -13   -1.36    1.88
 -13  10  13    0.03    1.89
 -13  10  13    4.61    1.77
  10   3  13    3.33    2.15
   3 -13  13   -2.81    2.64
   3 -13  13    4.78    1.78
   0  10 -13    0.22    1.52
  10 -10 -13   -0.09    1.56
 -10   0 -13   -0.52    2.20
   0 -10  13    1.64    2.43
   0 -10  13    0.28    1.24
 -10  10  13    1.90    1.87
  10   0  13    1.59    2.05
 -10  10  13    6.72    1.91
   3   7 -13    7.43    1.68
 -10   3 -13    6.90    1.22
   7 -10 -13    5.38    1.71
  -3  -7  13    3.41    1.99
  -7  10  13    3.82    2.01
  -7  10  13    5.03    1.33
  10  -3  13    6.60    1.88
  10  -3  13    2.46    2.11
   4 -10 -13   -2.94    2.80
   6   4 -13    1.94    1.52
 -10   6 -13    1.76    1.02
   4 -10 -13   -3.08    1.40
  -4  10  13    0.60    1.07
  10  -6  13    0.58    1.57
  10  -6  13    4.04    2.37
  -6  -4  13    0.85    1.67
  -4  10  13    0.91    1.77
   9   1 -13    7.28    1.90
 -10   9 -13    8.62    1.51
   1 -10 -13   10.62    3.42
  -1  10  13   11.91    2.40
  -9  -1  13   10.61    1.95
  -1  10  13   12.14    1.30
  10  -9  13   11.97    2.36
  10  -9  13    9.27    3.02
  12  -2 -13    1.48    2.00
  -2 -10 -13    1.40    1.89
 -10  12 -13    0.38    1.46
 -12   2  13    2.21    1.51
  10 -12  13    1.22    2.98
  10 -12  13    0.96    2.01
 -10  15 -13   20.18    2.83
  -5 -10 -13   19.47    3.30
  15  -5 -13   21.37    3.30
 -15   5  13   19.65    2.45
 -15   5  13   23.36    3.18
  10 -15  13   22.92    3.14
  18  -8 -13    0.01    2.82
  -8 -10 -13    0.98    2.78
 -10  18 -13    3.71    2.17
 -18   8  13    1.54    2.13
 -18   8  13    0.59    2.27
  10 -18  13    1.81    2.66
 -10  21 -13    8.54    3.10
 -11 -10 -13    4.48    3.66
  10 -21  13    2.83    3.46
 -21  11  13    1.12    3.55
  -7  18 -13   36.38    4.30
  18 -11 -13   35.29    4.26
 -11  -7 -13   39.08    4.96
 -18  11  13   34.40    4.38
   7 -18  13   44.36    6.73
 -18  11  13   37.48    4.12
   7 -18  13   34.59    4.26
  11   7  13   42.98    5.46
  15 -11 -13    4.99    2.20
  -4  15 -13    0.91    1.87
 -11  -4 -13   -2.39    2.17
 -15  11  13    1.59    2.09
  11   4  13    0.83    2.57
   4 -15  13    0.88    2.10
 -15  11  13    3.17    2.05
   4 -15  13    3.99    3.44
  -1  12 -13   32.36    2.95
  12 -11 -13   29.74    3.38
   1 -12  13   29.23    6.11
  11   1  13   36.82    3.70
 -12  11  13   38.66    3.44
   1 -12  13   31.85    2.84
 -12  11  13   35.21    3.48
   9 -11 -13    5.40    1.92
   2   9 -13    5.87    1.70
  -2  -9  13    4.18    2.36
  -9  11  13    4.61    2.00
  -9  11  13    5.19    1.71
   6 -11 -13   22.77    2.61
 -11   5 -13   24.20    1.88
   5   6 -13   27.53    2.55
  -6  11  13   17.41    2.11
  -6  11  13   30.39    3.55
  -5  -6  13   27.40    3.46
  11  -5  13   18.22    4.29
   8   3 -13    7.94    1.95
 -11   8 -13    9.01    1.50
  -3  11  13    9.84    1.47
  11  -8  13    8.13    2.23
  -8  -3  13    9.11    2.16
   0 -11 -13    1.73    1.96
  11   0 -13    4.82    2.00
 -11  11 -13    7.25    1.64
  11 -11  13    6.42    2.12
 -11   0  13    2.62    1.60
  -3 -11 -13   34.72    3.92
 -11  14 -13   25.88    2.75
  14  -3 -13   29.62    3.66
  11 -14  13   28.58    3.51
 -14   3  13   25.70    2.93
 -14   3  13   34.03    3.66
 -11  17 -13   -0.79    1.93
  -6 -11 -13   -0.10    2.62
  17  -6 -13    4.69    3.19
 -17   6  13    0.60    1.91
 -17   6  13    3.83    2.41
  11 -17  13   -2.08    2.19
  -9 -11 -13   31.21    4.73
 -11  20 -13   29.77    4.01
 -20   9  13   27.80    4.40
  11 -20  13   27.36    4.32
 -11  23 -13    5.88    3.45
 -12 -11 -13    1.59    4.53
  11 -23  13    8.32    4.38
 -23  12  13   -4.92    3.88
 -12  -8 -13    0.66    3.42
  -8  20 -13   -3.93    2.39
 -20  12  13    1.22    3.13
   8 -20  13    1.98    3.08
  -5  17 -13    3.83    2.47
  17 -12 -13    7.96    2.91
 -12  -5 -13    8.38    3.05
  12   5  13    4.40    3.20
 -17  12  13    5.48    2.75
   5 -17  13   -3.78    4.63
 -17  12  13    8.59    2.78
  -2  14 -13    7.73    2.19
  14 -12 -13    6.62    2.42
 -12  -2 -13    3.00    2.11
   2 -14  13    5.15    2.27
  12   2  13    2.94    2.46
 -14  12  13    4.24    2.22
 -14  12  13    0.27    1.84
   2 -14  13    5.23    3.23
  11 -12 -13    2.36    1.86
   1  11 -13    3.06    1.84
 -11  12  13    1.88    2.29
  12  -1  13    4.10    2.05
 -11  12  13    1.80    1.76
  -1 -11  13    2.94    2.97
   4   8 -13    4.39    1.59
   8 -12 -13   -0.09    1.81
 -12   4 -13    2.47    1.09
  12  -4  13    4.43    1.97
  -4  -8  13    4.84    2.32
  -8  12  13    3.60    1.44
  -8  12  13    3.35    2.29
 -12   7 -13   12.89    1.68
   7   5 -13   11.68    2.19
   5 -12 -13   12.99    2.30
  12  -7  13    7.89    2.22
  -5  12  13   16.55    2.99
  -5  12  13   12.84    1.73
  -7  -5  13   13.25    2.50
  10   2 -13    9.26    2.16
   2 -12 -13    9.62    2.41
 -12  10 -13    6.07    1.67
  -2  12  13    7.46    1.39
 -10  -2  13    9.85    1.95
  13  -1 -13    6.17    2.48
  -1 -12 -13    9.12    2.32
 -12  13 -13   10.17    2.02
  12 -13  13    8.14    2.46
 -13   1  13   11.57    2.00
  16  -4 -13    3.54    2.73
  -4 -12 -13    2.39    2.69
 -12  16 -13    3.08    1.94
 -16   4  13    3.91    1.82
  12 -16  13    2.92    2.53
 -16   4  13    1.58    2.54
  -7 -12 -13   -0.18    2.92
 -12  19 -13    6.63    2.96
  19  -7 -13    3.98    3.78
  12 -19  13   12.69    3.46
 -19   7  13    6.44    3.31
 -19   7  13   10.03    2.49
 -12  22 -13    0.72    3.03
 -10 -12 -13   -4.23    3.85
  12 -22  13    3.60    3.82
 -22  10  13    1.15    3.41
 -12  25 -13    4.44    4.77
 -13 -12 -13   10.85    5.47
 -25  13  13   15.33    5.06
  12 -25  13    4.59    5.03
  -9  22 -13   41.59    4.92
 -13  -9 -13   36.62    5.30
 -22  13  13   43.84    5.12
   9 -22  13   27.53    4.74
 -13  -6 -13   14.73    3.77
  -6  19 -13   10.65    2.78
  19 -13 -13    9.69    3.57
  13   6  13    9.53    3.97
   6 -19  13    5.02    5.54
 -19  13  13   12.24    3.47
   6 -19  13    4.80    3.07
 -19  13  13   15.00    3.29
  16 -13 -13   45.52    4.49
 -13  -3 -13   49.32    4.75
  -3  16 -13   41.97    3.87
 -16  13  13   37.64    3.91
   3 -16  13   42.12    5.76
   3 -16  13   54.72    4.16
  13   3  13   39.69    5.24
 -16  13  13   41.95    4.56
   0  13 -13    1.44    1.92
   0 -13  13    0.60    3.19
  13   0  13    1.87    2.52
 -13  13  13    0.75    2.37
 -13  13  13    0.34    1.97
  10 -13 -13   48.12    4.06
   3  10 -13   57.10    3.78
 -10  13  13   50.37    3.61
 -10  13  13   58.72    4.27
  -3 -10  13   49.02    4.85
  13  -3  13   47.63    4.07
 -13   6 -13   18.06    2.03
   6   7 -13   18.12    2.74
  -7  13  13   16.64    2.11
  13  -6  13   17.23    2.94
  -7  13  13   20.71    2.95
  -6  -7  13   15.83    2.71
   9   4 -13   -0.02    1.67
 -13   9 -13    2.73    1.34
   4 -13 -13    2.72    1.84
  -9  -4  13    3.58    1.82
  13  -9  13    0.70    1.90
  -4  13  13    1.85    1.40
  -4  13  13    6.21    3.00
 -13  12 -13   11.00    2.12
   1 -13 -13   12.34    2.72
  12   1 -13    9.94    2.47
  13 -12  13   12.82    2.61
 -12  -1  13   15.81    2.04
  15  -2 -13    6.25    2.51
 -13  15 -13    6.98    1.92
  -2 -13 -13    5.94    2.82
  13 -15  13    0.20    2.66
 -15   2  13    5.32    2.48
 -15   2  13    6.55    1.82
  18  -5 -13   43.19    5.17
 -13  18 -13   37.27    4.10
  -5 -13 -13   30.79    4.65
 -18   5  13   33.79    3.46
  13 -18  13   33.46    4.50
 -18   5  13   32.43    4.27
 -13  21 -13    2.12    2.61
  -8 -13 -13   -2.34    3.01
  13 -21  13   -6.06    3.42
 -21   8  13   -1.88    2.96
 -13  24 -13   33.59    5.31
 -11 -13 -13   24.61    5.27
 -24  11  13   29.57    5.57
  13 -24  13   29.31    5.66
 -14 -13 -13    6.17    5.84
 -14 -10 -13   -0.67    4.54
 -10  24 -13    1.94    3.52
 -24  14  13   -3.35    4.28
 -14  -7 -13   -1.56    3.13
  -7  21 -13    4.68    3.44
 -21  14  13    4.64    3.54
  14   7  13    3.53    3.65
  -4  18 -13    4.45    2.50
 -14  -4 -13    2.55    2.61
  18 -14 -13   -0.19    3.24
 -18  14  13    2.31    2.84
 -18  14  13   -2.54    2.77
  14   4  13    2.23    2.90
   4 -18  13   -2.53    4.82
 -14  -1 -13    6.20    2.48
  15 -14 -13    5.94    2.72
  -1  15 -13    6.84    2.40
  14   1  13    7.52    2.83
 -15  14  13    8.77    2.81
 -15  14  13    5.45    2.37
   1 -15  13    5.21    3.74
  12 -14 -13    1.80    2.33
   2  12 -13   -2.15    1.91
  14  -2  13   -2.02    2.11
 -12  14  13    0.29    1.75
  -2 -12  13   -1.77    2.90
   9 -14 -13    7.21    2.26
   5   9 -13    8.85    2.13
  -9  14  13    6.53    1.90
  -9  14  13   11.02    2.71
  -5  -9  13   10.80    2.80
  14  -5  13   10.47    2.78
   8   6 -13    3.88    2.07
 -14   8 -13    2.03    1.46
   6 -14 -13    5.17    1.99
  -8  -6  13    3.72    2.07
  -6  14  13    4.59    1.62
  14  -8  13    2.00    2.07
  -6  14  13    6.54    2.56
  11   3 -13   18.91    2.84
   3 -14 -13   14.77    3.00
 -14  11 -13   14.97    2.13
 -11  -3  13   15.74    2.25
  -3  14  13   15.58    1.96
  14 -11  13   10.48    2.60
 -14  14 -13   -0.90    1.76
   0 -14 -13    1.13    2.43
  14   0 -13    2.16    2.48
  14 -14  13   -0.15    2.49
 -14   0  13    0.80    1.55
 -14  17 -13   11.81    2.62
  -3 -14 -13    7.48    2.93
  17  -3 -13   10.97    3.38
 -17   3  13   11.86    3.12
  14 -17  13   15.06    3.29
 -17   3  13   12.89    2.00
 -14  20 -13    4.80    2.70
  -6 -14 -13    2.41    3.49
  14 -20  13    3.96    3.73
 -14  23 -13   18.51    4.47
  -9 -14 -13   17.87    5.25
  14 -23  13   28.94    8.21
 -23   9  13   22.58    4.70
 -12 -14 -13   -0.73    4.95
 -14  26 -13    4.21    4.40
  14 -26  13  -12.61    5.46
 -26  12  13    5.12    4.42
 -15 -11 -13   38.27    6.76
 -11  26 -13   35.09    5.68
 -26  15  13   30.73    5.67
  -8  23 -13   13.42    4.30
 -15  -8 -13   16.18    4.46
 -23  15  13   21.20    4.79
  20 -15 -13   68.02    6.29
 -15  -5 -13   68.58    6.34
  -5  20 -13   85.52    6.06
 -20  15  13   60.96    6.19
   5 -20  13   68.48    8.65
  15   5  13   66.17    7.06
  17 -15 -13    5.22    3.09
 -15  -2 -13   -0.75    2.51
  -2  17 -13   -2.83    2.14
 -17  15  13   -0.30    2.78
  15   2  13    0.75    2.98
 -17  15  13   -2.03    2.99
   2 -17  13    5.93    4.42
   1  14 -13   29.93    3.55
  14 -15 -13   32.70    4.22
  15  -1  13   31.88    4.40
 -14  15  13   36.69    4.17
  -1 -14  13   27.76    4.98
 -14  15  13   30.63    3.52
  11 -15 -13   -3.94    1.93
   4  11 -13    1.28    2.06
 -11  15  13    3.73    2.84
  -4 -11  13   -0.68    2.78
 -11  15  13    1.78    1.90
  15  -4  13   -1.39    1.97
 -15   7 -13   28.46    2.49
   7   8 -13   26.26    3.22
   8 -15 -13   33.14    3.96
  -8  15  13   28.69    3.63
  15  -7  13   39.52    3.94
  -7  -8  13   26.66    3.41
  -8  15  13   24.61    2.83
  10   5 -13   10.05    2.41
   5 -15 -13    8.79    2.35
 -15  10 -13    6.84    1.85
  -5  15  13    7.93    2.06
  15 -10  13    8.72    2.99
 -10  -5  13    6.77    2.13
   2 -15 -13   12.44    2.92
  13   2 -13   17.19    3.33
 -15  13 -13   13.31    2.33
  15 -13  13   14.60    3.39
 -13  -2  13   17.88    2.14
  -1 -15 -13   26.37    4.02
 -15  16 -13   40.11    3.91
  16  -1 -13   34.08    4.62
  15 -16  13   35.52    4.51
 -16   1  13   36.53    2.90
 -16   1  13   37.83    4.54
  19  -4 -13    3.60    3.73
  -4 -15 -13    0.87    3.76
 -15  19 -13    5.22    2.93
 -19   4  13   -0.52    3.01
  15 -19  13    1.10    3.41
  -7 -15 -13   47.44    6.19
 -15  22 -13   45.33    5.00
  15 -22  13   46.36    5.86
 -22   7  13   43.70    5.29
 -15  25 -13   -0.62    3.99
 -10 -15 -13   -0.27    5.22
 -25  10  13    2.86    4.22
  15 -25  13   10.44    5.80
  -9  25 -13   -0.62    4.30
 -16  -9 -13   -4.39    4.92
 -25  16  13    3.70    4.77
  -6  22 -13    6.42    3.48
 -16  -6 -13    1.13    3.67
  16   6  13    5.28    3.95
 -22  16  13    4.81    4.20
 -16  -3 -13    1.40    2.99
  19 -16 -13    3.14    3.69
 -19  16  13    0.21    2.73
  16   3  13    4.45    3.21
   3 -19  13    7.17    5.69
  16 -16 -13    0.26    2.98
   0  16 -13    1.44    2.39
 -16  16  13   -2.77    2.29
 -16  16  13    4.59    3.37
  16   0  13    2.14    2.88
   0 -16  13    8.33    4.42
  13 -16 -13   13.50    3.20
   3  13 -13    7.20    2.43
 -13  16  13    7.10    2.48
 -13  16  13   13.87    3.56
  -3 -13  13   10.86    3.62
  16  -3  13   11.46    2.94
  10 -16 -13    1.69    2.17
   6  10 -13    3.64    2.19
  -6 -10  13    4.85    2.72
 -10  16  13   -0.18    3.11
  16  -6  13   -3.21    2.23
 -10  16  13    0.41    1.86
   9   7 -13   14.58    2.76
   7 -16 -13   11.61    3.06
 -16   9 -13   15.47    2.21
  -7  16  13   12.57    2.28
  16  -9  13   14.08    3.33
  -9  -7  13   14.87    2.73
   4 -16 -13   -2.82    2.56
  12   4 -13    0.14    2.38
 -16  12 -13   -0.48    1.88
 -12  -4  13   -0.62    1.71
  16 -12  13   -0.01    2.73
 -16  15 -13   32.65    3.60
   1 -16 -13   31.03    4.43
  15   1 -13   29.59    3.93
 -15  -1  13   33.32    2.86
  16 -15  13   27.55    4.17
 -16  18 -13    6.22    2.75
  18  -2 -13   -0.66    3.70
  -2 -16 -13   -4.09    2.82
 -18   2  13   -0.68    1.55
 -18   2  13    1.49    3.30
  16 -18  13   -1.59    3.41
  21  -5 -13   12.55    4.41
  -5 -16 -13   16.21    4.98
 -16  21 -13   13.83    3.75
 -21   5  13   18.26    4.01
  16 -21  13   13.15    4.55
 -16  24 -13    3.16    4.09
  -8 -16 -13   -1.23    4.24
 -24   8  13    0.81    4.42
  16 -24  13    7.87    5.09
 -11 -16 -13    5.61    5.53
  16 -27  13   -2.07    6.41
 -17 -10 -13   -4.23    5.99
 -17  -7 -13   31.69    6.03
  -7  24 -13   39.29    5.67
 -24  17  13   28.07    5.42
  -4  21 -13    2.26    3.09
 -17  -4 -13   11.46    4.20
  21 -17 -13   14.38    4.39
 -21  17  13    5.53    3.49
  17   4  13    5.88    4.45
  18 -17 -13   30.77    4.65
 -17  -1 -13   26.10    4.46
  -1  18 -13   30.71    4.03
  17   1  13   34.18    5.42
 -18  17  13   29.37    4.09
 -18  17  13   20.58    4.46
  15 -17 -13    0.69    2.98
   2  15 -13   -4.09    2.49
 -15  17  13    2.01    2.40
  -2 -15  13    2.14    4.09
 -15  17  13   -2.56    3.45
  17  -2  13    5.90    3.00
  12 -17 -13   20.65    3.78
   5  12 -13   19.98    3.17
  -5 -12  13   25.58    4.04
 -12  17  13   23.27    3.79
  17  -5  13   19.93    3.47
 -12  17  13   21.67    3.23
   9 -17 -13   -2.38    2.23
   8   9 -13    4.79    2.21
  17  -8  13    1.76    2.70
  -9  17  13    6.83    2.10
  -8  -9  13    2.98    2.58
   6 -17 -13   28.63    4.00
  11   6 -13   31.20    3.83
 -17  11 -13   34.43    3.33
  -6  17  13   28.99    3.46
  17 -11  13   26.33    4.04
 -11  -6  13   28.64    3.56
   3 -17 -13   11.78    3.57
 -17  14 -13   12.67    2.56
  14   3 -13    9.66    3.04
 -14  -3  13    8.75    1.91
  17 -14  13   13.11    3.23
 -17  17 -13    6.26    2.86
   0 -17 -13    6.19    3.46
  17   0 -13   11.93    3.89
 -17   0  13    4.38    1.49
 -17   0  13    7.78    3.55
  17 -17  13    3.13    3.04
  20  -3 -13   12.63    5.07
 -17  20 -13   10.92    3.72
  17 -20  13    8.83    3.98
 -20   3  13    7.32    4.21
  -6 -17 -13   -1.19    4.26
 -17  23 -13    6.95    4.07
 -23   6  13   -0.70    3.77
  17 -23  13    9.39    4.97
  -9 -17 -13   19.96    6.44
 -17  26 -13   28.26    5.71
 -26   9  13   25.76    5.58
  17 -26  13   29.80    6.69
 -18  -8 -13   -3.61    5.30
  -8  26 -13    0.07    5.33
 -26  18  13    9.60    5.04
  -5  23 -13   -0.52    3.67
 -18  -5 -13   -0.20    4.48
  18   5  13    1.57    5.06
 -23  18  13    2.35    4.72
 -18  -2 -13    1.17    3.56
  20 -18 -13   -3.31    4.14
  -2  20 -13   -0.95    3.05
 -20  18  13   -0.35    3.22
  18   2  13   -4.24    3.85
  17 -18 -13   22.22    4.38
   1  17 -13   21.84    3.86
 -17  18  13   21.06    3.94
  18  -1  13   21.89    4.60
 -17  18  13   14.14    4.21
  14 -18 -13    4.71    2.89
   4  14 -13    0.10    2.33
  -4 -14  13    2.18    3.88
  18  -4  13    2.48    3.20
 -14  18  13    6.83    3.83
 -14  18  13   -0.88    2.55
   7  11 -13   20.48    3.39
  11 -18 -13   17.73    3.36
  -7 -11  13   16.63    3.58
 -11  18  13   16.52    2.83
  18  -7  13   21.18    4.15
  10   8 -13   -1.61    2.22
   8 -18 -13    1.18    2.87
 -18  10 -13   -0.96    2.00
 -10  -8  13    2.09    2.40
  18 -10  13   -7.53    2.92
  -8  18  13   -1.64    2.17
  13   5 -13   19.73    3.51
 -18  13 -13   19.96    2.94
   5 -18 -13   15.50    3.78
  18 -13  13   16.34    3.70
 -13  -5  13   16.56    2.33
 -18  16 -13   -1.28    2.52
  16   2 -13    1.07    3.11
   2 -18 -13   12.36    3.97
  18 -16  13   -2.99    2.92
 -16  -2  13    1.41    1.29
  -1 -18 -13   24.19    5.17
  19  -1 -13   25.32    4.71
 -18  19 -13   24.54    3.68
 -19   1  13   20.32    4.18
  18 -19  13   29.01    4.74
  22  -4 -13    3.87    4.75
  -4 -18 -13    2.96    4.11
 -18  22 -13   -7.93    3.64
 -22   4  13   -0.31    3.73
  18 -22  13    9.66    5.05
  -7 -18 -13    0.27    5.31
 -18  25 -13   -1.04    4.54
  18 -25  13    6.41    6.18
 -25   7  13   22.63    5.06
  -6  25 -13   -9.71    4.67
 -19  -6 -13    5.38    5.75
 -25  19  13   -6.76    4.97
  -3  22 -13   45.99    5.60
 -19  -3 -13   40.01    5.66
  22 -19 -13   47.31    8.32
 -22  19  13   34.32    5.47
  19   3  13   35.61    6.02
  19 -19 -13    1.84    4.29
   0  19 -13    1.86    3.55
 -19   0 -13   -1.78    3.75
 -19  19  13    1.74    3.53
  19   0  13    1.01    4.43
   3  16 -13   32.21    4.95
  16 -19 -13   41.26    5.34
 -16  19  13   33.42    4.26
 -16  19  13   32.15    5.11
  19  -3  13   32.52    5.26
   6  13 -13   -3.28    2.60
  13 -19 -13    7.65    3.77
  19  -6  13    4.23    3.38
 -13  19  13   -1.99    2.61
  10 -19 -13   55.87    5.75
   9  10 -13   59.40    5.28
  19  -9  13   47.49    5.89
 -10  19  13   40.94    4.19
  -9 -10  13   41.80    4.87
  12   7 -13   10.66    3.32
 -19  12 -13    8.41    2.40
   7 -19 -13    4.05    3.44
 -12  -7  13    3.31    2.22
  -7  19  13    6.06    2.62
  19 -12  13   11.33    3.45
 -19  15 -13   11.83    2.94
  15   4 -13   10.92    3.42
   4 -19 -13    6.89    3.50
 -15  -4  13    9.71    1.56
  19 -15  13    1.56    3.96
  18   1 -13   16.85    4.08
   1 -19 -13   27.26    5.06
 -19  18 -13   15.49    3.38
 -18  -1  13   10.60    3.87
  19 -18  13   15.57    4.56
 -19  21 -13    9.08    3.74
  -2 -19 -13    9.33    4.96
  21  -2 -13    7.59    4.69
  19 -21  13    5.98    4.17
 -21   2  13    8.75    3.95
 -19  24 -13   16.78    4.94
  -5 -19 -13   22.11    6.23
 -24   5  13    3.20    5.01
  19 -24  13   17.69    5.95
  -4  24 -13    1.95    4.67
 -20  -4 -13    4.07    4.79
  20   4  13    0.39    5.30
 -24  20  13   12.08    4.77
 -20  -1 -13    1.23    4.31
  21 -20 -13    3.39    4.95
  -1  21 -13    3.73    3.64
  20   1  13    2.86    4.92
 -21  20  13    3.03    4.17
  18 -20 -13   -0.04    4.16
   2  18 -13    4.05    3.35
  20  -2  13    1.30    3.93
 -18  20  13    1.20    3.44
  15 -20 -13   13.30    3.90
   5  15 -13   10.58    4.15
  20  -5  13   17.49    3.95
 -15  20  13   14.46    3.15
   8  12 -13    6.32    3.27
  12 -20 -13    0.16    3.30
 -12  20  13   -3.10    2.64
  20  -8  13   -2.84    3.16
   9 -20 -13   10.90    3.55
  11   9 -13   12.41    3.28
  -9  20  13   13.74    3.03
  20 -11  13   12.70    3.94
  14   6 -13    2.10    3.20
   6 -20 -13    5.66    3.70
 -20  14 -13    0.99    2.63
  20 -14  13    0.15    3.35
 -20  17 -13   11.83    3.32
  17   3 -13   12.00    3.68
   3 -20 -13   17.49    6.29
  20 -17  13   18.16    4.27
  20   0 -13    2.06    4.92
 -20  20 -13   -3.98    3.44
   0 -20 -13    2.42    4.84
  20 -20  13   -3.68    4.68
 -20   0  13    8.79    4.02
  23  -3 -13   24.21    6.83
  -3 -20 -13   18.57    5.63
 -20  23 -13   19.11    4.45
  20 -23  13   20.37    6.12
 -23   3  13   32.25    5.69
  -6 -20 -13   -0.65    6.42
  20 -26  13   -2.01    6.37
 -21  -5 -13   16.02    6.58
  21   5  13   11.78    6.83
  23 -21 -13   11.61    6.05
 -21  -2 -13    5.90    5.21
  -2  23 -13   -1.92    4.12
  21   2  13   12.85    5.87
 -23  21  13    0.98    4.34
 -21   1 -13   46.56    6.11
   1  20 -13   43.38    5.78
  20 -21 -13   44.46    6.17
  21  -1  13   46.78    6.23
 -20  21  13   36.24    5.07
  17 -21 -13   -1.63    3.66
   4  17 -13    3.07    3.65
  21  -4  13    5.18    4.49
 -17  21  13   -0.98    3.07
   7  14 -13   36.22    4.93
  14 -21 -13   31.64    5.41
 -14  21  13   34.45    4.28
  21  -7  13   20.99    4.63
  10  11 -13    7.38    4.20
  11 -21 -13    0.59    3.94
 -11  21  13   -2.01    2.94
  21 -10  13    4.22    3.67
   8 -21 -13   17.63    4.44
  13   8 -13   16.19    4.39
  21 -13  13   20.07    5.23
  16   5 -13   15.85    4.10
   5 -21 -13   17.92    4.68
 -21  16 -13   12.27    3.53
   2 -21 -13   14.90    4.82
 -21  19 -13    3.77    3.46
  19   2 -13    7.62    4.49
 -19  -2  13   10.67    4.29
  21 -19  13    0.42    4.68
  -1 -21 -13   13.26    5.94
  22  -1 -13    7.48    5.88
 -21  22 -13    9.46    3.95
 -22   1  13   22.28    5.71
  21 -22  13   15.59    5.61
  -4 -21 -13    1.76    6.69
 -21  25 -13   -8.65    4.62
 -25   4  13    6.43    5.81
  21 -25  13    6.99    6.42
 -22  -3 -13   16.58    6.23
  22   3  13   10.46    6.92
   0  22 -13   -1.68    4.66
  22 -22 -13   -1.93    5.81
 -22   0 -13   -5.83    4.90
 -22  22  13  -10.52    4.31
  22   0  13   -6.24    5.44
   3  19 -13    8.74    4.36
  19 -22 -13    7.67    5.30
 -19  22  13   10.29    4.38
  22  -3  13    7.70    5.21
   6  16 -13    4.68    3.96
  16 -22 -13   -9.76    4.42
  22  -6  13   11.05    4.09
 -16  22  13    2.13    3.60
   9  13 -13   18.42    4.32
 -13  22  13   19.06    3.82
  22  -9  13    9.31    4.40
  12  10 -13    2.79    3.64
 -10  22  13    2.81    3.38
  22 -12  13   -4.11    4.14
   7 -22 -13   33.48    5.15
  15   7 -13   23.71    4.55
  22 -15  13   24.19    5.01
 -22  18 -13    0.13    3.71
  18   4 -13    2.38    4.06
   4 -22 -13   -3.72    4.59
  22 -18  13    1.10    4.45
  21   1 -13   18.05    6.33
 -22  21 -13   17.42    4.61
   1 -22 -13    6.53    5.42
  22 -21  13   20.73    6.02
 -21  -1  13   14.84    5.52
  -2 -22 -13   -5.87    5.24
  24  -2 -13    3.86    6.92
 -22  24 -13    3.85    5.09
  22 -24  13   -5.80    5.26
 -24   2  13   12.64    6.00
  24 -23 -13   39.00    7.74
 -23  -1 -13   43.24    6.92
  23   1  13   39.61    7.55
 -23   2 -13    9.64    5.36
  21 -23 -13    3.51    5.72
   2  21 -13    8.83    4.86
  23  -2  13    1.57    5.79
 -21  23  13    3.40    4.64
  18 -23 -13   33.73    6.20
   5  18 -13   30.87    5.07
 -18  23  13   34.63    4.86
  23  -5  13   28.59    5.97
   8  15 -13   -3.61    3.42
  15 -23 -13   12.20    4.81
 -15  23  13    3.11    3.84
  23  -8  13    6.16    4.45
  11  12 -13   20.44    4.68
  12 -23 -13   21.91    5.08
  23 -11  13   32.50    5.64
   9 -23 -13    6.56    4.26
  14   9 -13    9.57    4.20
  23 -14  13    3.14    4.92
  17   6 -13    8.23    4.90
 -23  17 -13    6.06    4.12
   6 -23 -13   11.40    5.20
  23 -17  13    1.11    5.18
   3 -23 -13    6.57    5.44
 -23  20 -13    1.07    4.13
  20   3 -13    6.30    5.64
 -20  -3  13   10.39    5.66
  23 -20  13    6.44    5.35
  23   0 -13    2.46    7.04
   0 -23 -13   -2.25    5.16
 -23  23 -13   -5.60    4.81
 -23   0  13    0.32    5.76
  23 -23  13    8.19    6.24
 -24   1 -13   11.84    6.17
  23 -24 -13   13.85    6.98
  24  -1  13    2.03    6.57
   4  20 -13   -2.70    4.18
  20 -24 -13    0.01    5.76
 -20  24  13   -1.76    4.60
  24  -4  13    0.74    5.22
  17 -24 -13    7.09    5.42
   7  17 -13   16.18    4.76
 -17  24  13   12.49    3.97
  24  -7  13   -2.76    4.46
  14 -24 -13    0.09    4.52
  10  14 -13    5.31    4.64
 -14  24  13   -3.59    3.96
  24 -10  13    2.62    4.87
  13  11 -13   34.84    5.71
  11 -24 -13   32.11    6.54
  24 -13  13   35.34    6.19
  16   8 -13   -5.00    4.80
   8 -24 -13   -2.91    4.15
  24 -16  13    1.84    5.48
  19   5 -13   13.15    5.94
 -24  19 -13   11.05    4.82
   5 -24 -13    8.88    4.93
 -19  -5  13   27.05    5.92
  24 -19  13    6.44    5.85
   2 -24 -13    2.03    6.02
  22   2 -13    4.39    6.73
 -24  22 -13   -0.44    4.80
 -22  -2  13    9.05    6.01
  24 -22  13   -3.47    6.37
 -25   3 -13   33.50    6.84
  22 -25 -13   43.72    7.98
  25  -3  13   33.36    7.38
  19 -25 -13    6.59    5.33
   6  19 -13    3.15    5.09
 -19  25  13    7.86    4.94
  25  -6  13   -8.34    5.07
  16 -25 -13   19.31    6.14
   9  16 -13   17.09    4.99
  25  -9  13   23.76    6.57
 -16  25  13   19.99    4.95
  12  13 -13    1.64    5.06
  13 -25 -13   -2.27    5.59
  25 -12  13  -13.59    5.42
  10 -25 -13   16.91    5.87
  15  10 -13   19.67    5.59
  18   7 -13    8.92    5.31
   7 -25 -13    2.80    5.12
  25 -18  13   23.81    5.85
   4 -25 -13    3.39    6.40
  21   4 -13  -10.91    6.52
 -25  21 -13    5.24    5.40
 -21  -4  13    9.02    6.31
  25 -21  13   -1.38    5.70
  21 -26 -13   -2.88    7.04
  26  -5  13   22.71    7.15
   8  18 -13   -9.65    5.34
  18 -26 -13    6.69    6.03
  26  -8  13    7.09    6.52
 -18  26  13    2.85    5.11
  11  15 -13   -3.28    5.34
  15 -26 -13    9.27    5.63
  26 -11  13    0.73    5.97
 -15  26  13   17.92    6.09
  14  12 -13   -8.61    5.36
  12 -26 -13   -0.80    5.91
  26 -14  13   -9.15    5.67
   9 -26 -13   24.06    6.53
  17   9 -13   12.42    6.05
  26 -17  13    9.55    6.46
   6 -26 -13    1.22    6.12
  26 -20  13  -10.86    5.70
 -20  -6  13   -1.49    9.28
  17 -27 -13    0.47    6.53
 -17  27  13   -9.19    5.48
  27 -10  13   -2.40    5.73
  13  14 -13   17.99    5.79
  14 -27 -13   12.28    6.90
  27 -13  13   36.26    7.49
  11 -27 -13    3.99    6.93
  16  11 -13    7.41    7.45
  27 -16  13    5.17    6.85
   1   0 -14   -1.26    2.17
  -1   1 -14    1.71    1.09
  -1   1 -14    5.27    2.10
   0  -1 -14    0.62    0.88
   1   0 -14    1.36    0.78
   0  -1 -14    0.77    0.86
  -1   1 -14    0.79    0.79
   0  -1 -14   -0.67    1.94
   1   0 -14    1.41    0.98
  -1   0  14    0.96    1.47
   0   1  14    3.56    1.77
   1  -1  14    1.37    1.52
   1  -1  14   -0.20    1.10
   0   1  14    0.61    0.94
  -2   0 -14  513.30   12.27
   2  -2 -14  462.56   14.31
   0   2 -14  473.14   12.70
   2  -2 -14  482.38   12.71
  -2   0 -14  486.83   12.80
   2  -2 -14  489.18   12.41
  -2   0 -14  522.19   14.69
   0   2 -14  502.07   12.12
   0  -2  14  492.66   12.19
   2   0  14  493.47   12.97
  -2   2  14  470.94   13.92
   0  -2  14  491.89   14.24
  -1  -2 -14   -0.08    1.96
  -2   3 -14   -1.13    2.09
  -2   3 -14    0.58    0.86
   3  -1 -14    0.73    0.97
  -1  -2 -14   -0.04    0.77
   3  -1 -14    0.98    0.74
  -1  -2 -14   -0.11    0.94
  -3   1  14   -0.30    1.34
   1   2  14    0.51    1.10
   2  -3  14    0.67    1.60
   1   2  14    0.15    1.81
  -3  -1 -14    4.19    0.75
   4  -3 -14    3.51    1.01
   4  -3 -14    4.63    1.27
  -3  -1 -14    3.53    2.27
  -1   4 -14    1.20    1.15
  -3  -1 -14    2.55    1.02
  -4   3  14    4.05    1.58
   1  -4  14    0.24    1.58
   3   1  14    3.10    1.84
   1  -4  14    2.19    0.95
   3   1  14    2.00    1.33
   1  -3 -14    5.30    1.08
   2   1 -14    4.41    1.08
  -3   2 -14    6.66    2.37
   1  -3 -14    3.98    1.12
   2   1 -14    2.97    0.65
  -3   2 -14    3.66    0.93
   1  -3 -14    2.78    2.05
  -1   3  14    7.69    1.78
  -1   3  14    6.52    1.10
   3  -2  14    4.11    1.25
   3  -2  14    4.02    1.88
  -2  -1  14    5.57    1.88
  -3   5 -14    3.25    1.12
  -2  -3 -14    3.52    2.25
  -2  -3 -14    4.61    1.31
   5  -2 -14    4.25    0.87
   5  -2 -14    3.72    1.19
   3  -5  14    2.59    1.15
   2   3  14    3.61    1.25
  -5   2  14    3.62    1.71
   2   3  14    2.47    1.55
   3  -5  14    2.11    1.79
   6  -4 -14  242.23    6.75
   6  -4 -14  235.94    7.61
  -4  -2 -14  247.26    8.80
  -2   6 -14  240.14    7.31
   2  -6  14  225.47    8.64
  -6   4  14  241.30    7.60
  -6   4  14  241.30    8.19
   2  -6  14  250.64    6.88
  -4   1 -14    7.74    2.27
   3  -4 -14    8.32    1.31
   1   3 -14    8.05    1.44
   3  -4 -14   10.47    1.46
   1   3 -14    8.84    0.88
  -1  -3  14    8.38    1.94
  -3   4  14    8.58    1.36
   4  -1  14    9.27    2.13
   4  -1  14    8.46    1.60
  -3   4  14   11.55    2.14
  -1  -3  14    9.16    0.95
  -4   4 -14  308.90   10.51
   4   0 -14  317.23    9.11
   0  -4 -14  306.69    8.29
   0  -4 -14  312.82    9.04
  -4   4 -14  311.71    8.45
   0  -4 -14  295.74   10.04
   4  -4  14  319.46   10.58
   0   4  14  293.89    8.19
   4  -4  14  314.65    8.93
  -4   0  14  322.42    9.96
  -3  -4 -14    0.39    1.95
   7  -3 -14    1.27    0.89
  -3  -4 -14    1.37    1.19
  -4   7 -14    0.60    0.94
   7  -3 -14   -1.72    1.28
  -7   3  14   -1.01    1.47
   4  -7  14   -0.18    1.89
   4  -7  14   -0.82    1.15
   3   4  14    1.04    2.01
   3   4  14    1.46    1.37
   8  -5 -14    2.17    1.65
  -3   8 -14    1.12    1.26
   8  -5 -14    1.79    1.20
  -5  -3 -14    2.24    2.30
  -5  -3 -14    0.93    1.32
  -8   5  14    1.65    1.70
   5   3  14    2.31    1.71
  -8   5  14    1.65    1.37
   3  -8  14    1.37    2.18
   5   3  14   -0.35    1.51
   3  -8  14    3.52    1.24
  -5   0 -14    0.05    0.57
   5  -5 -14    0.18    1.21
   5  -5 -14    0.25    1.04
  -5   0 -14    1.53    2.03
   0   5 -14   -0.87    0.91
   0  -5  14    3.97    1.95
   5   0  14   -0.88    1.35
   5   0  14    1.10    1.64
  -5   5  14    0.43    1.18
   0  -5  14    0.15    0.77
  -5   5  14    2.18    1.43
   2  -5 -14   -1.53    1.92
  -5   3 -14    0.18    2.41
  -5   3 -14    0.23    0.80
   3   2 -14   -2.30    0.91
   2  -5 -14    0.42    1.09
   2  -5 -14    1.00    1.08
   5  -3  14    0.91    1.14
   5  -3  14    2.15    1.96
  -2   5  14    0.92    1.53
  -3  -2  14    2.04    1.61
  -2   5  14    0.85    0.89
   6  -1 -14    1.30    1.17
  -1  -5 -14   -0.44    2.21
  -5   6 -14   -1.11    1.04
   1   5  14    0.01    0.60
   5  -6  14    0.21    1.21
   5  -6  14    0.65    1.94
  -6   1  14    0.34    1.47
   1   5  14   -1.50    1.47
  -5   9 -14   11.81    1.72
  -4  -5 -14   12.44    2.06
  -4  -5 -14   12.21    2.61
   9  -4 -14   11.96    2.02
   9  -4 -14   14.24    1.81
  -9   4  14   13.20    2.11
   4   5  14   12.93    2.15
  -9   4  14   11.16    2.02
   5  -9  14   10.88    1.78
   4   5  14   10.81    2.26
   5  -9  14    9.83    2.80
  10  -6 -14  293.60    8.48
  -6  -4 -14  289.54   11.87
   4 -10  14  294.80    8.82
   4 -10  14  313.83   11.05
 -10   6  14  297.14    9.59
   7  -6 -14    1.65    1.49
  -6  -1 -14   -2.49    1.31
   7  -6 -14    1.24    1.15
  -1   7 -14    0.21    1.07
  -6  -1 -14    2.36    2.22
   1  -7  14    0.40    1.90
   6   1  14    0.99    1.57
   1  -7  14    1.87    1.03
  -7   6  14   -0.48    1.11
  -7   6  14    1.25    1.48
   6   1  14    0.26    1.86
  -6   2 -14  216.68    6.62
  -6   2 -14  258.95    8.99
   4  -6 -14  252.21    7.52
   4  -6 -14  242.84    7.42
   2   4 -14  241.61    7.59
   6  -2  14  249.74    8.00
  -4   6  14  252.11    7.24
  -4   6  14  235.61    8.22
  -2  -4  14  251.75    8.78
   1  -6 -14    4.27    1.32
   5   1 -14    4.77    1.31
   1  -6 -14    5.84    2.49
  -6   5 -14    4.17    1.03
   6  -5  14    1.92    1.34
  -5  -1  14    6.78    1.94
  -1   6  14    4.09    0.92
  -1   6  14    4.19    1.84
   6  -5  14    4.44    2.08
   8  -2 -14  302.36   10.44
  -2  -6 -14  303.00    9.49
  -2  -6 -14  300.52   10.25
  -6   8 -14  297.86    8.74
  -8   2  14  294.32    9.42
   6  -8  14  293.35   10.58
   6  -8  14  296.62    9.02
  11  -5 -14    1.95    1.83
  -6  11 -14    1.13    1.25
  11  -5 -14   -1.15    1.30
   6 -11  14   -1.54    1.80
   6 -11  14    2.71    2.97
 -11   5  14    2.97    1.83
 -11   5  14    0.30    1.55
  -5  12 -14    3.28    1.69
  12  -7 -14    2.72    1.66
  -7  -5 -14    2.48    1.78
  12  -7 -14    1.97    2.20
 -12   7  14   -2.72    1.68
   5 -12  14   -0.41    2.81
   5 -12  14    0.90    1.56
 -12   7  14    2.32    1.88
   7   5  14    0.88    2.20
  -7  -2 -14    7.69    1.98
   9  -7 -14    4.70    1.50
  -2   9 -14    5.55    1.86
  -7  -2 -14    6.61    2.61
   7   2  14    5.67    2.17
  -9   7  14    1.72    3.00
   2  -9  14    7.15    1.47
  -9   7  14    8.33    2.01
   7   2  14    5.31    2.11
   2  -9  14    3.56    2.69
   6  -7 -14   12.54    2.03
   6  -7 -14   11.52    1.76
   1   6 -14   12.23    1.82
  -7   1 -14   11.92    0.98
  -7   1 -14    8.05    2.60
   7  -1  14   12.29    2.02
  -6   7  14   11.07    1.71
   7  -1  14   12.35    2.50
  -1  -6  14   10.73    2.37
  -6   7  14   10.25    2.31
  -7   4 -14    2.72    0.88
   3  -7 -14    2.15    1.29
   4   3 -14    1.94    1.34
   3  -7 -14   -0.37    2.40
  -3   7  14    6.59    1.81
   7  -4  14   -1.83    1.97
   7  -4  14    0.39    1.39
  -4  -3  14    0.73    1.76
  -3   7  14    2.96    1.03
   0  -7 -14    8.26    1.75
  -7   7 -14    4.62    1.21
   7   0 -14    5.11    2.04
   0  -7 -14    8.02    2.77
   0   7  14    3.89    0.84
  -7   0  14    3.64    1.73
   0   7  14    3.32    2.02
   7  -7  14    4.69    1.60
   7  -7  14    2.35    2.49
  -7  10 -14   -0.77    1.37
  -3  -7 -14   -1.32    1.93
  10  -3 -14    0.12    1.81
   7 -10  14    1.13    1.47
 -10   3  14   -1.13    1.57
   7 -10  14    0.41    2.56
  -7  13 -14    2.68    1.75
  13  -6 -14   -2.92    1.95
  -6  -7 -14    0.50    2.13
   7 -13  14    2.79    1.88
   7 -13  14    0.57    3.17
 -13   6  14    1.95    1.98
 -13   6  14    1.01    1.84
  14  -8 -14  147.67    7.07
  -8  -6 -14  148.91    7.07
  -6  14 -14  159.33    6.48
  14  -8 -14  152.17    6.11
 -14   8  14  152.69    6.44
   6 -14  14  154.33    6.37
   8   6  14  166.46    7.69
 -14   8  14  151.91    6.71
   6 -14  14  152.42    8.77
  -3  11 -14    3.70    1.64
  11  -8 -14    7.67    1.85
  -8  -3 -14    4.14    2.11
  11  -8 -14    3.62    1.88
   3 -11  14    8.11    2.85
 -11   8  14    5.23    1.90
   8   3  14    5.83    2.06
   3 -11  14    6.53    1.64
 -11   8  14    4.69    1.92
   8  -8 -14  377.17   10.95
  -8   0 -14  405.90   12.56
   0  -8  14  384.75    9.89
   0  -8  14  392.17   12.76
  -8   8  14  391.55   11.93
   8   0  14  389.80   11.85
  -8   8  14  373.44   11.12
   8   0  14  393.97   12.07
   3   5 -14    4.41    1.61
  -8   3 -14    6.41    0.98
   5  -8 -14    1.33    1.46
   8  -3  14    3.60    1.68
  -3  -5  14    5.31    2.22
  -5   8  14    7.36    1.32
   8  -3  14    3.69    2.09
  -5   8  14    6.04    1.89
   6   2 -14  290.69    9.34
   2  -8 -14  296.18    9.25
  -8   6 -14  307.68    8.36
   2  -8 -14  304.24   10.49
  -2   8  14  303.65    8.02
  -6  -2  14  290.36    9.59
   8  -6  14  298.83    9.40
   8  -6  14  300.31   10.35
  -8   9 -14    7.29    1.54
  -1  -8 -14    7.74    1.93
   9  -1 -14    4.12    1.72
   1   8  14    1.35    2.16
  -9   1  14    6.56    1.83
   8  -9  14    9.09    1.96
   8  -9  14    6.75    2.76
  -4  -8 -14  187.50    7.49
  -8  12 -14  185.91    6.66
  12  -4 -14  192.52    7.75
   8 -12  14  175.68    8.71
 -12   4  14  190.15    6.92
   8 -12  14  190.71    7.12
 -12   4  14  181.70    7.50
  15  -7 -14    0.75    2.52
  -8  15 -14    3.07    1.82
  -7  -8 -14   -1.16    2.40
   8 -15  14    2.53    2.19
   8 -15  14    1.45    3.78
 -15   7  14    0.23    2.09
 -15   7  14    0.88    1.97
  -9  -7 -14    3.56    2.39
  -7  16 -14    1.59    1.92
 -16   9  14   -1.51    2.15
   9   7  14   -0.56    2.49
 -16   9  14   -0.43    2.10
   7 -16  14    6.09    2.80
  13  -9 -14   -1.47    1.80
  -4  13 -14    0.91    1.56
  -9  -4 -14    1.29    2.02
   9   4  14   -0.23    2.09
 -13   9  14   -0.48    2.02
 -13   9  14    1.32    2.08
   4 -13  14    0.51    3.30
  -1  10 -14   -0.58    1.29
  10  -9 -14   -0.76    1.76
 -10   9  14   -1.53    1.83
   1 -10  14   -0.54    2.64
   1 -10  14    1.34    1.35
 -10   9  14   -3.42    1.89
  -9   2 -14    4.12    0.96
  -9   2 -14    8.02    2.86
   7  -9 -14    3.53    1.76
   2   7 -14    4.28    1.45
  -7   9  14   -1.09    1.84
   9  -2  14    6.95    1.93
   9  -2  14    0.94    1.96
  -7   9  14    3.53    1.45
  -2  -7  14    7.83    2.36
   4  -9 -14   11.99    2.06
  -9   5 -14   13.13    1.55
  -4   9  14    8.74    1.42
  -5  -4  14   14.50    2.43
   9  -5  14    8.57    2.45
   9  -5  14    9.82    1.91
  -4   9  14   11.70    2.19
   8   1 -14    3.04    1.57
   1  -9 -14    2.32    1.69
  -9   8 -14    4.93    1.27
  -1   9  14    3.66    2.02
  -1   9  14    2.96    0.97
   9  -8  14    1.56    2.50
  -8  -1  14    4.55    1.72
   9  -8  14   -0.51    1.44
  11  -2 -14    2.51    1.78
  -2  -9 -14    0.52    1.84
   9 -11  14    4.60    1.90
   9 -11  14    1.80    3.02
 -11   2  14    0.79    1.58
  -9  14 -14   -0.56    1.50
  14  -5 -14    6.22    2.51
  -5  -9 -14   -0.24    1.91
   9 -14  14    2.73    3.57
 -14   5  14    0.63    2.07
   9 -14  14   -0.89    1.99
 -14   5  14   -1.12    1.71
  17  -8 -14    5.26    3.03
  -8  -9 -14    4.27    2.49
  -9  17 -14    7.11    2.27
 -17   8  14    1.42    2.13
 -17   8  14    7.70    2.70
   9 -17  14   -0.91    2.60
  -8  18 -14  109.89    5.85
 -10  -8 -14  103.23    6.55
   8 -18  14   99.21   10.34
 -18  10  14   95.16    5.76
   8 -18  14  113.26    6.26
 -18  10  14  105.70    6.16
 -10  -5 -14   -2.49    2.25
  -5  15 -14    1.50    1.93
  15 -10 -14   -2.38    2.16
  10   5  14   -4.45    2.41
   5 -15  14    0.03    3.86
 -15  10  14    0.24    2.18
 -15  10  14    2.37    2.09
   5 -15  14   -1.76    2.08
 -10  -2 -14  159.29    6.66
  -2  12 -14  157.31    6.32
  12 -10 -14  153.77    6.13
 -12  10  14  155.04    6.97
  10   2  14  153.60    6.99
 -12  10  14  146.83    6.18
   2 -12  14  155.29    8.30
   2 -12  14  157.36    5.58
   1   9 -14    1.06    1.47
   9 -10 -14   -0.04    1.59
  -9  10  14    1.78    1.53
  -9  10  14    2.83    1.85
  10  -1  14    2.48    2.41
  -1  -9  14   -2.74    2.32
 -10   4 -14  282.42    7.48
   4   6 -14  275.64    8.95
   6 -10 -14  282.55    9.09
  -6  10  14  284.05    8.29
  10  -4  14  268.85    9.41
  -6  10  14  282.07    9.51
  -4  -6  14  285.33    9.82
   3 -10 -14    6.25    1.88
   7   3 -14    3.46    1.55
 -10   7 -14    3.01    1.42
  -7  -3  14    4.81    1.89
  -3  10  14    4.05    2.17
  -3  10  14    3.68    1.21
  10  -7  14    5.92    2.69
  10  -7  14    1.24    1.82
  10   0 -14  248.47    8.94
 -10  10 -14  276.66    9.06
 -10   0  14  264.82    8.55
  10 -10  14  258.75    9.06
  10 -10  14  259.12   10.63
  -3 -10 -14   -1.70    2.00
 -10  13 -14   -1.22    1.62
  13  -3 -14    0.23    2.16
 -13   3  14    2.69    2.13
  10 -13  14    4.45    2.14
 -13   3  14    1.13    1.59
  16  -6 -14  147.94    7.81
 -10  16 -14  146.10    6.45
  -6 -10 -14  139.01    7.10
 -16   6  14  134.61    6.82
  10 -16  14  139.77    6.70
 -16   6  14  137.31    5.89
  -9 -10 -14   -0.90    2.77
 -10  19 -14    2.83    2.39
  10 -19  14   -3.16    2.96
 -19   9  14    3.44    3.00
  -9  20 -14   -0.66    3.96
 -11  -9 -14   -1.06    2.94
   9 -20  14   -0.78    3.30
 -11  -6 -14    0.10    2.74
  -6  17 -14   -0.87    2.04
  17 -11 -14   -0.52    3.08
 -17  11  14    2.32    2.66
   6 -17  14    5.70    4.78
 -17  11  14    1.09    2.50
  11   6  14   -3.09    2.99
   6 -17  14    1.47    2.45
 -11  -3 -14   -2.33    1.96
  -3  14 -14    5.41    1.94
  14 -11 -14   -1.08    2.15
   3 -14  14    2.11    3.28
  11   3  14   -2.63    2.15
 -14  11  14   -3.21    2.10
   3 -14  14   -0.85    1.90
 -14  11  14   -2.26    2.10
   0  11 -14    2.09    1.76
  11 -11 -14    3.73    1.99
  11   0  14    2.72    2.38
   0 -11  14    2.25    3.05
 -11  11  14    5.23    1.76
 -11  11  14   -1.09    2.26
   8 -11 -14    7.69    2.03
   3   8 -14    7.38    1.89
  -8  11  14   10.22    2.54
  -3  -8  14    7.87    3.83
  -8  11  14    8.52    1.88
   6   5 -14    1.68    1.41
 -11   6 -14    3.15    1.20
   5 -11 -14    3.62    1.84
  -5  11  14    2.79    1.33
  11  -6  14    2.83    1.83
  -5  11  14    2.77    2.33
   9   2 -14    2.32    1.79
 -11   9 -14    4.17    1.48
  -2  11  14    5.86    1.35
  -2  11  14    9.61    2.69
  -9  -2  14    5.70    1.97
  11  -9  14    3.24    2.20
  12  -1 -14    3.58    2.26
  -1 -11 -14    1.19    2.05
 -11  12 -14    1.24    1.38
 -12   1  14    0.77    1.62
 -11  15 -14    4.52    2.11
  -4 -11 -14    8.23    2.73
  15  -4 -14    4.99    2.54
  11 -15  14    7.95    2.64
 -15   4  14    6.17    1.98
 -15   4  14    5.21    2.62
 -11  18 -14   -0.44    2.19
  -7 -11 -14    3.55    2.84
  18  -7 -14    2.47    3.14
  11 -18  14    3.43    2.95
 -18   7  14    0.46    2.50
 -18   7  14    4.13    2.31
 -10 -11 -14   -2.06    3.45
 -11  21 -14   -3.81    2.72
 -21  10  14    3.79    3.37
  11 -21  14   -0.69    3.71
 -10  22 -14   82.84    6.28
 -12 -10 -14   79.03    7.68
  10 -22  14   81.90    7.33
 -22  12  14   85.71    7.05
  -7  19 -14    3.57    2.94
 -12  -7 -14    4.99    3.18
   7 -19  14   12.02    6.15
  12   7  14   -1.41    3.36
 -19  12  14    2.71    3.09
   7 -19  14   -4.00    2.75
  16 -12 -14   99.03    5.65
 -12  -4 -14  102.19    6.31
  -4  16 -14  103.90    5.51
   4 -16  14   80.30    8.08
  12   4  14  107.29    6.87
 -16  12  14  102.00    5.92
 -16  12  14  107.78    6.04
  13 -12 -14    1.57    2.67
  -1  13 -14    0.28    1.77
  12   1  14   -0.98    2.15
 -13  12  14   -1.61    1.78
   1 -13  14    0.86    3.47
 -13  12  14    0.98    2.37
   2  10 -14  175.12    6.93
  10 -12 -14  167.22    7.13
  -2 -10  14  185.88    8.22
  12  -2  14  171.74    7.46
 -10  12  14  182.85    7.67
 -10  12  14  175.84    6.57
   5   7 -14   -0.41    1.54
 -12   5 -14   -2.33    1.07
   7 -12 -14    2.04    2.33
  -7  12  14    0.37    1.34
  -5  -7  14    1.20    2.08
  -7  12  14    1.23    2.19
  12  -5  14    3.34    2.17
 -12   8 -14  152.29    5.16
   4 -12 -14  130.85    7.29
   8   4 -14  152.72    6.31
  -8  -4  14  157.01    6.31
  -4  12  14  151.80    5.13
  -4  12  14  147.31    6.71
  12  -8  14  137.23    7.32
  11   1 -14    5.46    1.94
 -12  11 -14    1.75    1.70
   1 -12 -14    6.02    2.06
  12 -11  14    3.11    2.29
 -11  -1  14    4.27    1.78
 -12  14 -14  146.06    5.98
  -2 -12 -14  126.35    6.62
  14  -2 -14  150.24    6.89
  12 -14  14  136.44    6.82
 -14   2  14  136.26    5.61
  -5 -12 -14    1.70    2.67
  17  -5 -14    3.16    3.33
 -12  17 -14    2.99    2.43
  12 -17  14    2.82    2.83
 -17   5  14    2.05    2.00
 -17   5  14    6.87    3.02
 -12  20 -14   76.34    5.98
  -8 -12 -14   84.57    6.40
  12 -20  14   82.17    6.54
 -12  23 -14    5.13    3.90
 -11 -12 -14   -3.25    4.27
 -23  11  14    2.48    3.84
  12 -23  14    4.92    4.51
 -11  24 -14    0.32    4.08
 -13 -11 -14    3.43    4.86
 -24  13  14   -4.71    4.24
  -8  21 -14    3.19    3.09
 -21  13  14   -6.91    3.41
  18 -13 -14    2.22    3.28
  -5  18 -14    5.02    2.56
 -13  -5 -14   -0.82    2.93
 -18  13  14    2.78    2.93
 -18  13  14    3.69    2.98
   5 -18  14   -0.61    5.29
  13   5  14    0.72    3.47
  15 -13 -14    2.83    2.55
  -2  15 -14   -1.05    2.20
 -13  -2 -14   -3.08    2.12
 -15  13  14    0.33    2.30
 -15  13  14    1.44    2.75
   2 -15  14    3.71    4.12
  13   2  14   -0.39    2.49
   1  12 -14   -0.93    2.05
  -1 -12  14   -0.50    3.02
 -12  13  14   -0.37    2.04
 -12  13  14   -2.35    2.52
  13  -1  14    0.34    2.18
   4   9 -14    1.21    1.68
  -9  13  14    4.59    2.63
  -9  13  14    1.14    1.69
  13  -4  14    1.88    2.04
  -4  -9  14   -0.34    2.47
   7   6 -14   -0.53    1.64
 -13   7 -14    1.36    1.30
   6 -13 -14    1.36    1.76
  -7  -6  14    1.68    2.06
  13  -7  14   -2.04    2.13
  -6  13  14    2.21    1.46
  -6  13  14   -0.96    2.25
 -13  10 -14    0.62    1.55
   3 -13 -14    4.10    2.13
  10   3 -14    1.01    1.90
  13 -10  14    4.47    2.37
 -10  -3  14    6.03    2.04
 -13  13 -14   -2.37    1.66
   0 -13 -14    1.68    2.11
  13   0 -14    2.98    2.19
  13 -13  14   -2.86    2.33
 -13   0  14    5.04    1.82
  -3 -13 -14    0.17    2.38
  16  -3 -14    0.46    2.61
 -13  16 -14    3.15    1.90
  13 -16  14   -0.05    2.71
 -16   3  14   -0.95    1.83
 -16   3  14    2.50    2.41
 -13  19 -14   -0.26    2.32
  -6 -13 -14    4.82    3.13
  19  -6 -14    3.53    4.06
  13 -19  14    1.53    3.07
 -19   6  14    5.26    3.29
 -13  22 -14   -2.98    3.46
  -9 -13 -14    5.09    4.13
  13 -22  14    8.46    4.43
 -22   9  14    3.07    3.59
 -12 -13 -14   -0.67    4.42
 -13  25 -14    1.04    3.96
  13 -25  14   -6.74    6.35
 -25  12  14   -1.48    4.88
 -12  26 -14   29.19    5.57
 -14 -12 -14   21.11    5.47
 -26  14  14   17.14    5.27
 -14  -9 -14   -5.09    4.37
  -9  23 -14    7.62    4.03
 -23  14  14    1.94    3.66
  -6  20 -14   99.71    6.65
 -14  -6 -14  103.64    7.32
  14   6  14   87.66    7.76
   6 -20  14   91.03   11.13
 -20  14  14   82.69    6.14
  17 -14 -14    4.25    3.15
 -14  -3 -14   -0.28    2.86
  -3  17 -14   -5.88    2.11
 -17  14  14    0.91    2.99
 -17  14  14    2.07    2.41
  14   3  14    0.08    3.33
   3 -17  14  -13.21    4.48
  14 -14 -14  150.86    7.05
   0  14 -14  143.67    6.61
 -14  14  14  137.34    6.61
 -14  14  14  148.67    7.32
  14   0  14  150.83    7.88
   0 -14  14  163.15    8.95
  11 -14 -14    0.83    2.22
   3  11 -14    0.36    1.95
 -11  14  14   -0.61    2.62
  -3 -11  14    1.45    2.78
  14  -3  14   -1.85    2.08
 -11  14  14   -0.12    1.90
   8 -14 -14  148.14    6.90
   6   8 -14  157.04    6.82
  -8  14  14  154.41    5.94
  -6  -8  14  155.12    7.21
  -8  14  14  165.21    7.62
  14  -6  14  154.49    7.13
 -14   9 -14    5.02    1.62
   5 -14 -14    6.50    2.39
   9   5 -14    3.50    2.33
  -9  -5  14    5.06    2.17
  14  -9  14    9.86    2.60
  -5  14  14    6.87    1.78
  12   2 -14  186.50    7.67
 -14  12 -14  170.91    6.38
   2 -14 -14  168.97    7.79
  14 -12  14  177.72    7.95
 -12  -2  14  172.95    6.48
 -14  15 -14   -0.80    1.93
  -1 -14 -14    3.82    2.49
  15  -1 -14    4.78    2.60
 -15   1  14    1.56    1.87
  14 -15  14    2.38    2.80
 -14  18 -14   91.53    5.49
  18  -4 -14   82.09    6.57
  -4 -14 -14   93.32    6.78
 -18   4  14   85.59    4.79
  14 -18  14   75.32    6.45
 -18   4  14   85.25    6.10
  21  -7 -14   -3.34    4.08
 -14  21 -14   -2.00    2.62
  -7 -14 -14    1.17    4.65
  14 -21  14    2.15    3.88
 -21   7  14    8.22    3.60
 -14  24 -14   40.19    5.53
 -10 -14 -14   43.96    6.75
 -24  10  14   44.82    5.81
  14 -24  14   49.23    6.64
 -13 -14 -14   -2.62    5.78
 -10  25 -14   -4.26    4.52
 -15 -10 -14    0.07    4.71
 -25  15  14    0.68    4.35
 -15  -7 -14    4.52    3.86
  -7  22 -14   -1.32    3.15
 -22  15  14    5.12    3.90
 -15  -4 -14   -2.35    3.14
  19 -15 -14   -2.21    3.55
  15   4  14    0.00    3.87
   4 -19  14    2.42    5.81
 -19  15  14    2.17    2.84
  -1  16 -14    0.71    2.65
 -15  -1 -14   -1.50    2.74
  16 -15 -14   -6.18    2.74
 -16  15  14    0.34    3.04
  15   1  14    1.16    3.25
   1 -16  14   -4.21    4.08
 -16  15  14   -1.24    2.36
  13 -15 -14    0.03    2.50
   2  13 -14    2.18    2.31
  -2 -13  14    2.09    3.50
  15  -2  14    0.34    2.74
 -13  15  14   -1.77    2.65
 -13  15  14   -1.50    2.23
   5  10 -14    0.45    1.89
  10 -15 -14   -0.13    2.27
 -10  15  14    6.36    3.20
  15  -5  14    2.49    2.41
  -5 -10  14   -4.81    2.65
 -10  15  14    3.22    1.97
 -15   8 -14    3.86    1.67
   7 -15 -14   -0.75    2.22
   8   7 -14   -0.51    1.81
  -8  -7  14    3.21    2.38
  15  -8  14   -3.02    2.41
  -7  15  14   -0.04    1.94
  11   4 -14    2.35    2.43
 -15  11 -14    3.43    1.77
   4 -15 -14    1.56    2.24
 -11  -4  14    3.13    1.95
  15 -11  14    4.74    2.56
  14   1 -14   -1.39    2.30
 -15  14 -14    1.42    1.94
   1 -15 -14   -3.62    2.23
  15 -14  14   -0.02    2.50
 -14  -1  14   -1.56    1.72
  17  -2 -14    4.52    3.13
 -15  17 -14    1.66    2.53
  -2 -15 -14    1.42    3.01
 -17   2  14    4.19    2.90
 -17   2  14    1.99    1.83
  15 -17  14    0.60    2.91
  -5 -15 -14   -0.95    3.39
  20  -5 -14   -3.15    3.84
  15 -20  14   -0.08    3.97
 -20   5  14    3.31    3.31
  -8 -15 -14   -1.76    3.95
 -15  23 -14    7.41    3.58
  15 -23  14    6.21    4.64
 -23   8  14   11.55    4.74
 -11 -15 -14   -4.36    4.99
 -15  26 -14   -6.36    4.75
  15 -26  14    7.17    6.14
 -26  11  14   -2.21    4.58
 -16 -11 -14   -0.04    5.31
  -8  24 -14   40.54    6.00
 -16  -8 -14   31.25    6.01
 -24  16  14   50.28    6.23
 -16  -5 -14    0.27    3.31
  -5  21 -14    3.27    3.28
  16   5  14    2.84    3.85
 -21  16  14    2.37    3.52
  18 -16 -14   88.71    6.57
  -2  18 -14   86.93    6.18
 -16  -2 -14   87.96    6.71
 -18  16  14  106.56    7.75
 -18  16  14   94.04    6.54
  16   2  14   82.65    6.86
   2 -18  14   96.39    9.38
  15 -16 -14    2.26    3.11
   1  15 -14   -3.09    2.21
  16  -1  14    0.97    2.85
 -15  16  14   -0.25    2.22
  -1 -15  14   -0.41    3.99
 -15  16  14    3.32    3.40
   4  12 -14  134.95    6.56
  12 -16 -14  113.02    6.31
 -12  16  14  115.73    5.59
 -12  16  14  132.23    7.01
  -4 -12  14  107.31    7.21
  16  -4  14  116.44    6.75
   7   9 -14    3.48    2.25
   9 -16 -14   -1.69    2.51
  16  -7  14    4.58    2.89
  -7  -9  14   -3.11    2.51
  -9  16  14    5.40    2.07
   6 -16 -14  118.13    6.37
  10   6 -14  123.82    6.20
 -16  10 -14  121.68    4.90
  16 -10  14  117.41    6.61
  -6  16  14  110.79    5.90
 -10  -6  14  126.33    5.81
   3 -16 -14    7.51    3.09
 -16  13 -14    0.62    1.95
  13   3 -14    2.75    2.67
 -13  -3  14    3.16    1.96
  16 -13  14    1.30    3.00
   0 -16 -14   87.52    6.16
 -16  16 -14   87.49    4.90
  16   0 -14   88.88    6.13
 -16   0  14   93.00    4.26
  16 -16  14   85.84    6.51
  19  -3 -14    5.04    4.02
 -16  19 -14    8.78    2.93
  -3 -16 -14    8.64    3.55
  16 -19  14    5.56    3.86
 -19   3  14    1.41    3.41
  -6 -16 -14   57.16    7.02
 -16  22 -14   53.11    5.43
  22  -6 -14   50.23    6.70
 -22   6  14   52.42    6.02
  16 -22  14   48.59    8.20
 -16  25 -14   -3.87    4.36
  -9 -16 -14   -2.58    4.91
 -25   9  14   -1.85    5.03
  16 -25  14    0.98    5.52
 -17  -9 -14    0.10    5.78
  -9  26 -14    8.23    7.35
 -26  17  14    5.61    6.97
 -17  -6 -14   -4.56    4.57
  -6  23 -14   -2.84    4.16
  17   6  14    9.54    5.20
 -23  17  14   -4.76    4.36
 -17  -3 -14   11.42    3.70
  -3  20 -14    1.33    3.48
  20 -17 -14    2.41    4.07
 -20  17  14   -3.16    3.15
  17   3  14   12.66    4.24
 -17   0 -14    2.61    2.96
  17 -17 -14   -6.09    3.08
   0  17 -14    4.04    3.09
  17   0  14    2.55    3.30
 -17  17  14    5.22    3.72
 -17  17  14    4.30    2.84
   3  14 -14    1.52    2.69
  14 -17 -14    1.87    3.01
 -14  17  14    6.12    3.63
  -3 -14  14   -3.92    3.93
 -14  17  14   -1.22    2.64
  17  -3  14    3.53    2.85
   6  11 -14   -4.78    2.05
  11 -17 -14   -2.86    2.60
 -11  17  14    3.80    2.26
  -6 -11  14    2.63    3.24
  17  -6  14   -0.93    2.48
   9   8 -14   -0.88    2.42
   8 -17 -14    0.78    2.56
  -9  -8  14   -2.35    2.53
  17  -9  14    0.18    3.02
  -8  17  14   -1.94    2.04
  12   5 -14    3.20    2.65
   5 -17 -14    2.59    3.12
 -17  12 -14    3.80    2.05
  17 -12  14    8.82    3.43
 -12  -5  14    0.44    2.12
  15   2 -14   -0.18    2.89
 -17  15 -14    3.12    2.34
   2 -17 -14    0.84    3.27
  17 -15  14    4.45    3.39
 -15  -2  14    2.80    1.84
 -17  18 -14    1.42    2.92
  -1 -17 -14    6.06    3.50
  17 -18  14    9.02    3.78
 -17  21 -14   16.13    3.55
  21  -4 -14   13.61    5.52
  -4 -17 -14    8.35    4.61
 -21   4  14   12.56    4.39
 -17  24 -14    2.09    4.25
  -7 -17 -14   -3.10    5.25
 -24   7  14   -2.11    4.95
  17 -24  14    6.13    5.45
 -10 -17 -14    5.82    5.91
  17 -27  14    9.98    7.27
  -7  25 -14   -1.36    4.36
 -18  -7 -14   12.58    5.78
 -25  18  14   -1.68    4.49
 -18  -4 -14   39.32    5.89
  -4  22 -14   39.90    5.61
  18   4  14   43.01    6.55
 -22  18  14   42.13    5.66
  19 -18 -14    1.40    3.82
  -1  19 -14   -2.43    3.47
 -18  -1 -14   -6.91    4.44
  18   1  14    2.44    5.45
 -19  18  14    6.95    3.68
   2  16 -14   71.31    5.44
  16 -18 -14   67.13    6.36
 -16  18  14   74.03    5.67
  18  -2  14   70.90    6.94
 -16  18  14   65.26    7.04
  13 -18 -14    6.23    3.42
   5  13 -14    1.05    2.66
  18  -5  14    1.78    2.93
  -5 -13  14    2.17    3.65
 -13  18  14    1.49    2.52
   8  10 -14  103.67    6.47
  10 -18 -14  106.58    6.47
 -10  18  14  109.26    5.46
  18  -8  14  113.14    7.33
  -8 -10  14   97.43    6.35
  11   7 -14    4.38    2.70
   7 -18 -14    5.38    3.30
 -18  11 -14    0.25    2.08
 -11  -7  14    2.40    2.49
  18 -11  14    7.43    3.56
  -7  18  14    7.88    2.53
 -18  14 -14   92.38    5.11
   4 -18 -14  101.66    6.62
  14   4 -14   89.20    6.15
 -14  -4  14   92.03    4.40
  18 -14  14   92.74    6.55
   1 -18 -14    3.36    3.55
 -18  17 -14    0.69    2.77
  18 -17  14    4.93    3.96
 -18  20 -14   65.81    6.09
  -2 -18 -14   77.67    7.50
  20  -2 -14   66.80    7.14
 -20   2  14   62.56    6.36
  23  -5 -14   12.59    6.19
  -5 -18 -14   -1.43    4.85
 -18  23 -14    2.47    4.24
  18 -23  14    5.19    5.02
 -23   5  14    8.61    5.03
  -8 -18 -14   26.02    6.36
  18 -26  14   18.53    7.12
 -19  -5 -14    1.70    5.20
  -5  24 -14   -2.17    4.54
 -24  19  14    5.40    4.41
  19   5  14   -4.83    5.38
  21 -19 -14    6.94    5.68
 -19  -2 -14   -4.19    4.35
  -2  21 -14    1.23    3.48
  19   2  14    2.58    4.81
 -21  19  14    7.64    3.89
   1  18 -14    3.89    3.76
  18 -19 -14    2.17    3.89
 -19   1 -14    5.44    4.56
  19  -1  14    9.35    5.28
 -18  19  14    0.80    3.02
   4  15 -14   15.58    5.16
  15 -19 -14   13.54    3.90
 -15  19  14    8.54    2.87
  19  -4  14   11.90    4.15
  12 -19 -14   -4.30    3.44
   7  12 -14    4.68    3.06
 -12  19  14    3.08    2.72
  19  -7  14   -7.89    3.49
   9 -19 -14   -2.99    3.22
  10   9 -14    1.79    2.77
  19 -10  14    4.87    3.53
  -9  19  14    1.12    2.51
  13   6 -14    2.63    3.40
   6 -19 -14    4.26    3.09
 -19  13 -14    3.53    2.58
  19 -13  14    3.11    3.63
  16   3 -14    4.28    3.73
 -19  16 -14    4.90    2.84
   3 -19 -14    3.97    3.34
  19 -16  14    3.78    3.52
  19   0 -14    0.94    4.30
   0 -19 -14    0.52    3.94
 -19  19 -14   -3.64    3.31
 -19   0  14   -0.25    3.69
  22  -3 -14    7.49    5.65
  -3 -19 -14    7.10    5.14
 -19  22 -14    6.48    3.61
  19 -22  14    0.76    4.95
 -22   3  14   -1.38    4.66
  -6 -19 -14    9.11    6.10
 -19  25 -14    5.02    5.00
  19 -25  14    4.93    5.93
 -25   6  14    0.96    5.62
 -20  -6 -14   32.06    7.28
  -3  23 -14    2.33    4.15
 -20  -3 -14    6.36    5.04
 -23  20  14   -6.17    4.65
  20   3  14   -2.71    5.34
   0  20 -14   62.74    6.07
 -20   0 -14   50.58    6.54
 -20  20  14   69.49    6.74
  20   0  14   62.38    7.95
   3  17 -14    4.20    3.27
  17 -20 -14   -1.22    4.25
  20  -3  14    6.08    4.30
 -17  20  14    3.40    3.49
  14 -20 -14  116.47    7.87
   6  14 -14  104.33    7.07
  20  -6  14  103.14    8.18
 -14  20  14  106.84    6.38
  11 -20 -14    0.30    3.57
   9  11 -14    7.79    3.97
  20  -9  14    4.46    3.54
 -11  20  14    6.10    2.94
  12   8 -14  107.17    9.78
   8 -20 -14  104.58    7.61
  20 -12  14   97.03    7.21
   5 -20 -14    4.72    3.65
  15   5 -14    0.61    3.75
 -20  15 -14    1.17    2.79
  20 -15  14   -4.79    3.55
  18   2 -14   83.53    7.67
   2 -20 -14   68.66    6.88
 -18  -2  14   67.90    7.11
  20 -18  14   67.64    6.95
 -20  21 -14   -0.60    3.84
  21  -1 -14    3.59    4.88
  -1 -20 -14   -3.13    4.89
  20 -21  14    4.82    5.05
 -21   1  14    2.12    4.22
 -20  24 -14   50.41    6.29
  24  -4 -14   45.17    7.48
  -4 -20 -14   54.35    7.79
  20 -24  14   48.86    7.32
 -24   4  14   44.88    6.30
 -21  -4 -14   -9.10    5.86
  21   4  14   11.85    6.60
  22 -21 -14   -1.84    5.59
  -1  22 -14   16.81    5.87
 -21  -1 -14   -7.45    4.94
 -22  21  14   -0.71    4.52
  21   1  14    1.15    5.52
 -21   2 -14    4.04    3.88
  19 -21 -14   -4.99    4.49
   2  19 -14   -0.74    3.96
 -19  21  14   -3.92    4.00
  21  -2  14    5.93    4.35
   5  16 -14   -4.88    3.44
  16 -21 -14   -1.29    4.16
 -16  21  14    0.19    3.53
  21  -5  14   -2.91    3.73
   8  13 -14    1.85    3.30
  13 -21 -14    9.68    4.30
 -13  21  14    2.47    3.12
  11  10 -14    2.62    3.66
  10 -21 -14   10.66    4.21
  21 -11  14    9.84    4.03
 -10  21  14    9.89    3.29
  14   7 -14   11.94    3.72
  17   4 -14    6.06    4.47
 -21  17 -14    5.76    3.90
   4 -21 -14   -0.42    3.96
  21 -17  14    1.71    4.58
 -21  20 -14    2.14    3.85
   1 -21 -14    0.68    5.07
  20   1 -14   -1.76    4.50
  21 -20  14    6.12    5.06
 -20  -1  14    5.69    4.29
  -2 -21 -14    7.97    6.02
  23  -2 -14   11.44    5.98
 -21  23 -14   15.79    4.86
  21 -23  14    1.20    5.74
 -23   2  14    2.87    4.72
 -22  -2 -14   40.29    6.64
  22   2  14   36.11    6.79
  21 -22 -14    1.33    5.70
   1  21 -14   -0.65    4.62
 -22   1 -14   -6.31    4.68
 -21  22  14    7.27    4.56
  22  -1  14    7.32    5.88
   4  18 -14   48.64    5.93
  18 -22 -14   47.78    6.68
 -18  22  14   57.29    6.35
  22  -4  14   43.23    6.52
  15 -22 -14    1.45    4.52
   7  15 -14    1.64    3.48
 -15  22  14    2.06    3.61
  22  -7  14   -0.89    4.79
  10  12 -14   70.14    6.24
  12 -22 -14   68.17    6.84
  22 -10  14   85.48    8.20
 -12  22  14   68.75    5.87
  13   9 -14    0.77    4.37
   9 -22 -14    5.33    4.42
  22 -13  14    0.05    4.48
   6 -22 -14   57.21    6.79
  16   6 -14   53.57    6.43
  22 -16  14   80.73    8.21
 -22  19 -14    0.17    3.82
  19   3 -14    6.18    4.64
   3 -22 -14   -3.63    4.36
 -19  -3  14    0.93    4.51
  22 -19  14    5.45    4.62
 -22  22 -14   35.62    5.58
   0 -22 -14   38.46    6.32
  22   0 -14   40.90    7.00
 -22   0  14   36.21    6.25
  22 -22  14   33.11    6.95
  -3 -22 -14    4.14    6.93
  22 -25  14   -0.63    6.43
  23 -23 -14   -4.88    6.76
 -23   0 -14    0.11    5.76
 -23  23  14    0.76    6.82
  23   0  14   -1.94    6.06
  20 -23 -14   -2.44    5.54
 -23   3 -14   -1.31    4.83
   3  20 -14   -5.61    4.64
  23  -3  14   -1.17    5.57
 -20  23  14    3.25    4.56
   6  17 -14   11.46    4.67
  17 -23 -14   11.99    5.47
  23  -6  14    1.23    5.35
 -17  23  14   10.10    4.23
  14 -23 -14    2.28    4.75
   9  14 -14   -2.32    3.60
 -14  23  14    2.22    3.85
  23  -9  14   -0.60    4.35
  12  11 -14    2.32    4.37
  11 -23 -14    3.52    4.31
  23 -12  14   17.19    4.88
   8 -23 -14    9.92    5.06
  15   8 -14    4.87    4.57
  23 -15  14   12.34    5.09
  18   5 -14  -13.23    4.78
   5 -23 -14   -1.17    4.42
  23 -18  14    8.18    5.47
  21   2 -14   11.37    6.51
   2 -23 -14    0.73    4.97
 -23  21 -14    8.67    4.68
  23 -21  14    6.41    6.06
 -21  -2  14    8.19    5.81
  -1 -23 -14   -0.06    6.57
  23 -24  14   -1.95    6.54
 -24   2 -14   16.80    6.13
  22 -24 -14   26.30    7.13
  24  -2  14   34.44    7.39
 -22  24  14   25.22    6.91
   5  19 -14   -6.19    4.84
  19 -24 -14    8.26    6.03
  24  -5  14    1.79    5.93
 -19  24  14    4.22    4.68
   8  16 -14   41.68    6.02
  16 -24 -14   40.34    6.81
  24  -8  14   42.34    6.35
 -16  24  14   33.63    5.44
  13 -24 -14   10.12    5.55
  11  13 -14   10.43    4.76
  24 -11  14   -1.46    5.43
  14  10 -14   26.51    5.74
  10 -24 -14   42.29    6.48
  24 -14  14   43.60    7.00
   7 -24 -14    2.51    5.44
  17   7 -14    5.63    4.63
  24 -17  14    1.90    5.10
   4 -24 -14   30.67    6.21
  20   4 -14   27.98    7.13
  24 -20  14   33.79    7.12
 -20  -4  14   33.36    6.78
   1 -24 -14   22.49    7.17
 -24  23 -14   19.30    8.03
  24 -23  14   16.14    6.90
 -25   4 -14    5.76    5.07
  21 -25 -14    1.67    6.69
  25  -4  14   -1.36    5.91
  18 -25 -14    8.13    5.73
   7  18 -14   10.41    5.45
 -18  25  14   -6.86    4.88
  25  -7  14   -5.39    6.02
  10  15 -14   11.18    5.22
  15 -25 -14    6.66    5.81
  25 -10  14    4.51    5.44
 -15  25  14   13.75    5.03
  13  12 -14   -4.40    4.94
  12 -25 -14   -5.14    4.87
  25 -13  14   -4.65    5.52
  16   9 -14   16.69    5.22
   9 -25 -14    2.23    5.54
  25 -16  14    0.56    5.90
   6 -25 -14   -0.27    6.12
  19   6 -14   -8.69    5.94
  25 -19  14    6.80    6.34
   3 -25 -14    7.91    6.26
  25 -22  14   19.27    7.78
  20 -26 -14   42.09    7.52
  26  -6  14   33.98    7.81
  17 -26 -14   -5.39    6.01
   9  17 -14   -5.95    5.50
 -17  26  14   -7.54    5.30
  26  -9  14    7.21    6.64
  12  14 -14   24.39    5.96
  14 -26 -14   41.65    6.79
  26 -12  14   38.62    7.21
  11 -26 -14    4.36    6.36
  15  11 -14   -1.77    5.64
  26 -15  14   11.27    6.38
   8 -26 -14   23.88    7.09
  18   8 -14   41.90    7.55
  26 -18  14   34.33    7.78
  16 -27 -14   12.30    7.01
  27 -11  14    3.43    6.92
  13 -27 -14   10.80    6.14
  27 -14  14   22.28    7.45
  10 -27 -14   12.63    7.10
  27 -17  14   -8.70    6.94
   0   0 -15   -1.64    2.47
   0   0 -15   -0.47    0.82
   0   0  15    1.66    1.78
  -1   2 -15   10.54    2.81
  -1  -1 -15   13.05    1.58
  -1  -1 -15   14.24    1.44
   2  -1 -15   12.13    1.45
   2  -1 -15   13.74    1.70
  -1  -1 -15   12.08    2.70
  -1   2 -15   11.74    1.33
  -1   2 -15    9.78    1.27
  -2   1  15   12.43    2.20
   1   1  15   11.32    1.58
   1  -2  15   12.71    1.47
   1  -2  15   12.50    2.31
   1  -2 -15    1.78    1.04
  -2   1 -15    0.72    0.84
   1   1 -15    0.91    0.97
  -2   1 -15    0.30    0.98
   1  -2 -15   -2.43    2.17
   1   1 -15    0.86    0.82
  -2   1 -15   -0.19    2.11
   1  -2 -15    0.27    0.98
   2  -1  15    0.35    1.08
  -1   2  15   -0.71    1.51
   2  -1  15    2.69    1.67
  -1  -1  15   -1.50    1.42
   4  -2 -15   12.28    1.40
  -2  -2 -15    9.96    1.59
  -2  -2 -15   11.61    1.18
   4  -2 -15    8.88    1.56
  -2  -2 -15   12.43    2.80
  -2   4 -15    9.55    1.40
   2   2  15    9.90    1.10
   2   2  15   11.49    1.72
   2  -4  15    7.86    2.20
   2   2  15   10.93    2.31
  -4   2  15   12.52    2.35
   0   3 -15   10.81    1.50
  -3   0 -15   14.10    1.74
   0   3 -15   11.12    1.32
  -3   0 -15    8.90    2.75
   3  -3 -15   14.04    1.72
   3  -3 -15   10.48    1.34
   0  -3  15   12.96    2.45
   3   0  15    8.96    2.17
  -3   3  15   15.03    2.42
   3   0  15   12.00    1.78
   0  -3  15   12.81    1.39
   0  -3 -15    2.85    1.01
  -3   3 -15    3.55    2.67
   3   0 -15    2.66    0.69
   3   0 -15    3.57    1.13
   0  -3 -15    2.93    1.22
  -3   3 -15    3.67    1.00
   0  -3 -15    5.74    2.28
   3  -3  15    0.27    1.15
   3  -3  15    2.19    1.86
  -3   0  15    2.61    1.60
   0   3  15    4.08    2.17
   0   3  15    3.71    0.99
  -3   6 -15    6.03    1.27
   6  -3 -15    4.37    1.56
  -3  -3 -15    1.53    2.29
   6  -3 -15    5.49    1.05
  -3  -3 -15    6.60    1.60
  -6   3  15    3.89    1.88
   3  -6  15    5.23    1.33
   3  -6  15    6.74    2.22
   3   3  15    5.90    1.63
   3   3  15    2.77    1.92
  -1   5 -15    0.34    0.99
  -4  -1 -15   -0.87    1.21
   5  -4 -15    0.66    1.23
  -4  -1 -15    3.16    2.49
   5  -4 -15   -0.20    1.14
  -4  -1 -15    1.91    0.70
   4   1  15    3.56    2.09
   1  -5  15    0.44    2.00
   4   1  15    1.24    1.45
  -5   4  15    0.32    1.26
   1  -5  15    0.71    0.98
  -5   4  15    1.52    1.60
  -4   2 -15    0.94    0.84
   2  -4 -15    2.61    1.22
  -4   2 -15    1.86    2.50
   2  -4 -15    0.64    1.14
   2   2 -15    3.35    1.23
   2  -4 -15    6.45    2.69
  -2   4  15    0.97    1.02
   4  -2  15    1.64    2.06
  -2   4  15    2.61    1.90
  -2  -2  15    3.01    1.68
   4  -2  15    1.99    1.32
   5  -1 -15    1.44    1.33
  -1  -4 -15    0.38    1.22
  -1  -4 -15   -0.88    2.50
  -4   5 -15    1.11    1.08
   4  -5  15   -1.11    1.80
   4  -5  15    2.27    1.25
   1   4  15    0.21    0.72
  -5   1  15    0.81    1.53
   1   4  15   -2.07    1.77
  -4   8 -15    9.76    1.64
   8  -4 -15   10.73    3.90
   8  -4 -15   10.40    1.42
  -4  -4 -15    8.83    1.79
  -4  -4 -15   15.00    3.10
  -8   4  15   12.11    3.68
   4  -8  15    9.27    2.96
   4  -8  15   10.62    1.74
  -8   4  15    8.47    1.96
   4   4  15   10.68    2.39
   4   4  15    9.64    2.16
  -2   7 -15   -1.31    1.07
   7  -5 -15    1.66    1.27
  -5  -2 -15    0.61    1.45
  -5  -2 -15    4.97    2.59
   7  -5 -15   -1.67    1.46
   5   2  15    1.00    1.49
   2  -7  15   -2.95    2.20
   5   2  15    0.12    1.92
  -7   5  15   -1.62    1.47
  -7   5  15    1.73    1.46
   2  -7  15    0.22    1.20
  -5   1 -15   17.82    1.35
   4  -5 -15   15.04    1.89
   4  -5 -15   18.44    2.05
   1   4 -15   17.65    2.08
  -5   1 -15   19.46    3.17
   5  -1  15   15.32    2.05
  -4   5  15   18.07    2.05
  -4   5  15   19.68    2.86
   5  -1  15   21.14    2.93
  -1  -4  15   22.40    3.04
   4   1 -15    1.81    1.33
   1  -5 -15    4.02    1.28
   1  -5 -15    1.44    2.51
  -5   4 -15    2.94    1.05
   5  -4  15    2.70    1.34
  -1   5  15    3.77    2.00
   5  -4  15    6.38    2.29
  -1   5  15    4.12    1.00
  -4  -1  15    6.54    2.02
  -5   7 -15   14.86    1.70
   7  -2 -15   12.86    2.08
  -2  -5 -15    9.99    2.79
  -2  -5 -15   11.90    1.89
   5  -7  15   11.45    3.00
   2   5  15   15.55    2.69
  -7   2  15   12.66    2.13
   5  -7  15   14.73    1.99
  10  -5 -15   34.28    3.51
  -5  10 -15   35.61    2.67
  -5  -5 -15   33.03    3.09
 -10   5  15   32.38    3.35
   5 -10  15   36.02    2.88
   5 -10  15   38.32    4.73
 -10   5  15   33.25    3.34
   5   5  15   31.18    3.52
  -6  -3 -15    1.52    1.76
   9  -6 -15    4.97    1.87
   9  -6 -15    6.41    1.60
   3  -9  15    6.61    2.53
   6   3  15    4.85    2.03
  -9   6  15    2.74    1.78
   3  -9  15    6.90    1.55
  -9   6  15    9.44    2.09
   6  -6 -15    1.28    1.25
  -6   0 -15    2.16    2.65
   0   6 -15    2.08    1.38
   6  -6 -15    3.63    1.31
   0  -6  15    1.48    0.89
   6   0  15    2.79    1.48
  -6   6  15    0.80    1.81
   0  -6  15    0.33    2.23
   6   0  15    1.95    1.92
  -6   6  15    3.09    1.40
   3   3 -15    0.63    1.31
  -6   3 -15    9.32    2.64
   3  -6 -15    2.26    1.28
  -6   3 -15    3.04    0.92
   6  -3  15    3.17    1.44
  -3   6  15    2.01    1.00
  -3  -3  15    2.53    1.85
   6  -3  15    3.21    1.93
  -3   6  15    4.06    1.81
   6   0 -15    2.40    1.34
   0  -6 -15    6.04    2.93
   0  -6 -15    1.54    1.43
   6  -6  15    2.86    1.47
   0   6  15    2.63    0.81
  -6   0  15    5.86    1.93
   6  -6  15    2.27    2.42
   0   6  15   -0.43    1.90
  -3  -6 -15    9.86    2.23
  -6   9 -15    8.76    1.62
   9  -3 -15    9.36    1.88
   6  -9  15    8.76    2.91
   3   6  15    7.59    2.47
  -9   3  15    8.22    2.00
   6  -9  15   10.63    1.88
  12  -6 -15    4.26    2.16
  -6  -6 -15   -0.75    1.70
  -6  12 -15    5.11    1.62
 -12   6  15    3.41    2.08
   6 -12  15    3.77    1.90
   6 -12  15   -4.92    3.30
   6   6  15   -1.12    1.84
 -12   6  15    1.55    1.68
  11  -7 -15    7.01    2.34
  11  -7 -15    7.45    1.83
  -7  -4 -15    7.14    2.08
  -4  11 -15   13.09    2.19
   4 -11  15    3.80    2.93
   7   4  15    5.70    2.22
   4 -11  15    5.97    1.82
 -11   7  15    7.32    2.12
  -7  -1 -15   21.15    4.01
   8  -7 -15   18.88    2.26
  -7  -1 -15   14.48    2.14
   8  -7 -15   23.08    2.84
  -8   7  15   18.32    2.29
   7   1  15   14.97    2.42
   7   1  15   18.93    3.20
   1  -8  15   19.60    3.28
   1  -8  15   15.45    1.95
  -8   7  15   15.99    2.63
  -7   2 -15    6.95    0.95
   5  -7 -15    4.61    1.45
   2   5 -15    4.70    2.80
  -7   2 -15    6.33    2.73
  -5   7  15    7.20    2.12
   7  -2  15    6.37    1.64
  -2  -5  15    5.51    2.18
  -5   7  15    6.25    1.61
  -7   5 -15   12.62    1.53
   2  -7 -15   15.12    2.10
   2  -7 -15   15.48    3.26
   5   2 -15   14.41    2.62
  -2   7  15   10.98    2.60
   7  -5  15   10.81    2.57
  -2   7  15   13.19    1.48
   7  -5  15   12.42    2.39
  -5  -2  15   15.92    2.49
  -1  -7 -15   34.62    3.22
   8  -1 -15   39.88    3.13
  -7   8 -15   37.40    2.57
  -8   1  15   36.47    3.38
   7  -8  15   40.92    4.55
   1   7  15   43.54    3.91
  11  -4 -15    1.14    1.82
  -4  -7 -15    0.32    1.65
  -7  11 -15    2.77    1.41
 -11   4  15   -2.71    1.57
 -11   4  15   -1.21    1.77
   7 -11  15   -0.68    1.76
   7 -11  15   -0.62    2.98
  -7  14 -15   57.32    4.04
  14  -7 -15   52.62    4.71
  -7  -7 -15   54.16    4.37
   7 -14  15   54.66    6.55
   7 -14  15   60.78    4.40
 -14   7  15   57.60    4.30
 -14   7  15   54.44    4.42
  13  -8 -15    6.19    2.28
  -5  13 -15    4.04    1.74
  -8  -5 -15    3.09    2.00
  13  -8 -15    1.62    1.92
 -13   8  15    0.36    2.08
   5 -13  15    3.80    2.00
 -13   8  15    0.16    2.15
   5 -13  15    7.07    3.88
   8   5  15   -1.92    2.07
  10  -8 -15    7.03    1.83
  10  -8 -15    1.45    1.87
  -8  -2 -15   -0.38    1.86
  -2  10 -15    4.24    1.55
 -10   8  15    6.36    2.28
 -10   8  15    7.43    1.93
   2 -10  15    1.22    2.59
   2 -10  15    4.11    1.59
   8   2  15    1.66    2.29
  -8   1 -15   10.09    3.59
   1   7 -15   13.60    2.06
   7  -8 -15   11.21    1.89
  -7   8  15   13.42    1.95
   8  -1  15   14.86    2.43
  -1  -7  15   11.16    2.73
   8  -1  15   14.63    2.76
  -7   8  15   11.43    2.39
   4   4 -15    0.65    1.34
   4  -8 -15    0.99    1.44
  -8   4 -15   -0.19    0.90
   8  -4  15   -3.99    1.91
   8  -4  15   -0.08    1.62
  -4   8  15   -0.37    1.13
  -4   8  15    4.70    2.09
  -4  -4  15    0.51    1.93
   1  -8 -15    8.90    3.15
   7   1 -15    8.99    2.12
  -8   7 -15    8.34    1.49
   1  -8 -15    7.42    1.71
  -1   8  15   10.89    2.57
  -7  -1  15   12.39    2.44
   8  -7  15   12.78    3.91
  -1   8  15    7.01    1.11
   8  -7  15    7.23    1.82
  -2  -8 -15   -0.44    2.74
  -8  10 -15   -0.08    1.41
  10  -2 -15    1.51    1.67
   8 -10  15   -0.81    3.34
   8 -10  15    1.08    1.69
 -10   2  15   -0.43    1.74
  -5  -8 -15    5.28    2.30
  13  -5 -15    7.45    2.48
  -8  13 -15    5.39    1.84
   8 -13  15    5.26    2.18
 -13   5  15    4.43    2.21
 -13   5  15    3.67    1.93
   8 -13  15   10.79    3.81
  -8  -8 -15    6.74    2.98
  16  -8 -15    5.47    3.30
  -8  16 -15    3.47    2.22
 -16   8  15    2.55    2.22
   8 -16  15    6.06    2.63
 -16   8  15    8.10    3.02
   8 -16  15   11.40    5.27
  -6  15 -15    4.50    2.12
  -9  -6 -15    5.05    2.84
   9   6  15    6.47    2.86
   6 -15  15    5.94    8.07
   6 -15  15    6.46    2.50
 -15   9  15    4.40    2.42
 -15   9  15    4.43    2.39
  12  -9 -15   37.52    3.41
  -9  -3 -15   38.49    3.65
  -3  12 -15   37.29    3.23
 -12   9  15   34.18    3.34
   3 -12  15   39.51    3.20
   3 -12  15   47.12    5.33
   9   3  15   33.61    3.83
 -12   9  15   38.30    4.07
   9  -9 -15    1.56    1.85
   0   9 -15    0.82    1.50
  -9   9  15   -1.11    1.55
   9   0  15   -2.65    2.03
  -9   9  15    1.69    2.11
   0  -9  15    1.37    2.35
   6  -9 -15   47.31    3.22
   3   6 -15   46.75    3.35
  -9   3 -15   45.45    2.65
  -3  -6  15   45.58    4.30
   9  -3  15   41.88    3.65
  -6   9  15   41.25    2.76
  -6   9  15   46.19    3.80
   3  -9 -15    9.94    1.82
  -9   6 -15    7.64    1.38
   3  -9 -15    2.57    3.41
   6   3 -15    9.59    2.08
  -3   9  15    6.69    1.36
  -3   9  15   10.04    2.25
   9  -6  15    7.49    1.80
  -6  -3  15    7.28    2.30
   9   0 -15    7.82    1.99
   0  -9 -15    7.14    1.90
  -9   9 -15    6.96    1.63
   9  -9  15    6.98    2.11
  -9   0  15   10.60    2.36
   0   9  15   12.62    3.40
  -3  -9 -15   23.46    3.25
  12  -3 -15   24.49    3.51
  -9  12 -15   26.35    2.77
 -12   3  15   21.75    2.78
   9 -12  15   19.52    4.35
   9 -12  15   20.61    2.87
  15  -6 -15    0.56    2.42
  -9  15 -15    2.35    2.03
  -6  -9 -15   -1.74    2.25
 -15   6  15    2.76    2.07
   9 -15  15    0.82    2.48
 -15   6  15    0.87    2.02
  -9  18 -15   27.36    3.93
  -9  -9 -15   24.26    4.01
   9 -18  15   22.36    3.81
 -18   9  15   31.37    4.03
 -18   9  15   21.80    3.37
 -10  -7 -15   10.23    3.43
  -7  17 -15    5.45    2.64
 -17  10  15    8.58    2.63
   7 -17  15    2.83    2.70
 -17  10  15    6.15    2.62
   7 -17  15   -3.08    5.39
  10   7  15    2.62    3.24
 -10  -4 -15    1.99    2.11
  -4  14 -15   -0.33    1.85
  14 -10 -15   -1.58    2.13
  10   4  15    0.38    2.25
   4 -14  15    3.34    2.10
 -14  10  15   -2.18    2.22
 -14  10  15    1.87    2.26
   4 -14  15    4.42    3.98
 -10  -1 -15    9.95    2.39
  -1  11 -15    9.18    1.98
  11 -10 -15    7.94    2.18
  10   1  15   10.40    2.66
   1 -11  15    6.55    5.41
 -11  10  15    9.40    3.09
 -11  10  15    8.52    1.92
   2   8 -15    0.50    1.46
   8 -10 -15    3.11    1.76
  10  -2  15    1.80    2.99
  -8  10  15    1.98    2.11
  -2  -8  15    6.84    2.62
  -8  10  15    0.66    1.79
 -10   5 -15    7.52    1.30
   5   5 -15    5.12    1.72
   5 -10 -15    9.13    2.06
  -5  10  15    6.33    1.49
  -5  -5  15   10.97    2.52
  10  -5  15    6.59    2.44
  -5  10  15    7.30    2.56
   2 -10 -15    4.39    2.13
 -10   8 -15    5.48    1.44
   8   2 -15    7.92    2.00
  -8  -2  15    2.29    2.06
  -2  10  15   10.57    3.04
  10  -8  15    5.68    2.25
  -2  10  15    7.30    1.35
  11  -1 -15   13.65    2.54
 -10  11 -15   15.73    2.15
  -1 -10 -15   17.53    2.75
  10 -11  15   12.08    4.18
 -11   1  15   14.92    2.45
  14  -4 -15    1.91    2.33
 -10  14 -15    4.59    2.01
  -4 -10 -15    4.75    2.22
  10 -14  15    3.37    2.35
 -14   4  15    6.09    2.15
 -14   4  15    5.03    2.45
 -10  17 -15   13.39    2.64
  17  -7 -15    6.23    3.30
  -7 -10 -15   11.27    3.35
  10 -17  15   10.17    3.13
 -17   7  15    7.89    2.76
 -17   7  15   11.34    2.58
 -10  20 -15    1.32    2.87
 -10 -10 -15   -4.97    3.14
 -20  10  15    0.09    3.00
  10 -20  15   -4.15    3.26
  -8  19 -15   10.03    3.01
 -11  -8 -15    6.02    3.16
 -19  11  15    2.28    3.45
   8 -19  15    4.49    3.17
  -5  16 -15   49.93    4.48
  16 -11 -15   41.24    5.24
 -11  -5 -15   44.22    4.38
 -16  11  15   42.95    4.27
   5 -16  15   50.63    6.59
 -16  11  15   60.47    4.86
  11   5  15   36.40    4.72
  13 -11 -15    2.03    2.27
  -2  13 -15    2.39    1.76
 -11  -2 -15    2.13    2.29
   2 -13  15    0.83    3.68
 -13  11  15    1.17    2.13
  11   2  15    0.55    2.34
 -13  11  15   -0.24    2.58
  10 -11 -15   38.16    3.51
   1  10 -15   43.01    3.39
  -1 -10  15   41.47    4.94
 -10  11  15   43.26    4.39
  11  -1  15   38.92    4.08
 -10  11  15   33.31    3.22
   4   7 -15   -0.40    1.46
   7 -11 -15    1.76    1.77
  11  -4  15    1.84    2.03
  -7  11  15   -0.89    1.42
  -7  11  15    0.84    2.18
  -4  -7  15    1.20    2.32
   4 -11 -15   18.17    2.56
 -11   7 -15   17.68    2.11
   7   4 -15   17.18    2.53
  -7  -4  15   20.64    2.85
  11  -7  15   23.06    2.97
  -4  11  15   21.04    3.42
  -4  11  15   20.09    2.33
 -11  10 -15    4.29    1.66
   1 -11 -15    5.64    2.30
  10   1 -15    8.19    2.25
  11 -10  15    8.40    2.79
 -10  -1  15    6.70    2.20
  -2 -11 -15    9.32    2.42
  13  -2 -15   13.20    3.08
 -11  13 -15    6.31    2.08
 -13   2  15    7.75    2.12
  11 -13  15    5.51    2.40
  16  -5 -15   25.92    3.94
  -5 -11 -15   25.76    3.62
 -11  16 -15   29.50    3.36
 -16   5  15   31.81    3.97
  11 -16  15   27.98    3.97
 -16   5  15   28.30    3.57
 -11  19 -15    2.26    2.74
  -8 -11 -15    4.02    3.54
  19  -8 -15   -2.91    3.53
 -19   8  15    2.63    2.87
  11 -19  15    0.09    3.27
 -11 -11 -15   27.93    5.37
 -11  22 -15   26.62    4.69
  11 -22  15   33.51    5.13
 -22  11  15   28.91    4.75
 -12  -9 -15   -0.38    3.49
  -9  21 -15    0.51    3.01
 -21  12  15   -2.41    3.30
 -12  -6 -15    4.53    2.96
  -6  18 -15   10.39    3.13
  12   6  15    4.29    3.23
   6 -18  15    1.95    5.61
 -18  12  15    2.98    3.11
 -18  12  15    6.26    2.75
  -3  15 -15    2.43    2.38
 -12  -3 -15   -0.35    2.24
   3 -15  15    3.67    4.01
 -15  12  15    1.36    2.68
  12   3  15   -1.83    2.52
 -15  12  15    5.63    2.29
  12 -12 -15   -3.63    2.45
   0  12 -15    0.66    1.72
 -12  12  15    0.47    2.54
 -12  12  15    0.53    1.73
   0 -12  15    1.78    3.37
  12   0  15    2.75    2.23
   9 -12 -15    5.52    2.54
   3   9 -15    2.87    1.69
  -9  12  15    0.38    2.58
  12  -3  15   -0.75    1.82
  -9  12  15    2.69    1.72
  -3  -9  15    1.70    2.69
 -12   6 -15    6.15    1.44
   6 -12 -15    6.65    2.67
   6   6 -15    4.03    1.84
  -6  12  15    2.70    2.48
  -6  12  15    8.32    1.79
  12  -6  15    7.10    2.39
  -6  -6  15    7.38    2.41
   9   3 -15    0.74    1.81
   3 -12 -15    2.42    1.87
 -12   9 -15    4.02    1.52
  -3  12  15    5.59    1.42
  12  -9  15    0.98    2.19
  -9  -3  15    5.10    2.06
  12   0 -15    1.38    2.11
 -12  12 -15    7.18    1.86
   0 -12 -15    2.29    2.16
  12 -12  15    3.15    2.25
 -12   0  15    5.00    1.96
 -12  15 -15    8.18    2.49
  15  -3 -15    9.31    3.29
  -3 -12 -15    9.57    2.79
 -15   3  15    8.74    2.41
 -15   3  15   12.25    3.19
  12 -15  15    6.96    3.01
  18  -6 -15    0.14    3.15
  -6 -12 -15   -1.21    2.89
 -12  18 -15    0.55    2.87
 -18   6  15   -0.35    2.75
  12 -18  15    0.05    3.18
  -9 -12 -15    7.81    3.87
 -12  21 -15   14.52    3.34
  12 -21  15    4.39    3.88
 -21   9  15    2.63    3.61
 -12 -12 -15    1.64    4.51
 -12  24 -15   -7.26    4.07
 -24  12  15    1.43    4.77
 -10  23 -15    3.43    4.06
 -13 -10 -15   13.38    4.59
 -23  13  15    6.96    4.66
 -13  -7 -15   46.97    5.77
  -7  20 -15   53.11    5.07
 -20  13  15   54.75    5.99
  13   7  15   52.24    6.37
  17 -13 -15    2.09    3.09
 -13  -4 -15    4.19    2.86
  -4  17 -15    0.01    2.47
 -17  13  15   -1.05    2.99
  13   4  15    2.60    2.90
   4 -17  15   -0.44    4.64
 -17  13  15   -1.62    2.81
  -1  14 -15   27.82    3.40
  14 -13 -15   25.84    3.52
 -13  -1 -15   27.45    3.83
 -14  13  15   26.29    3.92
   1 -14  15   26.08    4.56
  13   1  15   27.19    4.12
 -14  13  15   22.29    3.10
   2  11 -15    0.13    1.90
  11 -13 -15   -2.16    2.17
  -2 -11  15    0.61    3.00
 -11  13  15   -0.23    1.97
  13  -2  15   -1.26    2.08
   5   8 -15   36.82    3.60
   8 -13 -15   32.83    3.33
  13  -5  15   31.67    4.03
  -5  -8  15   27.76    3.69
  -8  13  15   34.71    4.23
 -13   8 -15   11.24    1.81
   8   5 -15   11.48    2.47
   5 -13 -15    9.60    2.62
  -8  -5  15    5.95    2.35
  -5  13  15    9.02    1.76
  13  -8  15    7.65    2.37
  11   2 -15    4.47    2.29
   2 -13 -15    4.77    2.38
 -13  11 -15    2.67    1.71
  13 -11  15    3.31    2.19
 -11  -2  15    3.98    2.04
  -1 -13 -15   30.75    4.19
 -13  14 -15   39.36    3.16
  14  -1 -15   31.51    4.05
 -14   1  15   31.46    3.39
  13 -14  15   25.32    3.86
 -13  17 -15   -0.19    2.46
  17  -4 -15    2.64    3.18
  -4 -13 -15    2.33    2.74
  13 -17  15    3.66    3.13
 -17   4  15   -0.66    2.79
 -17   4  15    3.67    2.26
  -7 -13 -15   25.33    5.10
 -13  20 -15   33.91    5.09
  20  -7 -15   25.58    5.31
  13 -20  15   31.15    4.79
 -20   7  15   33.56    4.98
 -13  23 -15   -2.17    3.42
 -10 -13 -15    3.93    4.28
 -23  10  15   -3.11    4.48
 -13  26 -15   31.02    7.70
 -13 -13 -15   30.72    6.33
 -26  13  15   28.81    7.92
 -14 -11 -15    5.91    5.40
 -11  25 -15    1.26    4.85
 -25  14  15    4.28    4.54
  -8  22 -15   -1.28    3.17
 -14  -8 -15    3.50    4.28
 -22  14  15   -2.33    3.89
  -5  19 -15    3.82    3.81
 -14  -5 -15    1.82    3.41
   5 -19  15   -2.11    6.00
  14   5  15    6.64    4.07
  16 -14 -15    5.08    3.08
  -2  16 -15   -1.94    2.24
 -14  -2 -15    1.02    2.54
 -16  14  15   -1.70    2.75
 -16  14  15    3.09    3.28
   2 -16  15   -3.95    3.86
  14   2  15   -3.12    2.81
   1  13 -15    9.03    2.62
  13 -14 -15    4.13    2.81
 -13  14  15    8.86    2.60
  14  -1  15    6.59    3.14
  -1 -13  15    9.39    3.94
 -13  14  15    8.37    2.82
  10 -14 -15    2.26    2.33
   4  10 -15    2.11    2.13
 -10  14  15    4.86    2.95
 -10  14  15    3.98    2.05
  14  -4  15    1.85    2.31
  -4 -10  15    5.47    3.05
   7 -14 -15    5.80    2.50
   7   7 -15    6.04    2.52
  -7  14  15    6.46    2.06
  -7  -7  15    5.66    2.60
  14  -7  15    6.69    2.47
  -7  14  15    5.07    3.17
 -14  10 -15    0.02    1.65
   4 -14 -15    3.35    2.34
  10   4 -15   -0.50    1.93
  14 -10  15    2.52    2.29
 -10  -4  15   -0.45    2.15
 -14  13 -15   10.63    2.31
   1 -14 -15    9.60    2.76
  13   1 -15   10.63    2.87
  14 -13  15    6.90    2.94
 -13  -1  15    9.35    2.30
  -2 -14 -15   -1.00    2.95
  16  -2 -15   -2.71    2.70
 -14  16 -15   -3.39    2.24
  14 -16  15    4.64    3.06
 -16   2  15   -4.80    2.39
 -16   2  15   -0.06    2.08
 -14  19 -15   19.90    3.76
  19  -5 -15   25.41    5.01
  -5 -14 -15   15.35    4.14
  14 -19  15   29.44    4.64
 -19   5  15   23.11    4.32
 -14  22 -15    0.13    3.15
  -8 -14 -15   -2.81    4.42
  14 -22  15   -0.98    4.25
 -22   8  15   -8.60    4.00
 -14  25 -15    0.75    4.35
 -11 -14 -15    2.03    5.42
 -25  11  15  -10.17    4.30
 -15  -9 -15   22.25    5.99
  -9  24 -15   36.39    5.61
 -24  15  15   27.46    5.88
  -6  21 -15    7.86    3.61
 -15  -6 -15   -2.11    4.17
 -21  15  15    4.16    4.07
  15   6  15    4.60    4.63
  -3  18 -15   41.17    5.09
 -15  -3 -15   30.12    4.47
  18 -15 -15   32.99    4.70
   3 -18  15   43.54    7.08
 -18  15  15   31.73    4.49
  15   3  15   31.12    4.84
   0  15 -15   -2.26    2.48
  15 -15 -15    0.74    2.96
 -15  15  15    1.77    2.70
   0 -15  15    1.27    4.14
  15   0  15   -0.27    2.68
 -15  15  15   -1.39    3.25
  12 -15 -15   29.21    3.77
   3  12 -15   34.61    3.74
 -12  15  15   34.57    4.45
 -12  15  15   35.43    3.88
  -3 -12  15   32.89    4.66
  15  -3  15   40.90    4.83
   9 -15 -15    3.89    2.59
   6   9 -15    3.49    2.13
  -6  -9  15    4.70    2.86
  15  -6  15    3.98    2.51
  -9  15  15    6.82    3.06
  -9  15  15    6.66    2.10
 -15   9 -15    9.66    3.70
   6 -15 -15   11.86    3.05
   9   6 -15   12.19    2.84
  -9  -6  15   11.07    2.73
  15  -9  15   13.15    2.90
  -6  15  15   10.86    2.20
  12   3 -15   15.81    3.26
   3 -15 -15    9.42    2.90
 -15  12 -15   12.80    2.29
 -12  -3  15   12.77    2.45
  15 -12  15    8.10    2.73
  15   0 -15   15.84    3.69
 -15  15 -15   11.24    2.60
   0 -15 -15   13.86    3.72
  15 -15  15   14.50    3.33
 -15   0  15    9.53    2.27
 -15  18 -15   18.94    3.29
  -3 -15 -15   27.44    4.43
  18  -3 -15   27.84    5.76
  15 -18  15   23.75    4.33
 -18   3  15   25.79    4.85
  21  -6 -15    4.63    4.44
  -6 -15 -15    8.99    4.07
 -15  21 -15   -0.22    2.89
 -21   6  15    6.71    4.01
  15 -21  15   -6.08    3.89
 -15  24 -15   45.08    5.97
  -9 -15 -15   38.35    6.27
 -24   9  15   41.92    5.92
  15 -24  15   44.63    6.65
 -16 -10 -15   10.25    5.54
  -7  23 -15   14.81    4.26
 -16  -7 -15    1.25    4.83
 -23  16  15    2.63    3.99
  -4  20 -15   -0.08    3.09
 -16  -4 -15    3.38    3.92
 -20  16  15    2.43    3.84
  16   4  15    6.74    4.62
  17 -16 -15    9.80    3.91
  -1  17 -15   12.45    3.30
 -16  -1 -15    7.31    3.22
 -17  16  15   12.10    3.93
  16   1  15    9.45    3.51
 -17  16  15   14.18    3.65
   1 -17  15    8.85    5.60
   2  14 -15   -0.61    2.54
  14 -16 -15   -1.63    2.77
 -14  16  15   11.07    3.42
 -14  16  15    0.13    2.36
  16  -2  15    1.15    2.88
  -2 -14  15   -2.31    4.18
  11 -16 -15   11.92    2.93
   5  11 -15    9.13    2.78
  -5 -11  15   21.04    3.75
 -11  16  15   13.34    2.61
  16  -5  15    7.54    3.02
 -11  16  15    9.14    3.52
   8 -16 -15   -2.08    2.53
   8   8 -15    1.24    2.22
  -8  16  15    1.49    2.05
  16  -8  15   -2.59    2.35
  -8  -8  15   -1.34    2.70
   5 -16 -15   16.57    3.61
 -16  11 -15   16.56    2.45
  11   5 -15   18.67    3.22
  16 -11  15   23.94    4.08
 -11  -5  15   17.81    2.87
  14   2 -15    0.38    3.05
 -16  14 -15    4.50    2.16
   2 -16 -15    3.08    3.10
  16 -14  15    3.93    2.98
 -14  -2  15   -1.06    2.05
  -1 -16 -15    9.42    3.49
  17  -1 -15   22.66    4.21
 -16  17 -15   16.42    3.15
  16 -17  15    8.97    3.94
 -17   1  15   14.42    3.69
  20  -4 -15   -3.49    3.93
  -4 -16 -15   -2.61    4.07
 -16  20 -15    5.76    3.26
  16 -20  15   -2.31    4.11
 -20   4  15    4.53    3.75
 -16  23 -15    7.99    4.34
  -7 -16 -15   12.19    4.91
  16 -23  15    0.37    5.33
 -23   7  15    1.23    4.80
 -10 -16 -15  -10.15    5.69
  16 -26  15    7.47    6.71
  -8  25 -15    9.11    5.33
 -17  -8 -15   -7.57    5.45
 -25  17  15   -1.06    5.36
  -5  22 -15   57.79    6.58
 -17  -5 -15   51.05    6.44
 -22  17  15   48.02    6.00
  17   5  15   46.70    6.56
  -2  19 -15    2.93    3.12
  19 -17 -15    1.51    4.09
 -17  -2 -15   -1.30    6.57
  17   2  15   -4.02    7.17
 -19  17  15   -1.45    3.53
  16 -17 -15   41.59    5.39
   1  16 -15   48.38    4.77
 -16  17  15   37.89    4.49
  17  -1  15   49.22    5.60
 -16  17  15   34.13    5.09
  13 -17 -15    1.60    3.07
   4  13 -15   -0.22    2.36
  -4 -13  15   -0.29    3.64
 -13  17  15    1.92    2.50
 -13  17  15   -2.98    3.90
  17  -4  15    0.28    2.94
  10 -17 -15   32.27    4.13
   7  10 -15   38.85    4.51
  17  -7  15   33.28    4.58
 -10  17  15   35.78    3.77
  -7 -10  15   34.21    4.44
   7 -17 -15    5.92    2.85
  10   7 -15   -0.20    2.61
  17 -10  15   -0.02    3.09
 -10  -7  15    4.73    2.66
  -7  17  15    3.51    2.28
   4 -17 -15   11.23    3.59
  13   4 -15    9.23    3.17
 -17  13 -15   15.76    2.60
  17 -13  15    8.14    3.62
 -13  -4  15    9.41    2.51
   1 -17 -15   14.40    4.02
  16   1 -15   12.60    3.65
 -17  16 -15   14.84    3.07
  17 -16  15   26.66    4.18
  -2 -17 -15    1.80    6.93
  19  -2 -15    4.11    4.63
 -19   2  15    2.59    4.17
  17 -19  15    4.44    3.73
  -5 -17 -15   14.23    5.49
  22  -5 -15    9.66    5.27
 -17  22 -15   13.66    3.84
  17 -22  15    3.68    5.03
 -22   5  15   16.45    4.68
  -8 -17 -15   -3.07    5.69
 -17  25 -15   -6.84    4.11
 -25   8  15   -3.60    4.68
  17 -25  15    0.11    5.87
  -6  24 -15    5.52    4.19
 -18  -6 -15    4.69    5.18
 -24  18  15    2.63    4.34
 -18  -3 -15   -2.57    4.10
  -3  21 -15    9.80    4.11
  18   3  15    3.28    4.64
 -21  18  15    6.33    4.21
  18 -18 -15   -8.43    3.80
   0  18 -15    6.56    3.73
 -18  18  15    1.00    3.59
  15 -18 -15   15.93    3.90
   3  15 -15   11.86    3.94
  18  -3  15    8.60    3.74
 -15  18  15    7.74    3.96
 -15  18  15    9.96    3.29
   6  12 -15   -3.03    2.79
  12 -18 -15   -2.52    3.18
 -12  18  15   -2.45    2.40
  18  -6  15   -4.80    3.32
   9 -18 -15   19.17    4.07
   9   9 -15   15.98    3.33
  -9  -9  15   17.92    3.63
  -9  18  15   19.50    2.96
  18  -9  15   15.61    3.71
   6 -18 -15    2.93    3.04
  12   6 -15   -0.08    3.26
 -18  12 -15    0.23    2.24
  18 -12  15    3.53    2.95
 -12  -6  15    0.35    2.71
  15   3 -15   29.80    4.47
 -18  15 -15   25.63    3.39
   3 -18 -15   24.32    4.45
  18 -15  15   23.92    4.74
 -18  18 -15    1.92    2.66
  18   0 -15    1.27    4.34
  18 -18  15    3.91    4.16
 -18   0  15    7.21    4.11
  21  -3 -15   13.51    5.33
  -3 -18 -15    7.76    4.82
 -18  21 -15   12.06    4.09
 -21   3  15   13.18    4.42
  18 -21  15    7.81    4.94
  -6 -18 -15   -4.16    4.74
 -18  24 -15    1.67    4.57
 -24   6  15    3.63    4.78
  18 -24  15    5.38    5.81
 -19  -7 -15   35.62    7.29
  -4  23 -15    6.39    4.61
 -19  -4 -15   11.84    4.84
  19   4  15    2.40    4.96
 -23  19  15   -4.14    4.67
  -1  20 -15   40.01    5.19
  20 -19 -15   33.09    5.84
 -19  -1 -15   32.83    5.33
 -20  19  15   39.14    5.55
  19   1  15   38.67    6.05
   2  17 -15   -5.89    3.31
  17 -19 -15    3.32    4.18
 -17  19  15    4.69    3.60
  19  -2  15    3.36    5.23
  14 -19 -15   47.18    5.43
   5  14 -15   39.58    5.86
  19  -5  15   40.60    5.25
 -14  19  15   38.96    4.31
   8  11 -15    2.32    3.27
  11 -19 -15   -1.73    3.40
  19  -8  15   -3.58    3.17
 -11  19  15    2.30    2.80
   8 -19 -15   25.60    4.23
  11   8 -15   37.53    4.68
  19 -11  15   27.03    4.94
   5 -19 -15   10.28    4.14
 -19  14 -15   19.87    3.10
  19 -14  15   15.54    4.69
 -19  17 -15   16.66    3.67
  17   2 -15   17.90    4.76
  19 -17  15   28.09    4.84
  20  -1 -15    5.58    4.55
  -1 -19 -15    5.72    5.10
 -19  20 -15   14.89    3.95
  19 -20  15   15.40    4.73
 -20   1  15    8.19    4.20
  -4 -19 -15   -7.45    5.40
  23  -4 -15    1.49    6.01
 -19  23 -15   -5.00    4.29
  19 -23  15    0.37    5.41
 -23   4  15    5.74    5.24
  -7 -19 -15   32.41    7.31
  19 -26  15   30.90    7.90
 -20  -5 -15   -4.81    5.94
  20   5  15   12.28    6.48
  -2  22 -15   -2.60    4.44
 -20  -2 -15   -6.03    4.17
  20   2  15    0.32    4.87
 -22  20  15    2.75    4.13
 -20   1 -15    5.46    4.24
   1  19 -15    2.58    3.95
  20  -1  15    8.27    5.14
 -19  20  15   -2.76    3.88
  16 -20 -15    1.65    4.11
   4  16 -15    2.16    3.31
 -16  20  15   -3.00    3.41
  20  -4  15   -0.12    4.30
  13 -20 -15    9.11    4.24
   7  13 -15    6.33    3.25
  20  -7  15   11.46    4.77
 -13  20  15    4.10    3.10
  10  10 -15    5.51    3.65
  10 -20 -15    5.29    3.85
  20 -10  15    1.88    3.58
 -10  20  15   -3.13    2.91
   7 -20 -15   23.99    4.94
  13   7 -15   29.95    4.45
  20 -13  15   31.89    4.94
   4 -20 -15    0.50    4.37
  16   4 -15    4.54    4.08
 -20  16 -15   -3.80    2.96
 -20  19 -15   10.21    3.92
   1 -20 -15   -3.32    4.13
  19   1 -15   14.81    4.73
 -19  -1  15    5.22    4.65
  20 -19  15   -0.69    4.86
 -20  22 -15   -0.98    4.19
  -2 -20 -15    9.25    5.82
  22  -2 -15    9.05    5.63
 -22   2  15    9.74    4.81
  20 -22  15    1.35    5.30
  -5 -20 -15   16.26    6.23
  20 -25  15   11.37    6.82
 -21  -3 -15   29.01    6.13
 -24  21  15   21.81    8.63
  21   3  15   31.81    7.26
   0  21 -15    2.27    4.82
  21 -21 -15   -4.86    5.47
 -21   0 -15   -0.43    4.71
 -21  21  15   -1.01    3.92
  21   0  15    7.79    6.01
  18 -21 -15   31.43    5.62
   3  18 -15   41.49    5.50
 -18  21  15   36.24    5.14
  21  -3  15   22.98    5.25
   6  15 -15    1.14    3.35
  15 -21 -15    1.17    4.95
  21  -6  15    3.00    4.10
 -15  21  15    8.59    3.63
   9  12 -15   14.08    4.43
  12 -21 -15   24.93    5.40
 -12  21  15   14.00    3.89
  21  -9  15   22.49    5.47
  12   9 -15    0.21    3.33
  21 -12  15   -2.66    4.67
   6 -21 -15   11.08    4.61
  15   6 -15    9.42    3.97
  21 -15  15   18.42    5.14
   3 -21 -15    5.42    4.31
  18   3 -15   12.36    4.54
 -21  18 -15   19.71    4.09
  21 -18  15   17.40    5.58
  21   0 -15    7.25    6.23
   0 -21 -15    5.73    5.70
 -21  21 -15    2.17    4.31
  21 -21  15   -2.75    5.45
 -21   0  15   -0.30    5.18
  -3 -21 -15   15.91    6.63
 -21  24 -15   13.56    5.39
  21 -24  15   16.83    6.47
 -24   3  15    8.94    7.89
 -22  -1 -15    4.09    5.55
  -1  23 -15   -5.33    6.45
  22   1  15    9.18    6.34
 -23  22  15   -6.17    4.53
 -22   2 -15    6.41    4.98
   2  20 -15    9.26    4.73
  20 -22 -15   -2.16    5.36
  22  -2  15    1.57    5.70
 -20  22  15    3.07    3.89
  17 -22 -15   12.54    5.42
   5  17 -15    7.60    4.53
 -17  22  15    3.24    4.06
  22  -5  15   12.07    5.53
  14 -22 -15    2.07    4.59
   8  14 -15   -3.89    3.54
 -14  22  15    0.56    3.56
  22  -8  15    0.97    4.15
  11  11 -15    2.69    4.06
  11 -22 -15    9.73    4.92
  22 -11  15   11.96    5.16
  14   8 -15    2.39    3.83
   8 -22 -15    9.00    5.06
  22 -14  15    0.71    5.00
  17   5 -15   10.17    5.03
   5 -22 -15   13.16    5.07
  22 -17  15   13.76    5.59
 -22  20 -15    8.23    4.32
   2 -22 -15   -9.82    5.24
  20   2 -15   -0.19    5.05
 -20  -2  15   -6.65    4.58
  22 -20  15    2.98    5.60
 -22  23 -15   20.50    5.22
  23  -1 -15   22.49    7.72
  -1 -22 -15   10.89    6.70
 -23   1  15   20.96    6.48
  22 -23  15   21.78    7.08
  22 -23 -15   27.74    6.98
 -23   1 -15   35.25    6.99
   1  22 -15   32.88    6.93
  23  -1  15   33.78    7.41
 -22  23  15   34.25    6.13
   4  19 -15   -4.93    4.56
  19 -23 -15   -1.48    5.25
  23  -4  15    1.58    5.14
 -19  23  15   -5.32    4.24
   7  16 -15   24.16    5.33
  16 -23 -15   32.73    5.92
  23  -7  15   27.61    6.52
 -16  23  15   30.88    4.81
  13 -23 -15   15.25    5.36
  10  13 -15    9.03    4.68
  23 -10  15   -0.94    5.05
  13  10 -15    8.05    4.51
  10 -23 -15   13.66    4.63
  23 -13  15   22.51    5.94
   7 -23 -15    6.47    5.13
  16   7 -15   -4.26    4.80
  23 -16  15    0.95    5.44
  19   4 -15    0.97    5.40
   4 -23 -15    8.35    4.90
 -19  -4  15    0.57    5.37
  23 -19  15   22.87    6.59
 -23  22 -15    0.27    4.90
   1 -23 -15    0.92    6.21
  22   1 -15    5.69    6.33
 -22  -1  15   13.81    5.58
  23 -22  15   -2.77    6.40
   3  21 -15   17.12    7.41
  21 -24 -15   25.81    6.87
 -24   3 -15   15.04    6.10
  24  -3  15   13.93    6.85
 -21  24  15   16.32    5.64
  18 -24 -15    1.73    6.05
   6  18 -15   -3.34    4.75
  24  -6  15   -2.32    5.03
 -18  24  15   -6.05    4.58
  15 -24 -15    6.69    5.57
   9  15 -15   11.72    5.00
 -15  24  15    7.68    4.66
  24  -9  15    5.63    5.31
  12 -24 -15    1.57    5.59
  12  12 -15  -10.57    4.64
  24 -12  15   -1.81    5.77
   9 -24 -15   21.92    5.97
  15   9 -15    8.90    5.27
  24 -15  15    9.69    5.55
  18   6 -15   -2.62    4.94
   6 -24 -15   10.45    5.82
  24 -18  15   13.84    6.43
   3 -24 -15   10.23    6.77
  21   3 -15   21.66    7.39
  24 -21  15   26.22    7.32
 -21  -3  15   29.15    6.45
  20 -25 -15   20.43    7.12
 -20  25  15   25.17    6.09
  25  -5  15   13.22    7.46
   8  17 -15   -4.63    4.47
  17 -25 -15   -9.20    5.83
  25  -8  15    0.74    6.06
 -17  25  15    5.96    5.17
  11  14 -15   14.04    5.61
  14 -25 -15   14.35    5.93
  25 -11  15    9.24    6.36
  14  11 -15    2.24    5.00
  11 -25 -15    1.29    5.91
  25 -14  15    4.54    5.43
   8 -25 -15    4.59    5.38
  17   8 -15   19.55    5.77
  25 -17  15    7.89    6.45
   5 -25 -15   15.99    6.82
  25 -20  15    5.67    6.95
  19 -26 -15   -2.88    6.69
  26  -7  15    7.71    7.67
  16 -26 -15   -1.97    6.45
  10  16 -15   14.91    8.33
  26 -10  15   -2.20    5.61
  13  13 -15   18.09    6.11
  13 -26 -15   16.10    6.82
  26 -13  15    6.38    6.21
  10 -26 -15    0.99    6.75
  16  10 -15    2.22    6.77
  26 -16  15   12.23    7.04
   7 -26 -15   14.10    7.02
  26 -19  15   16.30    7.13
   0   1 -16    1.68    0.97
   1  -1 -16   -0.16    1.01
   0   1 -16    0.83    1.01
   1  -1 -16   -0.01    1.03
  -1   0 -16   -1.74    1.00
  -1   0 -16   -0.11    0.95
  -1   0 -16   -1.17    2.46
   1   0  16    0.66    1.17
  -1   1  16    0.35    1.93
   1   0  16   -3.23    1.91
   0  -1  16   -0.79    1.88
   0  -1  16   -0.47    1.00
  -2  -1 -16   -0.55    0.88
  -2  -1 -16   -0.18    2.66
  -2  -1 -16   -0.25    1.15
  -1   3 -16    1.08    1.08
  -1   3 -16   -1.20    0.92
   3  -2 -16   -0.41    0.92
   1  -3  16    2.62    2.15
   2   1  16   -0.02    1.91
   1  -3  16   -0.34    0.99
  -3   2  16    3.14    1.85
   2   1  16    2.89    1.37
  -2   2 -16  286.67   10.77
   0  -2 -16  314.25    8.79
   2   0 -16  315.82    8.96
   0  -2 -16  313.01    8.44
  -2   2 -16  326.21    8.61
   2   0 -16  312.32    7.96
  -2   2 -16  311.59    8.53
   2  -2  16  291.27   10.31
  -2   0  16  309.37   10.34
   2  -2  16  303.27    8.68
   0   2  16  307.42   10.22
  -2   5 -16    4.86    1.39
   5  -3 -16    4.41    1.18
  -3  -2 -16    3.90    1.63
   5  -3 -16    5.17    1.64
  -3  -2 -16    4.63    0.94
  -3  -2 -16    3.78    2.56
   2  -5  16    4.61    2.24
  -5   3  16    1.22    1.72
   3   2  16    4.86    1.86
   3   2  16    1.36    2.16
  -3   1 -16    2.91    1.17
   1   2 -16   -1.03    1.12
  -3   1 -16   -1.07    2.80
   2  -3 -16    1.85    1.12
   2  -3 -16    1.19    1.09
  -3   1 -16    0.97    0.86
   1   2 -16    0.04    0.79
   3  -1  16    1.16    1.32
   3  -1  16    0.09    2.18
  -2   3  16   -0.03    1.65
  -1  -2  16    0.11    1.91
  -1  -3 -16    4.17    2.67
  -1  -3 -16    1.95    1.32
   4  -1 -16   -0.34    0.77
  -3   4 -16    1.04    1.08
   4  -1 -16    1.39    1.33
   3  -4  16    2.14    1.22
  -4   1  16    1.47    1.90
   3  -4  16    4.08    2.15
   1   3  16    3.46    2.15
  -4  -3 -16   -2.01    2.88
  -4  -3 -16    0.02    1.50
   7  -4 -16    2.12    1.61
   7  -4 -16    2.06    1.15
  -3   7 -16    1.51    1.34
   3  -7  16    2.52    1.33
  -7   4  16    3.17    2.03
   4   3  16    2.60    1.97
   3  -7  16   -2.38    2.19
  -7   4  16   -0.77    1.38
   4   3  16    2.45    1.59
  -4   0 -16  266.71    6.91
   0   4 -16  260.52    8.02
  -4   0 -16  268.26    9.83
   4  -4 -16  260.84    7.62
   4  -4 -16  255.80    8.63
  -4   0 -16  269.66    8.16
   0  -4  16  265.71    6.88
   4   0  16  266.99    8.39
   0  -4  16  253.17    9.55
  -4   4  16  251.95    8.98
  -4   4  16  260.55    8.08
   4   0  16  272.49    9.45
   1  -4 -16   -0.72    1.14
  -4   3 -16   -0.28    0.95
  -4   3 -16   -1.21    2.94
   3   1 -16    0.61    1.23
   1  -4 -16   -1.41    2.65
   1  -4 -16   -0.74    1.05
  -1   4  16   -0.15    0.99
  -3  -1  16    3.91    2.02
  -1   4  16    1.16    2.00
   4  -3  16    1.23    2.24
   4  -3  16    0.74    1.29
  -2  -4 -16  289.86   10.36
   6  -2 -16  293.11    9.11
  -2  -4 -16  290.38    9.14
  -4   6 -16  292.38    8.54
   4  -6  16  286.87   10.44
   4  -6  16  290.05    8.54
  -6   2  16  284.70    9.63
   2   4  16  306.93   10.03
   9  -5 -16    3.26    1.90
  -5  -4 -16    1.33    1.65
  -9   5  16   -1.09    1.77
  -9   5  16    1.20    1.81
   4  -9  16    1.06    1.53
   5   4  16   -2.09    1.97
   4  -9  16    0.99    2.51
  -5  -1 -16   -0.91    2.77
   6  -5 -16    1.18    1.54
  -5  -1 -16   -0.91    1.45
  -1   6 -16    2.59    1.24
   6  -5 -16    2.29    1.27
   1  -6  16    0.85    1.08
   5   1  16    0.24    1.59
   1  -6  16    0.34    2.10
  -6   5  16    0.23    1.45
   5   1  16    0.01    1.86
  -6   5  16    0.44    1.64
   3  -5 -16   13.01    1.82
  -5   2 -16    9.29    3.01
   3  -5 -16   14.79    1.88
   2   3 -16   16.20    2.00
  -5   2 -16   11.99    1.42
  -2  -3  16   11.20    2.42
   5  -2  16   10.70    1.98
  -3   5  16   13.60    1.67
  -3   5  16   15.07    2.49
   5  -2  16   17.37    2.76
   5   0 -16    2.51    1.41
  -5   5 -16    0.67    1.12
   0  -5 -16    4.15    2.68
   0  -5 -16    3.52    1.57
   5  -5  16    3.01    1.49
   5  -5  16   -0.13    2.29
   0   5  16    2.37    1.36
  -5   0  16    2.03    1.92
  -5   8 -16   -1.90    1.29
  -3  -5 -16   -0.51    1.40
   3   5  16   -3.97    1.81
   5  -8  16    1.88    2.57
   5  -8  16    1.52    1.43
  -8   3  16    2.41    1.97
  -6  -5 -16    1.57    1.75
  11  -6 -16   -1.10    2.17
  -5  11 -16    2.25    1.47
 -11   6  16    1.81    2.02
   5 -11  16   -1.24    3.16
   6   5  16    1.11    1.94
 -11   6  16   -0.24    2.05
   5 -11  16    1.82    1.69
   8  -6 -16  338.45   11.08
  -6  -2 -16  352.73   11.01
   8  -6 -16  353.77    9.81
  -8   6  16  350.98   11.38
   2  -8  16  381.84   12.59
  -8   6  16  345.86   10.82
   6   2  16  353.21   11.34
  -6   1 -16   10.08    1.26
   5  -6 -16   11.47    1.74
   5  -6 -16   10.49    1.90
  -6   1 -16    9.17    3.06
   1   5 -16   10.98    3.28
  -5   6  16   10.04    2.37
  -5   6  16    9.97    1.76
  -1  -5  16   14.84    2.88
   6  -1  16    8.77    2.02
  -6   4 -16  297.59    8.23
   4   2 -16  290.46   10.09
   2  -6 -16  296.99    9.14
  -2   6  16  307.45   10.13
   6  -4  16  315.30    9.39
  -4  -2  16  303.69   10.23
  -2   6  16  304.27    8.23
  -6   7 -16    0.52    1.15
  -1  -6 -16   -0.71    1.54
   1   6  16    1.22    2.23
   6  -7  16    2.66    1.57
   6  -7  16   -1.10    2.36
  -7   1  16   -1.85    1.83
  10  -4 -16  140.33    6.20
  -4  -6 -16  135.31    7.29
  -6  10 -16  156.80    5.70
   6 -10  16  149.46    6.58
 -10   4  16  149.56    6.38
 -10   4  16  152.83    6.34
   6 -10  16  146.24    7.78
  -6  13 -16    4.87    1.80
  -7  -6 -16    2.41    2.10
  13  -7 -16    1.41    2.23
 -13   7  16    1.87    2.20
   7   6  16    1.07    2.19
   6 -13  16    1.05    4.02
 -13   7  16    6.13    2.24
   6 -13  16    2.20    2.07
  -7  -3 -16   -0.68    1.64
  -3  10 -16    0.89    1.44
  10  -7 -16    1.09    1.61
  10  -7 -16   -0.32    1.85
   3 -10  16   -1.36    1.51
 -10   7  16    0.99    2.02
 -10   7  16    0.86    1.54
   3 -10  16    5.37    3.24
   7   3  16    2.85    1.91
   7  -7 -16    1.92    1.56
   7  -7 -16    2.10    1.49
   0   7 -16    1.46    1.59
   7   0  16    0.48    1.72
  -7   7  16    1.58    1.60
  -7   7  16    1.74    1.93
   0  -7  16    4.65    2.37
  -7   3 -16    2.50    3.62
   4  -7 -16    2.49    1.54
   3   4 -16    1.14    1.35
  -7   3 -16    2.83    0.97
  -4   7  16    5.04    2.21
   7  -3  16    2.59    1.58
  -4   7  16    4.55    1.21
   7  -3  16   -0.17    2.29
  -3  -4  16    5.56    2.06
   1  -7 -16    0.70    1.39
   1  -7 -16    2.41    3.41
  -7   6 -16    2.49    1.37
  -6  -1  16    2.40    1.99
  -1   7  16   -1.48    2.11
  -1   7  16    1.58    0.97
   7  -6  16   -0.53    1.61
   7  -6  16   -2.73    2.40
   9  -2 -16   -0.35    1.53
  -2  -7 -16   -3.09    1.74
  -7   9 -16    1.40    2.82
   7  -9  16    0.16    2.80
  -9   2  16   -5.40    3.17
   7  -9  16    0.81    1.72
  -7  12 -16    0.88    1.76
  -5  -7 -16    1.27    2.21
  12  -5 -16   -2.11    1.99
 -12   5  16    4.12    2.12
 -12   5  16    2.61    2.01
   7 -12  16   -1.65    3.36
   7 -12  16    1.36    1.92
  15  -8 -16    7.35    3.17
  -7  15 -16    4.31    2.34
  -8  -7 -16   -0.05    2.68
 -15   8  16    1.52    2.35
 -15   8  16    7.18    2.85
   7 -15  16   13.30    7.27
   7 -15  16    1.64    3.03
  12  -8 -16  188.46    7.79
  12  -8 -16  193.29    8.12
  -4  12 -16  182.57    7.08
  -8  -4 -16  178.55    7.49
 -12   8  16  189.14    7.61
   4 -12  16  197.64    9.31
 -12   8  16  184.27    7.62
   8   4  16  188.79    7.96
   4 -12  16  191.77    6.70
   9  -8 -16    0.28    1.69
  -1   9 -16    3.11    1.54
   9  -8 -16   -2.42    2.93
  -9   8  16    3.29    2.15
   1  -9  16    8.52    3.00
  -9   8  16    1.09    1.83
   2   6 -16  300.39    9.42
  -6   8  16  297.22    8.75
   8  -2  16  291.98    9.76
  -2  -6  16  297.65   10.46
  -6   8  16  284.56   10.07
   5   3 -16   11.03    1.94
  -8   5 -16    7.52    1.28
   3  -8 -16    9.26    1.85
  -3   8  16    7.02    1.32
  -3   8  16    7.46    2.35
  -5  -3  16    9.69    2.61
   8  -5  16    8.91    2.03
   8  -5  16    9.11    3.19
  -8   8 -16  278.54    8.06
   0  -8 -16  260.65    9.96
   8   0 -16  263.74    8.95
   0   8  16  250.55    9.38
   8  -8  16  257.98    8.73
   8  -8  16  266.02   10.32
  -8  11 -16   -2.47    1.59
  11  -3 -16   -1.03    1.77
  -3  -8 -16    2.09    1.90
 -11   3  16   -0.28    1.84
   8 -11  16    4.56    3.74
   8 -11  16    3.58    2.01
  -8  14 -16  137.07    6.14
  14  -6 -16  143.03    7.46
  -6  -8 -16  130.45    6.86
 -14   6  16  135.81    6.16
   8 -14  16  137.43    7.50
 -14   6  16  138.97    6.95
   8 -14  16  118.29    9.14
  -9  -8 -16    1.17    2.58
  -8  17 -16    7.32    2.49
 -17   9  16   -1.05    2.86
   8 -17  16    6.42    3.03
 -17   9  16   -1.96    2.54
  -9  -5 -16   -1.39    2.11
  -5  14 -16    0.88    1.89
 -14   9  16   -2.64    2.26
   9   5  16   -1.82    2.31
   5 -14  16   -0.14    2.75
   5 -14  16   -3.30    4.18
 -14   9  16   -2.95    2.01
  11  -9 -16   -0.76    1.89
  -2  11 -16    2.02    1.83
  -9  -2 -16   -0.07    1.80
   9   2  16    2.54    2.46
   2 -11  16    6.46    2.99
 -11   9  16   -0.19    2.02
 -11   9  16    3.68    1.81
   1   8 -16    1.04    1.42
   8  -9 -16    2.79    1.67
   9  -1  16    5.43    2.62
  -8   9  16    0.16    2.14
  -1  -8  16    2.89    2.77
  -8   9  16    3.64    1.72
   5  -9 -16   -0.23    1.54
   4   5 -16    0.70    1.67
  -9   4 -16   -0.76    1.01
  -5   9  16   -0.28    1.20
  -5   9  16    2.84    2.34
   9  -4  16    2.85    1.68
  -4  -5  16    1.40    2.35
  -9   7 -16    1.08    1.26
   2  -9 -16    0.20    1.70
   7   2 -16   -0.60    1.55
  -7  -2  16   -1.02    2.18
  -2   9  16   -2.02    2.13
   9  -7  16    2.25    3.44
  -2   9  16    1.26    1.12
   9  -7  16   -0.60    1.71
  -1  -9 -16    2.67    1.80
  -9  10 -16    0.86    1.58
  10  -1 -16    2.91    1.92
 -10   1  16   -0.12    1.82
   9 -10  16    1.22    1.90
   9 -10  16    6.62    3.50
  -4  -9 -16    3.90    2.42
  13  -4 -16    7.80    2.80
  -9  13 -16    2.70    1.62
 -13   4  16    2.91    2.01
 -13   4  16    6.27    2.62
   9 -13  16    5.17    2.55
  -9  16 -16    2.72    2.13
  -7  -9 -16    1.91    2.50
  16  -7 -16    6.85    3.68
   9 -16  16   -1.72    2.68
 -16   7  16    2.86    2.52
 -16   7  16   -0.79    2.68
  -9  19 -16    0.90    3.01
 -10  -9 -16   -2.08    3.12
   9 -19  16    1.87    3.87
 -10  -6 -16  146.38    7.68
  -6  16 -16  146.62    6.83
   6 -16  16  132.52    9.43
  10   6  16  143.60    7.98
 -16  10  16  143.24    6.85
 -16  10  16  138.07    6.91
  -3  13 -16    1.71    2.17
  13 -10 -16    1.17    2.29
 -10  -3 -16   -3.00    2.07
  10   3  16    0.32    2.62
 -13  10  16    2.09    2.49
   3 -13  16   -4.68    3.89
 -13  10  16    1.55    1.90
  10 -10 -16  169.66    6.48
   0  10 -16  163.39    6.60
 -10  10  16  172.98    6.69
 -10  10  16  167.51    7.23
  10   0  16  168.22    7.51
   0 -10  16  176.15    8.56
   3   7 -16    2.34    1.49
   7 -10 -16    1.59    1.75
  -3  -7  16   -0.51    2.59
  -7  10  16   -1.14    2.14
  -7  10  16   -0.14    1.37
 -10   6 -16  243.87    7.01
   6   4 -16  242.52    8.37
   4 -10 -16  226.47    8.34
  -6  -4  16  231.10    8.81
  -4  10  16  237.39    9.11
  -4  10  16  240.31    7.23
  10  -6  16  246.01    9.75
   1 -10 -16    0.84    1.72
   9   1 -16    0.24    1.73
 -10   9 -16    2.52    1.47
  -9  -1  16   -0.14    1.96
  -2 -10 -16  171.78    7.48
 -10  12 -16  168.12    6.40
  12  -2 -16  160.95    7.50
  10 -12  16  163.98    8.22
 -12   2  16  176.66    6.82
  -5 -10 -16    1.22    2.41
 -10  15 -16    3.01    1.93
  15  -5 -16    7.03    2.97
  10 -15  16    4.43    2.84
 -15   5  16    1.98    2.81
 -15   5  16    3.20    2.31
  -8 -10 -16  130.25    7.78
 -10  18 -16  117.07    6.51
  18  -8 -16  106.64    7.51
  10 -18  16  119.66    7.00
 -18   8  16  123.45    7.31
 -11 -10 -16    6.44    4.02
 -10  21 -16    1.80    3.46
 -21  11  16    4.05    3.99
 -11  -7 -16    0.99    2.94
  -7  18 -16   -2.34    2.67
 -18  11  16    0.51    3.18
  11   7  16    1.80    3.18
  -4  15 -16   -2.89    2.09
 -11  -4 -16    1.83    2.56
  11   4  16   -0.50    2.93
 -15  11  16   -2.67    2.20
   4 -15  16    5.53    4.11
 -15  11  16    3.86    2.72
 -11  -1 -16   -0.15    2.14
  12 -11 -16   -1.38    2.09
  -1  12 -16   -1.90    1.78
 -12  11  16    1.48    2.56
 -12  11  16    0.12    1.86
   1 -12  16    4.98    3.40
  11   1  16   -2.21    2.12
   2   9 -16    1.92    1.72
   9 -11 -16    1.21    1.89
  -9  11  16    0.43    2.69
  11  -2  16   -1.26    2.17
  -2  -9  16   -0.77    2.62
  -9  11  16   -2.76    1.54
   5   6 -16    1.06    1.64
  11  -5  16    0.41    2.05
  -6  11  16   -0.35    1.51
  -6  11  16    0.79    2.66
  -5  -6  16    0.56    2.42
 -11   8 -16    1.35    1.44
   3 -11 -16    2.99    1.86
   8   3 -16    1.49    2.08
  -8  -3  16   -1.40    2.13
  -3  11  16    0.28    1.65
  11   0 -16    1.84    2.02
   0 -11 -16    3.40    2.14
 -11  11 -16   -2.27    1.58
  11 -11  16    1.31    2.34
 -11   0  16   -2.75    1.84
  14  -3 -16    2.88    2.51
  -3 -11 -16    0.34    2.61
 -11  14 -16    1.33    2.00
 -14   3  16   -2.38    2.22
  11 -14  16   -4.38    2.25
 -14   3  16   -2.32    1.99
  17  -6 -16    4.56    3.39
  -6 -11 -16   -0.82    2.65
 -11  17 -16    5.40    2.64
  11 -17  16    3.33    3.19
 -17   6  16    4.36    2.80
 -17   6  16    5.48    2.59
 -11  20 -16   -0.07    2.88
  -9 -11 -16    2.52    4.45
  11 -20  16    3.41    3.62
 -20   9  16    2.58    3.34
 -12 -11 -16   11.72    5.31
 -11  23 -16    5.92    3.85
 -23  12  16    1.01    4.60
  -8  20 -16   78.83    5.81
 -20  12  16   82.11    6.25
  -5  17 -16    3.38    2.59
 -12  -5 -16    2.59    2.59
 -17  12  16   -0.76    3.05
  12   5  16    4.50    3.02
 -17  12  16    2.46    2.97
   5 -17  16    6.52    5.60
 -12  -2 -16  118.69    6.41
  -2  14 -16  130.58    6.13
  14 -12 -16  117.21    6.28
 -14  12  16  124.51    6.27
 -14  12  16  129.30    6.85
   2 -14  16  109.41    8.66
  12   2  16  123.87    7.03
  11 -12 -16    3.88    2.24
   1  11 -16    2.45    2.22
 -11  12  16    1.31    2.79
  12  -1  16    3.48    2.24
 -11  12  16    1.96    1.95
  -1 -11  16    1.65    3.20
   4   8 -16  160.65    6.70
   8 -12 -16  153.52    6.82
  -4  -8  16  156.64    7.61
  -8  12  16  163.40    7.35
  12  -4  16  156.04    7.23
   7   5 -16    3.06    1.90
   5 -12 -16    0.76    1.86
 -12   7 -16    3.62    1.47
  -7  -5  16    1.34    2.21
  12  -7  16    1.65    2.03
  -5  12  16    4.92    2.71
  -5  12  16    2.77    1.55
   2 -12 -16  194.91    8.00
  10   2 -16  198.36    7.86
 -12  10 -16  193.33    6.77
  12 -10  16  189.91    8.07
 -10  -2  16  191.47    7.57
  -1 -12 -16   -1.36    2.41
  13  -1 -16    4.76    2.65
 -12  13 -16    1.52    1.77
  12 -13  16   -1.02    2.34
 -13   1  16    2.13    2.08
 -12  16 -16  108.65    5.93
  -4 -12 -16  112.60    7.05
  16  -4 -16  129.85    7.68
  12 -16  16  121.73    6.68
 -16   4  16  109.11    6.99
 -16   4  16  103.96    5.50
  -7 -12 -16   -5.51    3.35
  19  -7 -16    9.62    4.31
 -12  19 -16    1.16    2.60
 -19   7  16   -0.14    3.23
  12 -19  16   -5.19    3.32
 -10 -12 -16   59.62    7.33
 -12  22 -16   41.50    5.39
 -22  10  16   52.02    6.29
 -13 -12 -16   -2.43    5.49
 -12  25 -16    7.62    4.62
 -25  13  16    0.69    5.28
 -13  -9 -16    7.40    4.62
  -9  22 -16    0.12    3.46
 -22  13  16   -3.90    3.55
 -13  -6 -16    9.46    3.45
  -6  19 -16   -1.31    2.95
  13   6  16    3.53    3.68
   6 -19  16    8.82    6.46
 -19  13  16    1.02    3.16
  -3  16 -16    1.51    2.38
  16 -13 -16    3.01    2.97
 -13  -3 -16   -2.47    2.44
   3 -16  16   -0.13    4.74
 -16  13  16    3.89    3.16
  13   3  16   -5.16    3.02
 -16  13  16    0.93    2.54
   0  13 -16    6.58    2.33
  13 -13 -16    9.34    2.82
 -13  13  16    6.58    2.49
   0 -13  16    2.07    3.97
  13   0  16    1.46    2.93
 -13  13  16    9.20    3.07
   3  10 -16    2.30    1.92
  10 -13 -16    2.94    2.25
 -10  13  16    3.35    3.11
 -10  13  16    5.71    2.09
  -3 -10  16    2.98    3.19
  13  -3  16    0.57    2.26
   6   7 -16   -3.06    1.98
   7 -13 -16   -1.39    2.18
  -6  -7  16    0.46    2.51
  -7  13  16    1.99    3.15
  13  -6  16    2.24    2.37
  -7  13  16    0.96    1.81
   4 -13 -16    5.23    2.63
 -13   9 -16    4.03    1.77
   9   4 -16   -0.58    2.01
  -9  -4  16    1.63    2.30
  13  -9  16    1.11    2.38
  12   1 -16    6.58    2.49
   1 -13 -16    8.44    2.93
 -13  12 -16   12.77    2.28
 -12  -1  16    5.31    2.41
  13 -12  16   12.99    3.02
 -13  15 -16    0.92    2.25
  -2 -13 -16    1.21    2.59
  15  -2 -16   -2.32    2.95
  13 -15  16    1.84    2.89
 -15   2  16   -1.42    2.89
 -15   2  16    2.93    2.25
  -5 -13 -16    6.74    3.39
 -13  18 -16    1.44    2.73
  18  -5 -16   -3.70    3.93
  13 -18  16   -1.02    3.40
 -18   5  16    2.04    3.29
 -13  21 -16    4.17    3.59
  -8 -13 -16    1.25    4.05
  13 -21  16    2.63    4.38
 -21   8  16    0.79    4.16
 -13  24 -16    4.59    4.60
 -11 -13 -16    1.21    5.17
 -24  11  16    3.30    4.42
 -14 -10 -16   34.28    6.52
 -10  24 -16   37.17    5.76
 -24  14  16   28.93    5.85
 -14  -7 -16    5.75    4.64
  -7  21 -16    3.07    3.44
 -21  14  16    1.20    4.00
 -14  -4 -16   86.89    6.85
  -4  18 -16   85.80    8.45
   4 -18  16   89.57   10.53
 -18  14  16   93.68    6.57
  14   4  16   79.90    7.36
  -1  15 -16   -0.78    2.32
 -14  -1 -16   -1.19    2.53
  15 -14 -16    6.06    2.98
   1 -15  16   -0.80    4.49
  14   1  16   -1.58    2.81
 -15  14  16    0.81    2.80
 -15  14  16   -3.95    2.58
  12 -14 -16  114.48    6.13
   2  12 -16  115.50    6.19
 -12  14  16  117.57    5.87
 -12  14  16  100.01    6.86
  -2 -12  16  110.19    7.79
  14  -2  16  114.50    6.89
   5   9 -16    0.47    1.98
   9 -14 -16   -4.78    2.34
  14  -5  16   -3.70    2.19
  -5  -9  16    1.99    3.08
  -9  14  16   -7.35    3.26
  -9  14  16   -0.35    1.88
   6 -14 -16  121.31    6.61
   8   6 -16  135.54    6.44
  14  -8  16  132.87    6.72
  -8  -6  16  139.25    6.69
  -6  14  16  135.84    7.83
   3 -14 -16    1.74    2.68
 -14  11 -16    5.39    1.90
  11   3 -16    4.91    2.76
 -11  -3  16    1.47    2.35
  14 -11  16    3.06    2.42
 -14  14 -16   92.37    5.14
  14   0 -16  102.24    6.64
   0 -14 -16  105.39    6.69
  14 -14  16  107.43    6.55
 -14   0  16   94.03    5.12
  -3 -14 -16    5.40    3.42
  17  -3 -16    6.45    3.58
 -14  17 -16    0.62    2.54
  14 -17  16   -0.41    3.23
 -17   3  16   -3.51    2.95
  -6 -14 -16   61.58    6.49
 -14  20 -16   55.54    5.59
  20  -6 -16   53.30    6.66
  14 -20  16   48.69    6.42
 -20   6  16   45.90    5.68
  -9 -14 -16    0.74    4.75
 -14  23 -16   -0.25    3.98
 -23   9  16   -0.59    4.50
  14 -23  16    4.58    5.16
 -12 -14 -16   23.81    7.06
 -15 -11 -16   -1.07    5.36
 -15  -8 -16    7.10    4.84
  -8  23 -16    8.73    4.50
 -23  15  16    5.44    4.54
 -15  -5 -16   -2.04    3.80
  -5  20 -16    0.16    3.63
 -20  15  16    5.67    3.79
  15   5  16    1.88    3.87
  17 -15 -16    4.53    3.47
  -2  17 -16    5.44    3.03
 -15  -2 -16    0.26    2.83
  15   2  16    2.14    3.42
 -17  15  16    1.85    2.73
   2 -17  16    5.29    5.88
 -17  15  16   -1.49    3.66
  14 -15 -16    2.64    2.93
   1  14 -16   -3.11    2.28
  -1 -14  16   -3.08    4.22
 -14  15  16    1.29    2.94
  15  -1  16    6.06    3.32
 -14  15  16    2.55    3.70
   4  11 -16    1.64    2.39
  11 -15 -16   -0.76    2.67
  -4 -11  16   -1.90    3.40
  15  -4  16   -2.22    2.87
 -11  15  16    1.50    2.21
 -11  15  16    5.23    3.02
   7   8 -16    1.43    2.50
   8 -15 -16   -0.14    2.50
  -7  -8  16    1.94    2.82
  15  -7  16    1.64    2.76
  -8  15  16    2.52    2.06
   5 -15 -16    2.42    2.76
 -15  10 -16   -0.07    1.82
  10   5 -16    1.50    2.30
  15 -10  16   -2.13    2.72
   2 -15 -16    7.57    3.21
  13   2 -16    5.58    2.81
 -15  13 -16    4.03    2.13
 -13  -2  16   11.73    2.51
  15 -13  16   -0.20    3.03
  -1 -15 -16   -2.78    2.81
  16  -1 -16   -3.57    3.30
 -15  16 -16   -1.28    2.46
 -16   1  16    6.29    3.13
  15 -16  16    1.39    3.27
  -4 -15 -16   10.37    4.98
 -15  19 -16    7.27    4.20
  19  -4 -16    6.69    4.27
  15 -19  16    9.93    4.18
 -19   4  16   -0.11    3.41
  -7 -15 -16    3.00    4.84
 -15  22 -16   -4.41    3.74
 -22   7  16   10.41    4.61
  15 -22  16   -0.23    4.71
 -15  25 -16    2.92    4.99
 -10 -15 -16    9.51    6.16
 -25  10  16    8.74    5.22
 -16  -9 -16   -0.10    5.98
  -9  25 -16   -4.84    5.12
 -25  16  16    3.39    5.60
 -16  -6 -16   53.05    6.69
  -6  22 -16   45.50    6.03
  16   6  16   56.22    7.11
 -22  16  16   44.24    6.19
 -16  -3 -16   -4.77    3.67
  -3  19 -16   -2.05    2.96
 -19  16  16    3.74    3.28
  16   3  16    4.07    4.41
   0  16 -16  106.20    6.30
  16 -16 -16  108.11    6.88
 -16   0 -16   96.89    6.44
 -16  16  16  107.02    6.59
   0 -16  16  113.31   12.30
  16   0  16  101.03    7.14
 -16  16  16  103.82    7.65
   3  13 -16   -0.41    2.40
  13 -16 -16    5.85    3.02
  16  -3  16    1.50    3.18
  -3 -13  16    6.03    4.21
 -13  16  16    0.43    2.43
 -13  16  16    4.88    3.90
   6  10 -16  121.78    6.44
  10 -16 -16  125.86    6.94
 -10  16  16  121.27    5.77
  16  -6  16  125.31    7.06
  -6 -10  16  130.18    7.43
   9   7 -16    5.75    2.64
   7 -16 -16    5.34    2.60
  16  -9  16    1.41    2.73
  -7  16  16   -1.72    2.17
  -9  -7  16    1.88    2.66
   4 -16 -16  106.29    6.81
  12   4 -16  109.17    6.29
 -16  12 -16  101.15    5.12
 -12  -4  16  105.19    5.50
  16 -12  16  102.92    6.94
   1 -16 -16    9.36    3.35
 -16  15 -16    3.28    2.46
  15   1 -16   -0.16    2.95
  16 -15  16    2.46    3.50
  -2 -16 -16   88.26    6.94
  18  -2 -16  104.86    8.06
 -16  18 -16   90.63    5.62
 -18   2  16   92.67    7.31
  16 -18  16   88.91    7.13
 -16  21 -16    4.85    3.80
  -5 -16 -16   -2.65    4.55
  21  -5 -16   10.93    4.91
 -21   5  16    1.17    3.86
  -8 -16 -16   54.73    7.22
 -16  24 -16   53.06    6.25
  16 -24  16   53.37    7.31
 -24   8  16   51.66    6.55
 -17  -7 -16   -4.37    4.53
  -7  24 -16    4.93    4.96
 -24  17  16   -3.03    5.05
  -4  21 -16   -0.23    4.03
 -17  -4 -16   10.50    4.50
 -21  17  16    8.37    4.03
  17   4  16    1.30    4.87
  18 -17 -16   -0.43    3.88
  -1  18 -16   -0.54    3.06
 -18  17  16   -2.32    3.47
  15 -17 -16    0.48    3.41
   2  15 -16   -1.78    2.55
  17  -2  16    2.31    3.80
 -15  17  16   -3.91    4.04
 -15  17  16    1.18    2.89
   5  12 -16   -4.12    2.33
  12 -17 -16   -0.92    3.22
  -5 -12  16   -0.51    3.65
 -12  17  16   -0.73    2.42
  17  -5  16    2.48    3.36
   8   9 -16    8.27    3.06
   9 -17 -16    6.18    3.31
  -8  -9  16   -0.33    3.06
  -9  17  16    1.55    2.33
  17  -8  16    2.32    3.28
   6 -17 -16   -7.32    3.12
  11   6 -16    1.67    2.81
 -11  -6  16    4.69    2.82
  17 -11  16    6.26    2.98
   3 -17 -16    1.78    3.58
 -17  14 -16    6.31    2.73
  14   3 -16    8.26    3.66
  17 -14  16   -1.41    3.00
  17   0 -16    6.05    3.67
 -17  17 -16   14.71    3.26
   0 -17 -16   -2.22    3.37
 -17   0  16    2.39    3.38
  17 -17  16    6.17    4.28
  20  -3 -16   -5.83    4.04
 -17  20 -16    3.83    3.15
  -3 -17 -16    3.46    3.91
 -20   3  16   -0.76    3.83
  23  -6 -16   -3.14    5.48
  -6 -17 -16    5.31    5.36
 -17  23 -16   10.79    3.88
  17 -23  16   -3.20    5.21
 -23   6  16    6.59    4.61
  -9 -17 -16   -2.24    6.51
  -5  23 -16   -7.75    4.46
 -18  -5 -16   -0.90    5.02
 -23  18  16    2.28    4.62
  18   5  16    1.31    5.54
 -18  -2 -16   46.88    6.17
  -2  20 -16   53.74    6.23
 -20  18  16   50.15    5.67
  18   2  16   44.80    6.13
  17 -18 -16   -6.14    3.83
   1  17 -16   -1.06    3.53
 -17  18  16    1.66    4.52
  14 -18 -16   77.17    6.67
  18  -4  16   89.56    7.37
 -14  18  16   79.09    5.23
  11 -18 -16   -2.03    3.53
   7  11 -16    1.59    2.83
 -11  18  16    3.15    2.76
  18  -7  16   -0.66    2.95
  10   8 -16   94.34    6.11
   8 -18 -16   94.12    6.46
  18 -10  16   93.13    6.70
  13   5 -16    5.49    3.18
 -18  13 -16   -6.25    3.74
   5 -18 -16    0.49    3.41
  18 -13  16    2.38    3.28
  16   2 -16   92.78    6.96
   2 -18 -16  105.30    7.96
 -18  16 -16   97.62    5.86
  18 -16  16  100.69    7.90
 -18  19 -16    0.31    3.36
  -1 -18 -16    6.06    4.20
  19  -1 -16    4.74    4.85
 -19   1  16    0.97    4.49
 -18  22 -16   59.19    6.52
  22  -4 -16   45.13    6.98
  -4 -18 -16   53.49    7.11
  18 -22  16   48.23    6.70
 -22   4  16   52.86    6.28
  -7 -18 -16   -0.73    6.20
 -18  25 -16    3.52    5.49
  18 -25  16   -4.10    6.17
 -19  -6 -16   -7.56    5.83
  -3  22 -16    7.92    4.73
 -19  -3 -16    3.74    5.06
  19   3  16   -0.80    5.39
 -22  19  16   -0.73    4.54
  19 -19 -16   -0.48    4.55
 -19   0 -16   10.66    4.53
   0  19 -16    5.65    4.20
 -19  19  16    1.49    4.00
  19   0  16    5.47    5.11
   3  16 -16   -3.48    3.05
  16 -19 -16   -1.83    4.06
  19  -3  16    4.50    5.29
   6  13 -16   15.99    3.97
  13 -19 -16   18.42    4.26
  19  -6  16   10.65    4.26
 -13  19  16    6.58    3.22
  10 -19 -16    3.07    3.61
 -10  19  16    3.15    2.72
  19  -9  16    5.64    4.04
   7 -19 -16   -3.05    3.25
  12   7 -16    2.99    3.42
  19 -12  16    1.23    3.42
  15   4 -16    5.48    4.02
 -19  15 -16    4.46    2.91
   4 -19 -16    2.13    4.11
  19 -15  16    0.76    4.24
  18   1 -16    4.69    4.17
   1 -19 -16   -0.85    4.27
 -19  18 -16    2.51    4.24
  19 -18  16    5.35    4.90
 -18  -1  16   -0.43    3.84
  21  -2 -16    5.69    5.82
  -2 -19 -16    5.62    4.88
 -19  21 -16    2.10    4.09
  19 -21  16    7.13    5.35
 -21   2  16    8.44    5.07
  24  -5 -16    6.14    6.18
 -19  24 -16   -1.74    4.88
  -5 -19 -16   18.65    6.27
  19 -24  16   -1.35    6.06
 -24   5  16   -5.76    4.90
 -20  -4 -16   48.15    7.57
  20   4  16   52.75    7.99
 -24  20  16   44.93    9.06
  -1  21 -16    7.62    4.84
 -20  -1 -16   -2.67    4.15
 -21  20  16    4.87    4.71
  20   1  16   11.21    5.14
   2  18 -16   63.89    6.08
 -20   2 -16   67.55    7.14
  18 -20 -16   69.59   10.75
 -18  20  16   68.26    6.56
  20  -2  16   78.93    8.25
   5  15 -16    1.99    3.74
  15 -20 -16   -3.54    4.05
  20  -5  16   -0.98    4.49
  12 -20 -16   62.99    7.13
   8  12 -16   63.20    5.88
  20  -8  16   75.65    7.83
 -12  20  16   77.19    5.52
  11   9 -16    4.97    3.43
   9 -20 -16    4.93    4.11
  20 -11  16    7.72    3.90
  14   6 -16   78.08    6.61
  20 -14  16   83.96   10.98
  17   3 -16   18.88    4.72
 -20  17 -16   12.65    4.23
   3 -20 -16    5.67    4.30
  20 -17  16    6.77    4.92
   0 -20 -16   48.35    6.94
  20   0 -16   43.58    6.41
 -20  20 -16   32.32    4.82
 -20   0  16   30.64    5.77
  20 -20  16   52.72    7.11
  23  -3 -16  -11.84    6.59
  -3 -20 -16   11.97    6.25
 -20  23 -16   -6.05    4.64
 -23   3  16   -6.64    5.30
  20 -23  16   -6.78    5.70
 -21  -2 -16    2.61    4.93
  -2  23 -16   15.71    6.41
  21   2  16    3.75    5.75
 -23  21  16    3.33    4.90
  20 -21 -16    2.33    5.74
   1  20 -16   -8.60    4.26
 -21   1 -16   -9.52    4.52
 -20  21  16   -9.66    4.26
  21  -1  16   -8.22    5.25
   4  17 -16    7.70    3.81
  17 -21 -16   -3.25    4.41
 -17  21  16    1.31    3.62
   7  14 -16    3.18    3.34
  21  -7  16    0.53    4.12
  10  11 -16    2.85    3.98
  21 -10  16   12.97    4.77
  13   8 -16    2.27    3.53
   8 -21 -16    4.86    4.05
  21 -13  16   10.89    4.90
  16   5 -16   -0.59    4.38
   5 -21 -16    6.85    4.77
  21 -16  16   -2.56    4.18
   2 -21 -16    2.03    4.40
 -21  19 -16   -0.02    3.87
  19   2 -16    3.65    4.62
  21 -19  16   -4.28    4.69
 -19  -2  16    0.33    4.70
  22  -1 -16    3.87    6.79
  -1 -21 -16    5.08    6.15
 -21  22 -16    3.87    4.65
 -22   1  16    8.11    5.69
  21 -22  16    7.83    6.29
 -22   0 -16   33.06    6.54
   0  22 -16   30.46    5.69
  22   0  16   31.88    7.38
 -22  22  16   30.07    5.79
  19 -22 -16    5.15    5.59
 -22   3 -16    2.26    4.38
   3  19 -16  -10.34    3.97
 -19  22  16   -3.01    3.89
  22  -3  16   -2.03    4.70
   6  16 -16   68.69    7.29
  16 -22 -16   75.58    8.20
  22  -6  16   74.92    8.60
 -16  22  16   55.63    6.40
   9  13 -16   -1.71    4.19
  13 -22 -16   -3.90    4.65
  22  -9  16    3.16    5.34
  10 -22 -16   79.83    8.03
  12  10 -16   68.46    7.49
  22 -12  16   75.50    8.54
  15   7 -16   -1.04    4.49
   7 -22 -16    4.24    5.06
  22 -15  16    5.40    5.18
  18   4 -16   44.14    6.84
   4 -22 -16   56.13    7.28
  22 -18  16   44.22    7.11
   1 -22 -16   -1.95    5.87
  21   1 -16    3.01    5.72
 -21  -1  16    0.07    5.24
  22 -21  16    1.81    5.86
 -23   2 -16   -3.59    5.31
  21 -23 -16    3.77    6.36
   2  21 -16    3.45    5.63
  23  -2  16    6.30    5.69
 -21  23  16   11.56    5.41
   5  18 -16    0.73    4.23
  18 -23 -16  -10.02    5.28
 -18  23  16   -0.61    4.42
  23  -5  16   -7.53    5.87
  15 -23 -16   -1.40    5.24
   8  15 -16    4.65    4.15
  23  -8  16    2.80    5.35
 -15  23  16   -0.65    4.17
  12 -23 -16   -5.63    5.19
  11  12 -16    0.15    4.59
  23 -11  16    6.01    5.35
  14   9 -16   13.68    4.63
   9 -23 -16   21.85    5.63
  23 -14  16    9.95    5.16
   6 -23 -16    7.18    5.45
  17   6 -16    1.35    5.39
  23 -17  16   11.57    5.29
   3 -23 -16    1.89    5.93
  20   3 -16    6.77    6.47
 -20  -3  16   -1.10    5.98
  23 -20  16    3.75    6.41
   0 -23 -16    6.76    6.81
   4  20 -16   31.50    8.50
 -24   4 -16   16.73    5.85
  20 -24 -16   46.26    7.57
  24  -4  16   24.66    6.66
  17 -24 -16   -1.52    5.62
   7  17 -16   -5.35    4.41
  24  -7  16    3.07    5.45
 -17  24  16    1.70    4.52
  14 -24 -16   43.42    7.06
  10  14 -16   40.01    5.92
  24 -10  16   42.27    6.80
  11 -24 -16   -7.14    4.66
  13  11 -16    3.11    5.33
  24 -13  16   -0.97    5.18
  16   8 -16   26.95    6.55
   8 -24 -16   35.26    6.79
  24 -16  16   21.91    6.66
   5 -24 -16    0.16    5.93
  19   5 -16    3.17    5.51
  24 -19  16   13.13    6.63
 -19  -5  16   -2.68    5.24
  19 -25 -16    3.34    6.59
  25  -6  16    4.10    6.89
 -19  25  16    0.27    5.53
  16 -25 -16   -1.97    6.19
   9  16 -16   -5.30    5.34
  25  -9  16    2.01    5.54
  12  13 -16   -5.85    5.01
  13 -25 -16   -8.85    5.87
  25 -12  16   18.69    6.41
  15  10 -16    5.59    5.23
  10 -25 -16    7.71    6.28
  25 -15  16   19.09    6.73
   7 -25 -16    1.45    6.36
  18   7 -16   -7.57    8.98
  25 -18  16    5.41    6.52
  15 -26 -16    4.36    6.47
  26 -11  16   14.82    7.09
  12 -26 -16   59.80    8.07
  26 -14  16   44.72    8.30
   9 -26 -16   -2.44    6.56
  26 -17  16   -0.23    6.79
   0  -1 -17    8.50    1.45
   1   0 -17   11.41    1.42
  -1   1 -17   10.44    1.48
   0  -1 -17    9.18    1.53
  -1   1 -17   10.85    1.48
   1  -1  17   12.08    2.47
   1  -1  17    9.89    1.55
  -1   0  17   11.83    2.61
   0   1  17    8.78    2.35
  -2   0 -17    2.06    1.21
  -2   0 -17    0.36    1.02
   0   2 -17   -0.62    1.11
   0   2 -17    1.80    1.04
   2  -2 -17    1.29    1.18
  -2   0 -17    0.55    3.17
   2  -2 -17    1.47    1.17
   2   0  17   -0.63    1.98
   0  -2  17    0.19    1.84
   0  -2  17    1.08    1.09
  -2   2  17    1.42    1.92
   2   0  17    0.87    1.25
   3  -1 -17    0.21    1.00
  -1  -2 -17    1.70    1.10
   3  -1 -17    2.14    1.33
  -1  -2 -17    0.89    1.32
  -2   3 -17    3.00    2.15
  -1  -2 -17   -3.86    2.74
   2  -3  17    3.36    1.25
  -3   1  17   -0.74    2.05
   1   2  17   -0.21    2.18
   2  -3  17   -0.45    2.03
  -1   4 -17   13.15    1.43
  -3  -1 -17   14.26    1.57
  -3  -1 -17   19.33    3.86
   4  -3 -17   12.79    1.95
  -1   4 -17   14.52    1.93
  -3  -1 -17   13.62    1.97
   1  -4  17   17.13    2.92
   3   1  17   13.45    2.15
   3   1  17   17.80    3.19
   1  -4  17   15.24    1.79
  -4   3  17   15.19    2.71
  -3   2 -17    5.32    1.37
   1  -3 -17    4.49    1.40
   1  -3 -17    3.77    1.27
  -3   2 -17    1.84    1.05
  -3   2 -17    1.32    3.27
   2   1 -17    4.29    1.40
   3  -2  17    3.32    1.40
  -1   3  17    5.62    2.37
  -1   3  17    2.71    1.23
   3  -2  17    1.55    2.48
  -2  -1  17    4.35    2.06
  -2  -3 -17    5.84    3.26
   5  -2 -17    4.26    1.68
  -2  -3 -17    0.94    1.46
  -3   5 -17    1.41    1.22
   3  -5  17    0.90    2.54
   2   3  17   -1.97    1.91
   3  -5  17    4.17    1.47
   2   3  17    1.64    1.62
  -5   2  17    4.64    2.32
  -4  -2 -17    3.03    1.40
  -2   6 -17    6.72    1.66
   6  -4 -17    4.21    1.54
   2  -6  17    5.94    2.85
   4   2  17    5.63    1.94
  -6   4  17    2.87    2.16
   4   2  17    2.70    2.50
  -6   4  17    5.55    1.72
  -4   1 -17    0.66    0.99
   1   3 -17    0.56    1.30
  -4   1 -17    7.83    2.94
   3  -4 -17   -0.64    1.28
  -4   1 -17    0.68    1.32
   3  -4 -17   -0.10    1.18
   4  -1  17   -2.63    2.03
  -3   4  17    0.61    1.30
  -3   4  17   -0.41    1.89
  -1  -3  17    2.93    2.06
   4  -1  17    2.29    1.48
   0  -4 -17    1.90    1.48
  -4   4 -17    5.56    1.28
   0  -4 -17    0.66    2.90
   0  -4 -17    2.35    1.28
   4   0 -17    3.87    1.70
  -4   4 -17   -0.96    3.59
   4  -4  17    0.79    2.58
  -4   0  17    3.88    2.09
   0   4  17    2.52    1.15
   4  -4  17    2.88    1.39
   0   4  17    6.24    2.26
   7  -3 -17    2.57    1.79
  -3  -4 -17    3.66    1.72
  -4   7 -17    0.74    1.41
   3   4  17    0.97    1.77
   4  -7  17    1.60    2.88
   3   4  17    0.61    2.47
  -7   3  17    2.92    2.22
   4  -7  17    1.47    1.51
  -5  -3 -17   43.45    5.98
   5   3  17   25.86    5.27
   3  -8  17   31.28    4.24
  -8   5  17   31.95    3.59
   3  -8  17   31.91    2.60
   5  -5 -17    0.89    1.55
   5  -5 -17   -1.11    1.31
   0   5 -17    0.66    1.67
  -5   0 -17    2.49    1.54
   0  -5  17    3.76    2.26
  -5   5  17    0.67    1.46
   5   0  17    1.36    1.59
  -5   5  17    1.67    1.88
   5   0  17    3.35    2.26
   3   2 -17    4.54    1.44
  -5   3 -17    4.31    1.13
  -5   3 -17    5.03    3.21
   2  -5 -17    4.20    1.49
   2  -5 -17    3.14    1.38
  -2   5  17    4.39    2.46
   5  -3  17    3.90    1.62
  -2   5  17    5.92    1.38
  -3  -2  17    2.28    1.93
   6  -1 -17    3.71    1.59
  -1  -5 -17    3.14    1.64
  -5   6 -17    5.84    1.38
   1   5  17    5.75    2.43
  -6   1  17   -0.37    1.81
   5  -6  17    4.24    1.59
   5  -6  17    1.88    2.59
   9  -4 -17    4.57    1.84
  -5   9 -17    7.54    1.83
  -4  -5 -17    6.27    2.06
  -9   4  17    7.09    2.02
   5  -9  17    3.98    3.08
   5  -9  17    8.76    1.97
  10  -6 -17   -1.79    2.14
  -4  10 -17    0.49    1.76
  -6  -4 -17   -0.09    2.01
   4 -10  17   -0.29    1.70
 -10   6  17    0.60    1.70
   4 -10  17   -2.46    2.99
   6   4  17   -4.10    2.14
 -10   6  17    3.06    2.23
   7  -6 -17    3.78    1.55
  -1   7 -17    4.30    1.48
   7  -6 -17    2.15    1.85
  -6  -1 -17    0.10    1.55
  -7   6  17    4.89    2.29
   6   1  17    2.64    1.96
   1  -7  17    0.85    2.35
  -7   6  17    4.37    1.84
   4  -6 -17    2.84    1.76
   2   4 -17   -1.21    1.24
  -6   2 -17    1.45    0.95
   4  -6 -17    2.07    1.50
  -4   6  17    1.80    1.40
   6  -2  17    1.71    1.63
   6  -2  17    2.17    2.42
  -4   6  17    2.02    2.01
  -2  -4  17    4.93    2.49
  -6   5 -17    2.27    1.22
   1  -6 -17   -0.43    5.42
   1  -6 -17    3.53    1.62
   5   1 -17    4.87    1.93
  -1   6  17    3.06    2.37
  -1   6  17    3.20    1.11
   6  -5  17    0.36    2.73
  -5  -1  17    3.84    2.30
  -6   8 -17    2.49    1.43
   8  -2 -17    1.93    1.63
   6  -8  17    1.76    1.68
  -8   2  17   -0.59    2.15
   6  -8  17    2.75    2.84
  11  -5 -17    0.33    2.26
  -5  -6 -17    1.13    2.07
  -6  11 -17    6.49    2.01
 -11   5  17    3.88    2.29
   6 -11  17    5.34    2.02
   6 -11  17    2.07    3.61
 -11   5  17    5.15    2.33
  -5  12 -17   30.06    3.47
  -7  -5 -17   33.56    4.05
  12  -7 -17   43.61    4.05
 -12   7  17   37.72    3.61
   7   5  17   32.40    3.89
   5 -12  17   35.80    4.99
 -12   7  17   35.84    4.20
   9  -7 -17    3.05    1.69
   9  -7 -17   -1.25    2.09
  -2   9 -17    1.85    1.65
  -7  -2 -17   -2.24    1.77
  -9   7  17    0.55    1.72
  -9   7  17   -1.45    2.25
   7   2  17   -1.34    2.09
   2  -9  17   -0.88    2.75
   6  -7 -17   46.78    3.50
   6  -7 -17   46.50    3.20
   1   6 -17   43.89    3.04
  -6   7  17   41.22    4.41
   7  -1  17   47.20    3.89
  -6   7  17   51.10    3.17
  -1  -6  17   48.38    4.79
   3  -7 -17   15.34    2.14
  -7   4 -17   15.53    1.71
   4   3 -17   14.65    2.14
   7  -4  17   15.97    2.46
  -3   7  17   15.94    1.77
  -4  -3  17   13.09    2.83
   7  -4  17   18.20    3.52
  -3   7  17   19.33    3.06
  -7   7 -17    3.32    1.39
   0  -7 -17    6.00    1.85
   7   0 -17    5.33    1.99
   7  -7  17    2.43    1.78
   7  -7  17    1.43    2.80
   0   7  17    4.37    3.21
  -7   0  17    6.83    2.31
  -3  -7 -17   36.69    3.77
  10  -3 -17   28.69    3.43
  -7  10 -17   32.10    2.98
   7 -10  17   33.20    5.00
   7 -10  17   33.78    3.41
 -10   3  17   37.26    3.78
  13  -6 -17   -5.93    2.54
  -7  13 -17   -0.03    1.68
  -6  -7 -17    3.12    2.15
 -13   6  17    3.37    2.35
   7 -13  17   -0.49    2.17
   7 -13  17   -1.92    4.03
 -13   6  17   -2.01    2.13
  14  -8 -17    2.98    2.67
  -6  14 -17    0.28    2.22
  -8  -6 -17    4.56    2.73
   8   6  17    0.96    2.72
   6 -14  17    7.30    8.35
 -14   8  17    4.50    2.41
 -14   8  17    0.41    2.45
  -8  -3 -17    3.53    2.18
  -3  11 -17    2.25    1.90
  11  -8 -17    1.98    2.10
 -11   8  17    2.09    2.12
   8   3  17    2.90    2.06
   3 -11  17    4.04    3.35
 -11   8  17    5.74    2.20
   8  -8 -17    0.13    1.59
   0   8 -17    0.40    1.68
  -8   8  17    2.51    1.81
  -8   8  17   -2.06    2.17
   0  -8  17    1.48    2.57
   3   5 -17    2.16    1.57
   5  -8 -17    3.30    1.64
   8  -3  17    4.18    1.92
  -5   8  17    2.82    2.19
  -3  -5  17   -1.86    2.24
  -5   8  17    3.76    1.55
  -8   6 -17   14.28    1.71
   6   2 -17   11.41    2.14
   2  -8 -17    9.79    2.25
   8  -6  17   11.79    2.35
  -2   8  17   10.15    1.46
   8  -6  17    5.19    2.94
  -6  -2  17   11.83    4.31
  -2   8  17    5.24    2.57
  -1  -8 -17    8.51    2.00
  -8   9 -17    6.43    1.73
   9  -1 -17    7.94    2.36
   8  -9  17    4.25    2.11
  -9   1  17    6.46    2.45
   8  -9  17    8.58    3.65
  -8  12 -17    6.15    1.96
  -4  -8 -17    8.50    2.51
  12  -4 -17    5.49    2.33
   8 -12  17    8.42    2.41
   8 -12  17   14.29    4.55
 -12   4  17    7.04    2.28
 -12   4  17    3.62    2.27
  15  -7 -17   -0.11    3.14
  -7  -8 -17    3.89    3.03
  -8  15 -17    2.83    2.34
 -15   7  17    3.04    2.57
 -15   7  17    1.72    2.78
  -7  16 -17   48.53    4.10
  -9  -7 -17   43.86    4.74
   7 -16  17   46.59    7.53
 -16   9  17   39.05    4.70
 -16   9  17   47.25    4.59
  -9  -4 -17    4.12    2.54
  -4  13 -17    2.50    2.21
   4 -13  17   -1.38    4.12
 -13   9  17    1.84    2.45
 -13   9  17    1.23    2.37
   9   4  17   -3.28    2.19
  10  -9 -17   17.48    2.52
  -1  10 -17   19.58    2.74
  -9  -1 -17   14.90    2.64
   9   1  17   17.79    2.97
 -10   9  17   21.06    2.66
 -10   9  17   20.02    5.30
   7  -9 -17    5.94    1.90
   2   7 -17    3.92    1.72
  -7   9  17    6.54    1.85
  -7   9  17    8.29    2.43
   5   4 -17   28.62    2.87
   4  -9 -17   29.19    3.14
  -9   5 -17   30.67    2.22
  -4   9  17   33.21    3.90
   9  -5  17   35.51    3.53
  -5  -4  17   26.95    3.57
   8   1 -17   14.06    2.50
   1  -9 -17   14.45    2.77
  -9   8 -17   18.00    2.19
  -8  -1  17   14.88    2.84
   9  -8  17   20.14    2.81
  -2  -9 -17    1.33    2.22
  -9  11 -17    1.48    1.70
  11  -2 -17    3.45    2.10
   9 -11  17   -3.04    2.50
 -11   2  17    0.20    2.20
  -9  14 -17   41.65    3.49
  14  -5 -17   42.01    4.71
  -5  -9 -17   48.01    4.45
 -14   5  17   40.03    4.04
 -14   5  17   36.58    4.19
   9 -14  17   39.16    4.37
  -9  17 -17    0.11    2.29
  17  -8 -17   -0.85    3.26
  -8  -9 -17    1.53    3.11
 -17   8  17    1.01    2.94
   9 -17  17    2.80    3.18
 -17   8  17    0.76    3.66
 -10  -8 -17    1.00    3.04
  -8  18 -17    4.57    2.58
 -18  10  17   -1.40    3.26
  -5  15 -17    1.52    2.33
 -10  -5 -17    0.00    2.77
 -15  10  17   -3.85    2.75
  10   5  17   -0.84    2.94
 -15  10  17    1.35    2.58
   5 -15  17    5.42    4.65
 -10  -2 -17   -1.86    1.89
  -2  12 -17    3.89    2.01
  12 -10 -17    2.69    2.24
  10   2  17   -0.88    2.21
 -12  10  17   -1.42    2.62
 -12  10  17    0.70    2.14
   2 -12  17    1.74    4.05
   1   9 -17    8.58    2.06
   9 -10 -17    3.03    2.04
  -9  10  17    3.83    1.92
  -1  -9  17    6.75    3.21
  10  -1  17    1.13    2.02
  -9  10  17    4.68    2.37
   6 -10 -17   14.38    2.53
   4   6 -17   16.44    2.49
  -6  10  17   15.41    3.28
  -6  10  17   15.88    2.11
  10  -4  17   13.65    2.57
  -4  -6  17   12.60    3.14
   3 -10 -17   15.25    2.47
   7   3 -17   18.84    2.57
 -10   7 -17   19.32    2.24
  -7  -3  17   17.13    3.04
  10  -7  17   16.46    2.82
  -3  10  17   17.02    3.42
  10   0 -17    1.83    2.04
 -10  10 -17    1.22    1.72
   0 -10 -17   -2.05    2.08
 -10   0  17    0.19    2.09
  10 -10  17    2.06    2.31
  13  -3 -17   16.45    3.45
  -3 -10 -17   18.20    3.15
 -10  13 -17   15.39    2.40
 -13   3  17   19.26    2.85
  10 -13  17   16.13    3.07
 -13   3  17   21.21    3.51
  -6 -10 -17    1.35    2.76
  16  -6 -17    2.66    3.14
 -10  16 -17    0.45    2.45
 -16   6  17    6.86    2.65
 -16   6  17   -0.30    3.07
  10 -16  17   -4.68    2.58
 -10  19 -17   14.69    6.03
  -9 -10 -17   12.61    4.25
 -19   9  17   23.23    4.39
  -9  20 -17   35.17    4.76
 -11  -9 -17   37.50    5.54
 -20  11  17   36.79    5.28
 -11  -6 -17    1.91    2.85
  -6  17 -17    3.88    2.65
 -17  11  17    2.14    2.80
 -17  11  17    2.09    3.45
   6 -17  17    0.17    5.22
  11   6  17    4.43    3.33
  -3  14 -17   34.87    3.62
 -11  -3 -17   28.68    3.80
   3 -14  17   20.83    4.86
 -14  11  17   26.75    3.97
  11   3  17   32.58    4.46
 -14  11  17   30.44    3.60
  11 -11 -17    0.73    2.11
 -11   0 -17    0.60    2.04
   0  11 -17    1.06    2.00
 -11  11  17    2.00    2.94
   0 -11  17   -4.49    3.40
 -11  11  17    1.37    1.79
  11   0  17    3.23    2.42
   3   8 -17   29.81    3.33
   8 -11 -17   27.14    3.66
  -8  11  17   34.18    4.23
  11  -3  17   22.72    3.45
  -3  -8  17   24.09    4.06
   6   5 -17    3.18    1.91
  -5  11  17   -1.85    3.08
  -5  11  17    1.42    1.53
  11  -6  17    1.69    2.04
  -6  -5  17    2.87    2.44
   9   2 -17   14.41    2.59
 -11   9 -17   13.62    2.50
   2 -11 -17   17.41    3.04
  11  -9  17   13.25    2.76
  -9  -2  17   14.22    2.81
 -11  12 -17    8.58    2.19
  12  -1 -17   13.81    2.85
  -1 -11 -17   12.95    3.23
  11 -12  17   16.76    2.99
 -12   1  17   11.47    2.63
  15  -4 -17   11.12    3.62
 -11  15 -17   11.73    2.44
  -4 -11 -17   11.54    2.99
 -15   4  17    9.54    3.02
 -15   4  17   10.66    2.79
  11 -15  17    8.90    3.08
 -11  18 -17   31.59    3.85
  18  -7 -17   43.30    6.59
  -7 -11 -17   31.42    4.76
 -18   7  17   41.89    5.94
  11 -18  17   38.82    4.68
 -11  21 -17    7.37    3.73
 -10 -11 -17    5.47    4.35
 -21  10  17    1.44    3.58
 -10  22 -17    4.46    4.14
 -12 -10 -17    5.69    4.67
 -22  12  17    7.55    4.05
 -12  -7 -17   -0.36    3.46
  -7  19 -17    4.71    3.03
 -19  12  17    2.29    3.37
  -4  16 -17    9.10    3.00
 -12  -4 -17    5.12    2.85
   4 -16  17    3.68    5.40
 -16  12  17    7.16    2.80
 -16  12  17    7.86    3.26
  12   4  17    4.10    3.17
 -12  -1 -17    1.63    2.53
  -1  13 -17   -0.88    1.98
  13 -12 -17    2.76    2.88
  12   1  17    4.92    2.70
 -13  12  17    6.12    3.27
   1 -13  17    2.49    3.85
 -13  12  17    3.53    2.50
   2  10 -17    5.80    2.35
  10 -12 -17    3.63    2.40
 -10  12  17    4.10    1.79
  12  -2  17    1.27    2.25
  -2 -10  17   -2.17    3.27
   7 -12 -17    1.39    2.20
   5   7 -17    1.20    1.90
  -5  -7  17    1.92    2.75
  -7  12  17   -0.49    1.84
  -7  12  17    1.81    3.09
  12  -5  17    2.17    2.25
   4 -12 -17    0.92    2.22
 -12   8 -17    1.59    1.57
   8   4 -17    5.04    2.30
  -8  -4  17   -1.01    2.28
  12  -8  17    4.52    2.36
  11   1 -17    6.87    2.75
 -12  11 -17    5.16    2.04
   1 -12 -17    2.50    2.39
  12 -11  17   12.27    2.93
 -11  -1  17    9.31    2.59
 -12  14 -17   -0.53    2.02
  14  -2 -17    4.21    2.62
  -2 -12 -17    1.95    2.55
  12 -14  17   -0.78    2.64
 -14   2  17    1.91    2.25
 -14   2  17    1.39    2.49
 -12  17 -17   17.27    3.20
  17  -5 -17   12.30    4.35
  -5 -12 -17    9.03    3.25
  12 -17  17   17.59    3.77
 -17   5  17    8.66    3.81
  20  -8 -17   -5.75    4.13
  -8 -12 -17   -0.18    3.79
 -12  20 -17   -2.16    3.32
 -20   8  17    4.55    4.05
  12 -20  17    5.88    4.00
 -12  23 -17    7.57    3.93
 -11 -12 -17   11.23    5.39
 -23  11  17    7.34    4.61
 -11  24 -17   22.89    4.87
 -13 -11 -17   25.67    5.69
 -24  13  17   27.03    5.49
  -8  21 -17    1.62    3.46
 -13  -8 -17    2.74    4.24
 -21  13  17   -2.14    3.58
 -13  -5 -17   33.97    4.74
  -5  18 -17   23.50    4.91
 -18  13  17   32.05    5.18
   5 -18  17   19.48    6.79
  13   5  17   31.70    5.01
 -13  -2 -17    2.37    2.70
  -2  15 -17    3.65    2.56
  15 -13 -17    4.07    2.86
  13   2  17    2.84    3.01
   2 -15  17    2.04    4.64
 -15  13  17   -0.56    2.36
 -15  13  17   -3.69    2.98
  12 -13 -17   31.54    4.09
   1  12 -17   36.96    3.80
  13  -1  17   32.34    4.29
 -12  13  17   31.43    3.51
 -12  13  17   45.89    4.82
  -1 -12  17   33.25    4.94
   4   9 -17    3.04    2.26
   9 -13 -17   -1.13    2.42
  -9  13  17   -2.04    1.96
  -9  13  17    2.53    2.96
  -4  -9  17   -4.03    3.10
  13  -4  17   -0.54    2.47
   7   6 -17   21.20    3.26
   6 -13 -17   24.47    3.48
  -6  13  17   24.83    2.85
  -7  -6  17   28.77    3.75
  13  -7  17   21.89    3.60
   3 -13 -17   26.47    3.59
 -13  10 -17   24.49    3.03
  10   3 -17   24.56    3.47
 -10  -3  17   22.63    3.26
  13 -10  17   24.17    3.34
 -13  13 -17   12.83    2.59
  13   0 -17    9.53    2.92
   0 -13 -17   12.24    3.46
  13 -13  17   21.24    3.66
 -13   0  17   10.13    2.65
  16  -3 -17   25.25    4.55
  -3 -13 -17   22.48    3.95
 -13  16 -17   20.37    3.29
  13 -16  17   25.63    3.93
 -16   3  17   28.53    4.45
  19  -6 -17    0.12    4.07
  -6 -13 -17    0.12    3.51
 -19   6  17    1.81    3.38
  13 -19  17   -0.26    3.65
 -13  22 -17   33.54    4.95
  -9 -13 -17   41.41    6.36
 -22   9  17   34.01    5.33
 -12 -13 -17    3.52    5.78
 -13  25 -17   10.05    4.66
 -25  12  17    1.66    5.95
 -14 -12 -17   -5.14    5.27
  -9  23 -17    1.39    4.00
 -14  -9 -17   10.95    5.23
 -23  14  17   -9.55    4.40
 -14  -6 -17    4.76    3.78
  -6  20 -17   -3.22    3.13
  14   6  17   -3.87    3.89
 -20  14  17   -3.15    3.65
 -14  -3 -17   10.91    3.65
  -3  17 -17    6.92    3.63
 -17  14  17    4.64    2.79
  14   3  17   -7.66    3.53
   3 -17  17   -2.03    6.06
 -14   0 -17    2.22    2.80
   0  14 -17    8.00    2.85
  14 -14 -17   -0.27    3.06
 -14  14  17    2.46    3.41
  14   0  17    0.55    2.86
 -14  14  17    0.19    2.81
   0 -14  17    7.90    4.51
  11 -14 -17    6.84    2.74
   3  11 -17    3.13    2.32
  -3 -11  17    4.85    3.75
  14  -3  17    1.74    2.94
 -11  14  17    4.51    2.33
 -11  14  17    4.02    3.20
   6   8 -17   -1.86    2.00
   8 -14 -17    1.34    2.54
  14  -6  17    6.57    2.88
  -8  14  17    1.04    2.01
  -6  -8  17   -0.47    2.97
   5 -14 -17    6.39    2.94
   9   5 -17    5.93    2.56
  14  -9  17   10.55    3.10
  -9  -5  17    4.96    2.71
   2 -14 -17    5.71    3.05
 -14  12 -17    2.31    2.06
  12   2 -17    2.93    2.79
  14 -12  17    4.61    2.97
 -12  -2  17    1.21    2.43
 -14  15 -17    6.70    2.54
  -1 -14 -17   12.70    3.53
  15  -1 -17    8.20    3.23
  14 -15  17    5.51    3.12
 -15   1  17    4.14    2.52
  18  -4 -17    2.50    4.28
  -4 -14 -17    1.63    3.39
 -14  18 -17    4.78    2.94
 -18   4  17    3.25    3.70
  14 -18  17   -4.15    3.53
  21  -7 -17   16.78    5.22
  -7 -14 -17   15.35    5.35
 -14  21 -17   17.44    4.20
 -21   7  17   20.80    4.52
  14 -21  17   19.81    5.06
 -10 -14 -17    5.58    5.72
 -14  24 -17   -5.38    4.00
 -24  10  17    6.32    4.79
 -15 -10 -17    6.13    6.12
 -15  -7 -17   35.96    6.38
  -7  22 -17   34.01    5.65
 -22  15  17   41.16    5.64
 -15  -4 -17    7.56    4.30
  -4  19 -17    4.58    3.08
 -19  15  17    6.13    3.83
  15   4  17    6.68    3.95
 -15  -1 -17   54.44    5.66
  -1  16 -17   48.77    4.85
  16 -15 -17   41.37    4.81
  15   1  17   54.81    6.46
   1 -16  17   50.79    7.13
 -16  15  17   55.99    5.31
 -16  15  17   40.02    5.27
  13 -15 -17   -3.02    3.01
   2  13 -17   -1.24    2.57
 -13  15  17    7.98    3.74
  -2 -13  17   -0.68    4.17
 -13  15  17    0.27    2.64
  15  -2  17   -1.29    2.87
  10 -15 -17   37.21    4.71
   5  10 -17   40.82    4.54
  -5 -10  17   39.06    4.77
 -10  15  17   41.28    7.65
  15  -5  17   42.15    5.13
 -10  15  17   32.85    3.79
   7 -15 -17   -1.22    2.72
   8   7 -17    2.44    2.30
  15  -8  17    1.47    2.93
  -8  -7  17    3.72    2.92
  -7  15  17    1.03    2.13
  11   4 -17   15.22    3.06
 -15  11 -17    6.27    2.31
   4 -15 -17    5.81    3.13
 -11  -4  17    6.37    2.79
  15 -11  17    8.73    3.18
 -15  14 -17   21.10    3.04
  14   1 -17   25.72    3.94
   1 -15 -17   17.97    3.58
 -14  -1  17   17.02    2.93
  15 -14  17   21.62    4.16
  17  -2 -17    1.89    3.98
  -2 -15 -17    5.65    4.05
 -15  17 -17   -0.66    2.77
  15 -17  17    1.19    3.44
 -17   2  17   -0.08    3.73
  -5 -15 -17   22.79    5.30
  20  -5 -17   16.50    5.51
 -15  20 -17   21.90    3.91
  15 -20  17   20.42    5.08
 -20   5  17   18.88    4.99
 -15  23 -17    1.27    4.35
  -8 -15 -17   -0.72    5.47
 -23   8  17    2.25    4.64
  15 -23  17    5.65    5.39
 -11 -15 -17   23.52    8.25
  -8  24 -17   -3.69    4.79
 -16  -8 -17   11.15    5.20
 -24  16  17   -0.14    5.27
  -5  21 -17    0.60    3.99
 -16  -5 -17    4.04    3.89
  16   5  17    9.65    4.81
 -21  16  17    4.83    3.79
 -16  -2 -17   -4.30    6.18
  -2  18 -17    1.19    3.01
  16   2  17   11.48    7.78
 -18  16  17   -0.83    3.63
   1  15 -17    6.66    3.10
  15 -16 -17    0.49    3.63
 -15  16  17    4.53    2.77
  16  -1  17   10.69    3.99
 -15  16  17    8.31    4.21
   4  12 -17    1.61    2.68
  12 -16 -17   -5.37    2.91
  -4 -12  17    0.87    3.87
 -12  16  17   -0.21    2.37
  16  -4  17    2.81    3.28
 -12  16  17    0.66    3.60
   7   9 -17   13.31    3.10
   9 -16 -17   12.14    3.58
  -9  16  17   12.17    2.74
  16  -7  17   15.42    3.73
  -7  -9  17    9.00    3.49
  10   6 -17   -0.66    2.53
   6 -16 -17   -4.25    2.88
 -10  -6  17   -3.37    2.78
  16 -10  17   10.95    3.43
  13   3 -17    5.47    3.49
   3 -16 -17   11.21    3.81
 -16  13 -17    7.54    2.57
  16 -13  17    7.31    3.32
   0 -16 -17   -3.43    3.14
 -16  16 -17    2.05    2.62
  16   0 -17   -1.46    3.20
  16 -16  17    0.32    3.63
  -3 -16 -17    9.54    4.76
  19  -3 -17   11.17    4.52
 -16  19 -17    3.59    3.05
  16 -19  17   11.89    4.52
 -19   3  17    9.30    4.19
  -6 -16 -17    3.44    4.77
 -16  22 -17    2.21    3.62
  22  -6 -17   -2.02    4.97
 -22   6  17   -1.43    4.15
  16 -22  17    9.71    5.19
 -16  25 -17   15.49    5.46
  -9 -16 -17    1.50    6.17
 -17  -6 -17   -1.48    4.55
  -6  23 -17    3.38    4.20
 -23  17  17    0.55    4.91
  -3  20 -17   44.32    5.56
 -17  -3 -17   37.75    5.71
  17   3  17   39.75    6.47
 -20  17  17   48.13    5.93
  17 -17 -17   -1.18    3.84
   0  17 -17    1.97    3.19
 -17  17  17   -0.07    3.94
  14 -17 -17   43.21    5.22
   3  14 -17   50.25    8.03
 -14  17  17   57.71    7.11
 -14  17  17   46.10    5.02
  17  -3  17   37.89    5.41
  11 -17 -17   -2.79    3.11
   6  11 -17    3.94    2.96
 -11  17  17    3.90    2.85
  17  -6  17    3.76    3.39
   9   8 -17   12.13    3.30
   8 -17 -17   14.54    3.65
  17  -9  17   12.82    4.00
   5 -17 -17    2.26    3.30
  12   5 -17   10.48    3.45
  17 -12  17    3.52    3.23
   2 -17 -17   17.58    4.15
  15   2 -17   15.66    4.27
 -17  15 -17   18.69    3.17
  17 -15  17   15.79    3.84
  -1 -17 -17   25.58    5.01
  18  -1 -17   17.76    5.24
 -17  18 -17   13.73    4.46
  17 -18  17   13.58    4.71
 -18   1  17   11.80    4.70
  -4 -17 -17   -1.73    4.67
  21  -4 -17   -5.83    4.80
 -17  21 -17    1.81    3.49
  17 -21  17   -3.69    4.44
 -21   4  17   -3.21    3.95
 -17  24 -17   23.71    5.46
  -7 -17 -17   20.27    6.52
  17 -24  17   15.78    6.37
 -24   7  17   10.92    5.76
 -18  -7 -17    1.40    5.66
 -18  -4 -17   -4.52    4.78
  -4  22 -17   -4.75    4.53
  18   4  17    1.61    5.30
 -22  18  17   -3.37    4.57
  -1  19 -17    4.86    4.00
 -18  -1 -17    2.55    4.48
 -19  18  17    6.84    3.70
  18   1  17   -1.88    4.83
  16 -18 -17    2.44    4.07
   2  16 -17    1.61    3.11
 -16  18  17    3.40    5.03
  13 -18 -17   12.37    4.06
   5  13 -17   21.40    4.34
 -13  18  17   16.36    3.47
  18  -5  17   21.86    4.68
  10 -18 -17   -0.82    3.29
   8  10 -17    1.61    2.77
  18  -8  17    2.85    3.73
 -10  18  17   -0.70    2.59
   7 -18 -17   19.68    4.31
  11   7 -17   24.81    6.10
  18 -11  17   17.61    4.00
   4 -18 -17   -6.02    3.74
  14   4 -17   -2.00    3.33
  18 -14  17    3.90    4.08
  17   1 -17   10.34    4.67
 -18  17 -17   19.43    3.80
   1 -18 -17   22.62    5.40
  18 -17  17    8.59    4.49
 -18  20 -17   -0.61    3.77
  -2 -18 -17    0.17    4.89
  20  -2 -17   11.73    5.20
 -20   2  17    6.80    4.39
  18 -20  17    3.41    5.02
  -5 -18 -17    2.90    5.65
  23  -5 -17    3.75    5.83
 -18  23 -17    9.73    4.77
  18 -23  17   11.56    5.97
 -23   5  17   15.25    5.33
 -19  -5 -17   40.58    6.67
  19   5  17   44.39    7.02
  -2  21 -17    8.63    4.81
 -19  -2 -17    3.31    4.36
  19   2  17   -1.15    4.83
 -21  19  17   -1.17    4.47
   1  18 -17   29.01    5.21
 -19   1 -17   32.95    5.72
  18 -19 -17   32.78    5.61
  19  -1  17   31.29    6.22
 -18  19  17   31.44    5.03
  15 -19 -17   -2.73    4.02
   4  15 -17   -0.57    3.51
 -15  19  17   -2.50    3.49
  19  -4  17   -4.79    4.14
  12 -19 -17   31.83    5.06
   7  12 -17   29.78    4.73
  19  -7  17   28.08    5.42
 -12  19  17   27.26    3.89
   9 -19 -17   -3.57    3.62
  10   9 -17    1.90    3.04
  19 -10  17    2.31    4.08
  13   6 -17   15.53    3.83
   6 -19 -17   20.36    4.80
  19 -13  17   16.92    4.26
   3 -19 -17   16.68    4.97
 -19  16 -17   24.23    3.73
  16   3 -17   11.58    4.61
 -19  19 -17    6.32    3.97
  19   0 -17    3.26    4.99
   0 -19 -17    6.16    5.26
 -19   0  17    7.03    5.04
  19 -19  17    4.59    5.15
 -19  22 -17   16.72    4.84
  -3 -19 -17   26.41    6.50
  22  -3 -17   24.44    7.09
  19 -22  17   16.35    6.04
 -22   3  17   24.09    6.05
  -6 -19 -17   -0.04    7.25
  19 -25  17    3.61    6.58
  -3  23 -17   12.18    5.95
 -20  -3 -17   -3.74    5.73
  20   3  17   -2.09    6.32
 -23  20  17   -6.75    5.29
   0  20 -17    6.03    4.09
 -20   0 -17   -0.78    4.86
 -20  20  17    6.19    4.47
  20   0  17    1.00    5.47
   3  17 -17   -0.25    3.47
 -17  20  17    8.86    4.02
  20  -3  17   -4.13    4.96
   6  14 -17   11.13    3.82
  14 -20 -17   -3.75    4.37
 -14  20  17    2.82    3.51
  20  -6  17   13.14    4.65
   9  11 -17    4.39    3.94
  11 -20 -17    4.05    4.38
  20  -9  17   -4.94    5.71
  12   8 -17   -0.46    3.56
   8 -20 -17    0.42    5.78
   5 -20 -17   18.57    5.21
  15   5 -17   19.19    5.08
  20 -15  17   26.12    5.73
 -20  18 -17    8.54    3.65
   2 -20 -17    1.66    4.64
  18   2 -17   -1.35    4.82
 -18  -2  17    3.70    4.91
  20 -18  17    8.60    5.12
 -20  21 -17   11.60    4.62
  -1 -20 -17   19.49    5.63
  21  -1 -17   10.05    5.89
 -21   1  17   15.28    5.18
  20 -21  17   20.51    5.92
 -20  24 -17    1.87    7.26
  -4 -20 -17    7.16    6.78
  20 -24  17   10.41    6.72
 -21  -1 -17   26.66    5.90
  -1  22 -17   26.83    6.09
  21   1  17   28.20    6.39
 -22  21  17   34.09    6.18
  19 -21 -17   -4.42    5.36
   2  19 -17   -8.24    3.98
 -21   2 -17    5.12    4.76
  21  -2  17    3.99    5.59
 -19  21  17    7.12    4.56
   5  16 -17   42.10    5.32
  16 -21 -17   30.41    5.87
  21  -5  17   35.26    6.14
 -16  21  17   34.89    4.88
  13 -21 -17    3.12    4.73
   8  13 -17    1.78    4.03
  21  -8  17    8.46    5.31
  11  10 -17    9.75    4.13
  10 -21 -17   17.33    5.11
  21 -11  17   17.26    5.34
  14   7 -17   22.60    5.17
   7 -21 -17   11.05    4.97
  21 -14  17    5.29    4.67
  17   4 -17   21.24    5.57
   4 -21 -17    9.70    5.31
  21 -17  17   23.53    5.44
 -21  20 -17    8.57    4.73
  20   1 -17   19.29    5.68
   1 -21 -17   18.95    5.34
  21 -20  17   20.99    6.05
 -20  -1  17    8.73    5.16
  -2 -21 -17    0.05    6.32
 -21  23 -17    2.98    5.12
  21 -23  17   12.16    6.76
 -22   1 -17    5.26    5.60
   1  21 -17    5.49    4.62
  22  -1  17   14.20    6.24
 -21  22  17    4.67    5.48
   4  18 -17   -2.60    4.59
  18 -22 -17    5.84    5.48
 -18  22  17    0.85    4.49
  22  -4  17   -4.26    5.62
   7  15 -17   21.62    5.12
  15 -22 -17   19.40    5.65
  22  -7  17    6.23    5.44
 -15  22  17   14.58    4.49
  10  12 -17   -6.29    4.15
  12 -22 -17    2.38    5.40
  22 -10  17    3.25    5.12
   9 -22 -17   21.85    5.59
  13   9 -17    8.18    4.38
  22 -13  17   14.48    5.51
   6 -22 -17    3.99    4.66
  16   6 -17  -13.23    4.69
  22 -16  17   -4.45    4.70
   3 -22 -17    0.59    5.65
  19   3 -17   15.00    6.11
 -19  -3  17    9.56    5.87
  22 -19  17   12.12    6.38
 -22  22 -17   -5.38    5.14
   0 -22 -17   12.94    6.62
  22 -22  17  -11.77    5.75
   3  20 -17   16.08    5.44
  20 -23 -17   21.33    6.72
 -23   3 -17   16.96    5.87
  23  -3  17   17.86    6.93
 -20  23  17   19.01    5.71
  17 -23 -17  -12.25    5.70
   6  17 -17    8.52    5.20
  23  -6  17  -11.20    5.57
 -17  23  17   -3.65    4.36
  14 -23 -17   17.16    6.21
   9  14 -17   22.50    5.51
  23  -9  17   22.54    6.37
  12  11 -17    2.48    4.87
  11 -23 -17   -3.08    4.56
  23 -12  17    1.48    5.52
  15   8 -17    3.25    5.38
   8 -23 -17    6.36    5.58
  23 -15  17   -0.96    5.68
  18   5 -17    8.61    6.22
   5 -23 -17    5.29    5.62
  23 -18  17    6.39    5.37
   2 -23 -17   17.92    6.17
  23 -21  17    0.82    6.72
  19 -24 -17    5.23    6.50
 -19  24  17   10.90    5.34
  24  -5  17    9.35    5.99
  16 -24 -17   -8.03    5.62
   8  16 -17    6.74    5.23
  24  -8  17    3.17    6.52
  11  13 -17   18.68    5.40
  13 -24 -17   12.51    6.15
  24 -11  17   15.19    5.92
  10 -24 -17    0.28    5.50
  14  10 -17   -4.09    5.28
  24 -14  17   -0.72    6.17
  17   7 -17   20.50    6.43
   7 -24 -17    2.80    6.23
  24 -17  17   10.71    6.03
   4 -24 -17  -10.13    6.06
  24 -20  17   -6.53    5.88
  18 -25 -17   44.89    7.72
  25  -7  17   17.07    7.35
  10  15 -17    7.07    5.85
  15 -25 -17   10.09    6.45
  25 -10  17   -9.24    5.36
  12 -25 -17   14.20    6.16
  13  12 -17   23.22    5.92
  25 -13  17   20.27    7.25
   9 -25 -17    8.58    6.52
  25 -16  17    9.00    5.90
   6 -25 -17    9.02    7.03
  25 -19  17    5.39    7.29
  14 -26 -17    3.14    6.86
  26 -12  17   11.38    6.34
  11 -26 -17   18.01    7.59
  26 -15  17   -0.37    7.29
   0   0 -18  207.13    6.50
   0   0 -18  208.69    6.28
   0   0  18  206.57    8.30
   2  -1 -18   -1.51    1.22
  -1   2 -18   -0.17    1.13
   2  -1 -18   -0.54    1.27
  -1   2 -18    1.82    1.20
  -1  -1 -18    1.02    1.20
  -1  -1 -18   -0.13    1.35
  -2   1  18    2.37    2.41
   1   1  18   -1.92    2.38
   1  -2  18   -0.18    1.24
   1  -2  18    2.25    2.20
   1  -2 -18    6.05    1.48
   1   1 -18    9.70    1.64
   1   1 -18    7.49    1.26
  -2   1 -18    5.26    1.34
  -2   1 -18    7.77    1.54
   1  -2 -18    7.82    1.48
  -1  -1  18    7.99    2.57
   2  -1  18    6.22    1.58
  -1   2  18    8.64    2.75
   2  -1  18    5.46    2.71
   4  -2 -18  297.52    9.07
  -2  -2 -18  297.65    9.17
  -2  -2 -18  299.36    7.92
  -2   4 -18  292.98    8.68
   2   2  18  284.56    7.79
   2   2  18  292.37    9.21
   2   2  18  293.80   10.48
   2  -4  18  298.03   10.84
   2  -4  18  300.60    8.34
  -4   2  18  274.59   10.28
  -3   0 -18    0.80    1.31
   3  -3 -18   -1.66    1.19
  -3   0 -18    0.68    1.10
   0   3 -18    0.84    1.35
   3  -3 -18    0.00    1.39
  -3   0 -18    1.81    4.69
   3   0  18    1.07    1.52
   3   0  18   -2.59    2.29
   0  -3  18    5.57    2.30
  -3   3  18    4.06    2.15
  -3   3 -18    1.03    1.33
   3   0 -18    1.80    1.46
   0  -3 -18    0.90    1.48
   0  -3 -18   -0.50    1.25
   3  -3  18    1.46    1.42
  -3   0  18   -1.95    2.01
   0   3  18   -0.90    1.19
   3  -3  18   -2.00    2.60
   0   3  18    3.74    2.29
  -3   6 -18   -1.57    1.34
   6  -3 -18   -0.66    1.68
  -3  -3 -18    1.04    1.65
   3  -6  18    3.86    2.90
   3   3  18    0.97    1.70
   3  -6  18   -0.86    1.47
   3   3  18    0.36    2.37
  -6   3  18   -0.09    2.22
  -1   5 -18    1.60    1.70
   5  -4 -18    4.95    1.48
   5  -4 -18    3.62    1.80
  -4  -1 -18    7.97    1.79
   4   1  18    3.64    1.82
  -5   4  18    7.59    1.85
   1  -5  18    6.18    2.60
  -5   4  18    5.83    2.32
   4   1  18    9.73    3.10
  -4   2 -18  254.96    7.23
   2   2 -18  251.65    8.04
   2  -4 -18  249.34    7.74
   2  -4 -18  254.52    7.81
  -4   2 -18  258.60    7.95
  -2  -2  18  249.51    9.42
   4  -2  18  279.15    9.97
   4  -2  18  255.64    8.13
  -2   4  18  242.46    9.19
  -2   4  18  251.87    7.57
  -4   5 -18    1.09    1.23
   5  -1 -18   -2.60    1.57
  -1  -4 -18    2.16    1.66
   4  -5  18    4.87    2.96
   4  -5  18    2.03    1.56
  -5   1  18   -0.52    2.23
   1   4  18    0.54    2.27
  -4  -4 -18  217.26    8.02
  -4   8 -18  219.71    7.61
   8  -4 -18  229.61    8.09
   4  -8  18  237.96    7.27
  -8   4  18  219.36    8.12
   4  -8  18  226.71    9.65
  -8   4  18  227.58    8.90
   4   4  18  220.77    8.37
  -2   7 -18    1.76    1.38
  -5  -2 -18   -0.50    1.71
   7  -5 -18    0.49    1.95
   5   2  18   -0.34    1.68
  -7   5  18    0.06    1.57
   2  -7  18   -2.80    2.80
  -7   5  18    3.35    2.39
  -5   1 -18    1.59    1.52
   4  -5 -18   -1.08    1.44
   4  -5 -18   -0.91    1.65
  -5   1 -18    1.38    1.07
   1   4 -18   -0.27    1.43
  -4   5  18   -4.57    2.23
   5  -1  18   -0.36    1.59
  -4   5  18    0.50    1.37
  -1  -4  18   -3.33    2.23
  -5   4 -18    1.45    1.24
   4   1 -18   -1.11    1.58
   1  -5 -18    2.13    1.62
   5  -4  18    2.65    2.62
  -1   5  18    4.84    2.73
  -4  -1  18    1.13    2.47
   5  -4  18    2.71    1.64
  -1   5  18    3.87    1.29
  -5   7 -18    4.60    1.60
  -2  -5 -18    4.69    1.95
   7  -2 -18    2.72    1.81
   5  -7  18    4.22    1.70
   5  -7  18    4.68    3.23
  -7   2  18    4.51    2.40
  10  -5 -18    2.04    2.36
  -5  10 -18   -0.54    1.72
  -5  -5 -18   -1.43    1.79
   5 -10  18   -2.22    3.61
   5 -10  18   -2.51    1.91
   5   5  18   -1.69    2.24
 -10   5  18   -2.45    2.12
 -10   5  18   -0.66    2.26
  -3   9 -18    3.69    1.70
  -6  -3 -18    7.43    2.19
   9  -6 -18    3.98    2.35
  -9   6  18    6.56    1.96
   3  -9  18   -1.92    3.02
   6   3  18    2.37    1.93
  -9   6  18    3.57    2.54
   6  -6 -18  233.26    7.24
  -6   0 -18  246.41    8.14
   6  -6 -18  219.66    7.94
   0   6 -18  224.74    7.75
   6   0  18  240.23    8.40
  -6   6  18  232.65    8.79
  -6   6  18  230.42    7.68
   0  -6  18  230.22    9.63
   3   3 -18   -0.12    1.34
  -6   3 -18   -0.18    1.07
   6  -3  18    2.14    2.87
  -3   6  18    0.28    2.23
  -3  -3  18   -3.37    2.27
   6  -3  18    2.62    1.74
  -3   6  18    0.43    1.31
   6   0 -18  260.90    8.82
   0  -6 -18  274.39    8.85
  -6   6 -18  263.21    7.92
   0   6  18  262.11    9.63
   6  -6  18  244.98   10.17
   6  -6  18  280.19    8.82
  -6   0  18  276.94    9.73
  -6   9 -18    6.70    1.88
   9  -3 -18    2.16    2.11
  -3  -6 -18    1.25    1.72
  -9   3  18    1.64    2.35
   6  -9  18    3.30    3.45
   6  -9  18   -1.74    2.01
  12  -6 -18  143.74    6.96
  -6  12 -18  143.41    6.24
  -6  -6 -18  134.50    6.90
 -12   6  18  150.28    6.99
   6 -12  18  133.34    5.93
   6 -12  18  140.06    9.29
 -12   6  18  137.15    6.63
  -7  -4 -18    3.01    2.14
  11  -7 -18    0.01    2.43
  -4  11 -18    0.93    1.67
 -11   7  18    0.87    2.16
 -11   7  18    1.71    2.56
   4 -11  18    9.17    3.92
   7   4  18   -0.29    2.48
   8  -7 -18    1.46    2.13
  -7  -1 -18    3.04    2.23
   8  -7 -18    2.71    1.80
  -1   8 -18    2.98    1.81
   1  -8  18   -2.47    2.73
   7   1  18   -2.17    2.05
  -8   7  18   -2.07    2.00
  -8   7  18    3.02    1.78
   2   5 -18    0.97    1.68
  -2  -5  18    3.29    2.72
   7  -2  18   -0.73    1.91
  -5   7  18    1.24    1.41
  -5   7  18    1.81    2.52
   2  -7 -18    2.84    1.77
   5   2 -18    8.12    1.94
  -7   5 -18    5.46    1.42
  -2   7  18   11.95    3.08
  -5  -2  18    5.10    2.29
   7  -5  18    3.61    1.88
  -2   7  18    5.53    1.37
  -1  -7 -18    0.68    1.73
   8  -1 -18    0.66    2.00
  -7   8 -18    4.38    3.00
   7  -8  18   -3.65    3.20
   7  -8  18    4.91    1.93
  -8   1  18    4.21    2.40
  -7  11 -18    3.23    1.91
  -4  -7 -18    0.41    2.17
  11  -4 -18    7.25    2.59
 -11   4  18    3.24    2.30
   7 -11  18    1.70    2.17
   7 -11  18   -1.13    4.06
 -11   4  18    4.57    2.45
  14  -7 -18    2.69    2.88
  -7  -7 -18    2.21    2.41
  -7  14 -18   -1.16    2.24
 -14   7  18    0.53    2.63
 -14   7  18    1.99    2.47
  13  -8 -18   -1.84    2.50
  -5  13 -18    2.04    2.02
  -8  -5 -18    1.57    2.33
 -13   8  18    2.14    2.50
   5 -13  18    6.24    4.16
 -13   8  18    1.93    2.65
   8   5  18    1.89    2.79
  -8  -2 -18  164.75    6.99
  10  -8 -18  160.12    7.28
  -2  10 -18  163.02    6.64
 -10   8  18  167.85    7.54
   2 -10  18  153.52   11.87
   8   2  18  160.90    7.46
 -10   8  18  163.16    6.57
   7  -8 -18    0.83    1.77
   1   7 -18   -2.04    1.61
  -1  -7  18   -1.52    2.88
  -7   8  18    1.12    2.53
  -7   8  18    2.68    1.67
   4   4 -18  177.51    6.94
  -8   4 -18  193.27    5.76
   4  -8 -18  187.03    7.03
   8  -4  18  196.62    7.43
  -4   8  18  184.82    8.01
  -4   8  18  191.85    6.11
   7   1 -18    5.09    2.06
   1  -8 -18    3.98    2.12
  -8   7 -18    6.29    1.55
  -7  -1  18    2.50    2.39
   8  -7  18    5.23    2.00
  -2  -8 -18  189.63    7.69
  10  -2 -18  201.07    8.06
  -8  10 -18  192.27    6.90
   8 -10  18  201.09    7.58
 -10   2  18  198.30    8.06
  -5  -8 -18    1.59    2.42
  13  -5 -18   -4.10    2.43
  -8  13 -18    2.19    2.23
 -13   5  18   -0.65    2.33
 -13   5  18    2.72    2.43
  -8  16 -18  122.00    6.15
  -8  -8 -18  121.13    7.39
  16  -8 -18  125.45    7.57
 -16   8  18  121.44    6.85
 -16   8  18  117.29    6.77
  -9  -6 -18    3.37    2.99
  -6  15 -18    3.08    2.60
 -15   9  18    5.86    2.73
   6 -15  18    4.85    5.68
   9   6  18    4.49    3.12
 -15   9  18    3.30    2.97
  -9  -3 -18    4.21    2.26
  -3  12 -18    3.23    2.00
 -12   9  18   -0.53    2.55
 -12   9  18   -0.26    2.33
   3 -12  18    0.39    3.95
   9   3  18    6.47    2.91
   0   9 -18   -1.64    1.88
   9  -9 -18    1.33    1.96
  -9   0 -18    2.49    1.79
   9   0  18   -0.30    2.22
   0  -9  18    1.60    3.28
  -9   9  18    0.38    1.82
  -9   9  18    2.20    2.83
   3   6 -18    2.35    1.86
   6  -9 -18    0.85    1.92
  -6   9  18   -0.69    1.49
  -6   9  18    2.15    2.73
  -3  -6  18   -0.22    2.60
  -9   6 -18   -0.86    1.42
   6   3 -18    2.15    1.92
  -3   9  18   -0.02    2.46
  -6  -3  18   -1.68    2.25
   9  -6  18   -0.21    3.17
   0  -9 -18    4.45    2.44
   9   0 -18    6.80    2.19
  -9   9 -18    4.63    1.77
  -9   0  18    6.43    2.41
  12  -3 -18    4.70    2.35
  -9  12 -18    0.51    1.98
  -3  -9 -18   -1.42    2.31
 -12   3  18    0.23    2.33
 -12   3  18    4.22    2.42
   9 -12  18    0.83    2.48
  -9  15 -18    3.13    2.42
  15  -6 -18    1.76    3.16
  -6  -9 -18    5.00    3.02
   9 -15  18   -1.84    2.56
 -15   6  18    3.70    2.74
 -15   6  18    1.31    2.64
  -9  18 -18    1.59    2.94
  -9  -9 -18   -2.05    3.09
 -10  -7 -18   -1.66    2.89
  -7  17 -18   -3.34    2.70
 -17  10  18    2.70    2.91
 -10  -4 -18  176.00    7.95
  -4  14 -18  161.65    7.19
   4 -14  18  189.74   10.82
 -14  10  18  177.03    8.18
 -14  10  18  171.77    7.70
  10   4  18  173.12    8.70
  -1  11 -18   -0.08    1.84
  11 -10 -18   -1.24    2.16
 -10  -1 -18   -1.96    2.22
   1 -11  18    1.16    3.82
  10   1  18    6.09    2.82
 -11  10  18   -3.13    2.32
 -11  10  18   -0.73    2.09
   2   8 -18  162.34    6.77
   8 -10 -18  152.52    6.50
  -8  10  18  153.81    6.03
  -8  10  18  154.47    7.37
  -2  -8  18  166.16    8.02
  10  -2  18  163.50    7.08
   5   5 -18    0.39    1.80
   5 -10 -18    2.49    2.12
  10  -5  18    2.41    2.23
  -5  10  18   -6.03    2.84
  -5  10  18   -0.46    1.53
  -5  -5  18    1.52    2.75
   8   2 -18  194.92    7.67
 -10   8 -18  189.24    6.39
   2 -10 -18  178.27    7.59
  -8  -2  18  196.33    8.03
  11  -1 -18   -1.16    2.49
 -10  11 -18    2.46    1.82
  -1 -10 -18    1.05    2.16
 -11   1  18   -1.01    2.42
  10 -11  18    2.53    2.40
 -10  14 -18   89.10    4.87
  14  -4 -18   88.23    6.13
  -4 -10 -18   81.95    6.05
  10 -14  18   99.33    5.70
 -14   4  18   81.16    5.34
 -14   4  18  104.51    6.16
  17  -7 -18    1.16    3.63
 -10  17 -18    3.57    2.98
  -7 -10 -18   -3.40    2.89
 -17   7  18    5.96    3.16
  10 -17  18    3.05    3.35
 -10 -10 -18   77.97    7.47
 -10  20 -18   75.10    6.33
 -20  10  18   58.92    6.67
  -8  19 -18    5.24    3.52
 -19  11  18    7.01    3.93
 -11  -5 -18   -3.23    2.72
  -5  16 -18    0.12    2.39
  11   5  18   -3.93    2.92
   5 -16  18   -0.23    5.72
 -16  11  18    0.41    3.26
 -16  11  18   -1.18    3.06
 -11  -2 -18   -4.68    2.52
  -2  13 -18    3.61    2.20
   2 -13  18   -7.50    4.10
 -13  11  18    3.35    3.19
  11   2  18   -4.08    2.38
 -13  11  18    0.83    2.51
  10 -11 -18   -1.80    2.20
   1  10 -18   -0.07    1.88
 -10  11  18   -1.14    2.69
  11  -1  18    3.72    2.73
  -1 -10  18    1.76    3.62
 -10  11  18   -0.60    2.05
   4   7 -18   -0.24    1.82
   7 -11 -18    4.57    2.19
  -7  11  18   -1.49    2.75
  -4  -7  18    0.28    3.01
  11  -4  18    0.25    2.09
  -7  11  18   -1.31    1.89
   4 -11 -18    1.01    2.23
   7   4 -18    1.49    2.26
 -11   7 -18    0.21    1.52
  11  -7  18   -2.47    2.20
  -7  -4  18   -0.92    2.38
 -11  10 -18    1.28    1.87
   1 -11 -18    7.06    2.42
  10   1 -18    1.18    2.41
 -10  -1  18    0.93    2.53
  11 -10  18    1.23    2.39
  -2 -11 -18    1.47    2.52
 -11  13 -18   -1.23    1.96
  13  -2 -18   -3.24    2.38
  11 -13  18   -0.31    2.64
 -13   2  18    4.38    2.54
  16  -5 -18   -2.84    3.72
  -5 -11 -18    1.99    2.83
 -11  16 -18   -0.28    2.62
  11 -16  18   -1.24    2.97
 -16   5  18    2.44    3.03
 -11  19 -18    1.54    2.80
  19  -8 -18   -2.34    4.59
 -19   8  18    1.53    3.34
 -11  22 -18    6.95    4.22
 -11 -11 -18   -2.16    4.80
 -22  11  18   -0.47    4.58
  -9  21 -18    7.73    4.01
 -12  -9 -18   -5.13    4.30
 -21  12  18    0.70    3.79
 -12  -6 -18   68.26    6.77
  -6  18 -18   71.93    5.67
 -18  12  18   78.20    6.42
  12   6  18   68.50    7.26
  -3  15 -18    3.54    2.55
 -12  -3 -18    1.83    2.98
   3 -15  18   -0.49    5.09
  12   3  18   -3.30    2.74
 -15  12  18    0.94    2.86
 -15  12  18    0.74    3.25
   0  12 -18  121.32    6.21
 -12   0 -18  100.99    5.89
  12 -12 -18  104.38    9.14
  12   0  18   98.82    6.21
 -12  12  18  102.93    6.91
 -12  12  18  108.69    5.77
   0 -12  18  119.73    8.31
   9 -12 -18    4.07    2.40
   3   9 -18    5.40    2.42
  -9  12  18    1.98    3.08
  12  -3  18    1.72    2.47
  -9  12  18    5.19    2.11
  -3  -9  18    5.15    3.41
   6 -12 -18  170.01    7.41
   6   6 -18  173.77    7.34
  12  -6  18  181.70    7.87
  -6  -6  18  179.03    8.30
  -6  12  18  172.44    6.24
 -12   9 -18    8.46    2.36
   3 -12 -18    5.94    2.73
   9   3 -18    4.75    2.54
  12  -9  18    7.55    2.37
  -9  -3  18    2.63    2.68
  12   0 -18  140.57    7.02
 -12  12 -18  130.59    5.69
   0 -12 -18  144.23    7.33
  12 -12  18  124.70    6.78
 -12   0  18  132.43    6.60
  -3 -12 -18   -2.00    2.59
  15  -3 -18   -1.25    3.50
 -12  15 -18    3.83    2.43
  12 -15  18    2.96    3.03
 -15   3  18    3.16    3.30
 -15   3  18    2.50    2.69
  -6 -12 -18   84.34    7.16
 -12  18 -18   81.01    5.83
  18  -6 -18   90.15    7.33
 -18   6  18   80.04    6.43
  12 -18  18   84.68    6.89
 -12  21 -18   -2.72    3.68
  -9 -12 -18   -0.19    4.33
 -21   9  18   10.47    4.42
 -12 -12 -18   28.83    6.61
 -12  24 -18   31.78    5.29
 -24  12  18   35.53    6.48
 -10  23 -18   -1.43    4.48
 -13 -10 -18    6.88    4.59
 -23  13  18    3.74    4.97
  -7  20 -18   -2.30    3.81
 -13  -7 -18    3.77    4.42
 -20  13  18   -2.00    4.05
 -13  -4 -18    3.02    3.52
   4 -17  18    5.16    6.22
  13   4  18   -2.09    3.20
 -17  13  18   -1.67    3.28
  -1  14 -18   -5.28    2.19
 -13  -1 -18    0.95    2.78
  14 -13 -18    0.90    3.45
   1 -14  18   -7.34    4.75
  13   1  18    3.23    3.48
 -14  13  18    1.77    2.81
 -14  13  18    3.35    3.07
   2  11 -18    1.78    2.08
  11 -13 -18    1.10    2.61
  13  -2  18   -1.66    2.50
 -11  13  18    6.14    3.62
 -11  13  18   -0.12    2.21
  -2 -11  18    2.63    3.65
   8 -13 -18   -1.61    2.33
   5   8 -18   -2.33    2.28
  -5  -8  18   -0.40    3.03
  -8  13  18    1.03    3.53
  -8  13  18    3.93    2.07
  13  -5  18    2.67    2.74
   8   5 -18    2.02    2.30
   5 -13 -18    0.80    2.26
  13  -8  18    0.08    2.62
  -8  -5  18   -1.69    2.65
 -13  11 -18   -1.91    1.96
  11   2 -18   -1.03    2.31
   2 -13 -18    2.74    2.77
  13 -11  18    2.19    2.80
 -11  -2  18    0.77    2.47
 -13  14 -18    5.65    2.44
  -1 -13 -18    3.39    2.90
  14  -1 -18    4.84    3.43
 -14   1  18    4.36    2.65
  13 -14  18    2.66    3.01
  17  -4 -18    7.15    7.25
 -13  17 -18    6.03    2.68
  -4 -13 -18    6.55    3.90
 -17   4  18    1.18    6.81
  13 -17  18   -3.44    3.49
  20  -7 -18   21.28    5.07
 -13  20 -18   -5.78    3.35
  -7 -13 -18    6.67    4.00
 -20   7  18    3.73    3.80
  13 -20  18    1.30    4.35
 -10 -13 -18   13.28    5.70
 -13  23 -18   16.52    4.81
 -23  10  18   12.44    4.89
 -14 -11 -18    9.96    6.16
  -8  22 -18   30.94    5.74
 -14  -8 -18   40.78    6.32
 -22  14  18   32.70    5.93
 -14  -5 -18   -3.60    3.76
  -5  19 -18    3.54    3.37
  14   5  18   -3.90    4.37
 -19  14  18    1.62    3.83
  -2  16 -18  124.71    7.33
 -14  -2 -18  123.62    7.40
 -16  14  18  124.78    6.74
 -16  14  18  140.24    8.10
   2 -16  18  136.52    9.68
  14   2  18  116.32    7.62
   1  13 -18    2.33    2.48
  13 -14 -18    3.15    3.22
  -1 -13  18    1.00    4.23
 -13  14  18    6.94    3.46
  14  -1  18   -4.23    2.72
 -13  14  18   -0.02    2.33
  10 -14 -18  128.63    6.65
   4  10 -18  134.18    6.51
 -10  14  18  137.98    6.02
  -4 -10  18  134.42    8.02
  14  -4  18  123.25    7.26
 -10  14  18  115.08    7.35
   7 -14 -18    3.88    2.82
   7   7 -18    4.35    2.57
  -7  14  18    3.95    2.53
  14  -7  18    3.65    2.96
  -7  -7  18    3.10    3.10
  10   4 -18  126.16    6.60
   4 -14 -18  114.22    6.93
 -10  -4  18  118.21    6.51
  14 -10  18  123.49    7.05
   1 -14 -18    1.61    3.12
 -14  13 -18    6.48    2.41
  13   1 -18    4.87    2.91
  14 -13  18    1.29    3.19
 -13  -1  18    5.51    2.74
  16  -2 -18   88.36    7.75
 -14  16 -18   85.68    5.52
  -2 -14 -18   86.03    7.18
 -16   2  18   87.55    7.43
  14 -16  18   95.33    6.87
  -5 -14 -18   10.12    4.17
  19  -5 -18   11.04    4.72
 -14  19 -18    5.21    3.39
  14 -19  18    7.64    4.29
 -19   5  18    8.96    4.00
  -8 -14 -18   46.18    6.83
 -14  22 -18   53.40    6.61
 -22   8  18   51.68    6.28
 -11 -14 -18   -5.60    6.30
  -9  24 -18   -2.82    5.17
 -15  -9 -18    4.10    5.78
 -24  15  18   -0.09    5.31
 -15  -6 -18    1.56    4.65
  -6  21 -18    6.51    4.25
  15   6  18   -2.82    4.97
 -21  15  18    2.09    4.21
  -3  18 -18    2.23    3.12
 -15  -3 -18    6.40    4.99
  15   3  18    1.48    5.43
 -18  15  18    4.83    3.34
  15 -15 -18    4.82    3.58
 -15   0 -18    2.67    3.02
   0  15 -18    3.29    2.75
 -15  15  18   -3.39    3.52
   0 -15  18    0.03    5.60
 -15  15  18    3.32    3.12
  15   0  18   -3.11    3.07
   3  12 -18    1.79    2.55
  12 -15 -18    2.97    3.09
  15  -3  18    5.37    3.10
 -12  15  18    1.50    2.43
 -12  15  18    3.78    4.11
  -3 -12  18    4.74    4.14
   6   9 -18    3.24    2.80
   9 -15 -18    1.45    2.91
  15  -6  18    2.61    2.90
  -6  -9  18    1.09    3.45
  -9  15  18    2.31    2.44
   6 -15 -18   -1.52    2.93
   9   6 -18   -0.74    2.49
  -9  -6  18   -0.84    3.03
  15  -9  18    4.88    2.74
  12   3 -18   -3.08    3.15
   3 -15 -18   -0.56    3.39
 -15  12 -18    1.46    2.24
 -12  -3  18    1.51    2.73
  15 -12  18   -0.69    2.75
  15   0 -18    5.41    3.68
   0 -15 -18   -4.82    3.31
 -15  15 -18    9.35    2.91
  15 -15  18    2.53    3.33
  18  -3 -18    2.87    4.05
 -15  18 -18   -1.14    3.55
  15 -18  18   -1.92    3.82
 -18   3  18   -6.97    3.78
  -6 -15 -18   -3.28    4.09
  21  -6 -18   -0.72    5.66
 -15  21 -18   -3.21    3.91
 -21   6  18    1.43    4.86
  15 -21  18    6.36    5.92
 -15  24 -18    2.28    4.81
  -9 -15 -18   -8.20    4.78
 -24   9  18   -2.23    4.74
  -7  23 -18   -3.39    4.18
 -16  -7 -18    3.21    4.55
 -23  16  18    3.05    4.62
  -4  20 -18   68.20    6.18
 -16  -4 -18   59.31    7.11
  16   4  18   59.70    7.11
 -20  16  18   64.05    6.64
  -1  17 -18    4.81    3.16
 -17  16  18    4.76    3.45
  14 -16 -18  101.60    6.77
   2  14 -18   81.50    6.72
  16  -2  18   80.12    7.24
 -14  16  18   84.41    5.90
 -14  16  18   92.63    8.00
   5  11 -18    1.01    2.70
  11 -16 -18    0.03    3.30
  16  -5  18    1.41    2.90
 -11  16  18    1.11    2.52
  -5 -11  18   -5.30    4.02
   8   8 -18  108.82    6.39
   8 -16 -18  105.59    6.81
  16  -8  18  112.01    7.34
  -8  -8  18  110.69    7.01
  11   5 -18    4.54    2.92
   5 -16 -18    4.03    3.46
  16 -11  18   -4.37    3.45
 -16  14 -18   98.92    5.28
   2 -16 -18   86.55    7.28
  14   2 -18   95.73    9.77
  16 -14  18   92.75    7.29
 -16  17 -18    3.24    3.12
  -1 -16 -18    0.53    5.95
  17  -1 -18    2.16    3.83
 -17   1  18    2.13    3.75
  16 -17  18    2.02    4.00
  20  -4 -18   78.23    7.99
 -16  20 -18   84.44    6.52
  -4 -16 -18   81.14    8.16
 -20   4  18   78.35    7.14
 -16  23 -18   -2.11    4.53
  -7 -16 -18   -5.57    5.40
 -23   7  18    1.08    4.51
 -17  -8 -18    3.67    6.22
  -5  22 -18    5.50    4.24
 -17  -5 -18   -3.75    4.38
 -22  17  18   -3.02    4.36
  17   5  18    3.41    5.18
  -2  19 -18    6.58    4.13
 -17  -2 -18    7.95    3.76
 -19  17  18    0.47    4.10
  17   2  18   -3.34    4.13
   1  16 -18    3.03    3.62
  16 -17 -18    3.99    4.29
 -16  17  18   -2.04    4.37
  13 -17 -18   -0.17    3.65
   4  13 -18    3.70    3.86
 -13  17  18    3.69    3.10
  17  -4  18    1.98    3.72
   7  10 -18   -0.73    3.10
  10 -17 -18    2.81    3.39
  17  -7  18   -3.88    3.56
 -10  17  18    4.26    2.86
   7 -17 -18   -1.02    3.31
  10   7 -18    5.10    3.37
  17 -10  18    3.90    3.63
   4 -17 -18    8.62    3.80
  13   4 -18    8.54    4.86
  17 -13  18    2.77    3.96
   1 -17 -18    4.14    3.93
  16   1 -18   -1.72    4.13
 -17  16 -18   -3.52    2.78
  17 -16  18    0.99    4.16
  -2 -17 -18    8.21    4.43
  19  -2 -18   -0.79    4.45
 -17  19 -18    5.45    3.82
 -19   2  18    5.77    4.40
 -17  22 -18   -2.50    4.36
  22  -5 -18   -7.04    5.27
  -5 -17 -18   -2.67    4.48
  17 -22  18   -3.35    5.37
 -22   5  18   -4.06    4.33
  -8 -17 -18    8.60    6.61
 -18  -6 -18   22.06    6.82
 -18  -3 -18    0.85    4.47
  -3  21 -18    0.16    4.72
  18   3  18   -5.71    4.67
 -21  18  18    0.88    4.66
 -18   0 -18   34.98    4.98
   0  18 -18   29.17    4.68
  18   0  18   34.22    5.73
 -18  18  18   32.21    5.15
  15 -18 -18    2.51    4.26
   3  15 -18   -0.64    3.65
  18  -3  18   -3.34    4.70
 -15  18  18    3.27    3.46
   6  12 -18   69.38    6.45
  12 -18 -18   82.43    6.87
 -12  18  18   84.23    5.59
  18  -6  18   78.70    6.77
   9   9 -18    4.78    3.50
   9 -18 -18    2.52    3.80
  18  -9  18    5.44    3.61
   6 -18 -18   92.02    6.77
  12   6 -18   92.56    6.53
  18 -12  18   81.97    6.90
  15   3 -18   16.77    4.16
   3 -18 -18   10.92    6.25
  18 -15  18    9.40    4.62
 -18  18 -18   70.05    6.02
   0 -18 -18   72.64    8.31
  18   0 -18   72.74    8.06
 -18   0  18   65.18    7.51
  18 -18  18   75.34    8.00
  21  -3 -18    3.19    5.40
 -18  21 -18   -3.36    4.21
  -3 -18 -18    6.94    4.68
  18 -21  18   -0.40    5.37
 -21   3  18    2.11    4.83
 -18  24 -18   14.84    5.76
  -6 -18 -18   22.76    7.00
  18 -24  18   32.58    7.74
  -4  23 -18   -8.62    6.65
 -19  -4 -18    6.00    5.76
 -23  19  18   11.40    5.73
  19   4  18   10.39    6.05
 -19  -1 -18   -0.38    4.72
  -1  20 -18    2.06    4.60
 -20  19  18    3.86    4.53
  19   1  18    2.70    5.26
 -19   2 -18   -6.39    3.98
   2  17 -18   -3.65    4.00
  17 -19 -18    3.92    4.85
 -17  19  18   -1.94    3.92
  19  -2  18   13.24    5.15
   5  14 -18    0.76    3.19
  14 -19 -18    1.19    4.17
  19  -5  18    4.81    3.92
 -14  19  18    2.59    3.38
  11 -19 -18    1.28    4.12
   8  11 -18    8.13    3.83
  19  -8  18    8.01    4.85
  11   8 -18   -0.86    3.40
   8 -19 -18    7.94    4.21
  19 -11  18   -2.44    4.33
  14   5 -18   -0.82    3.57
   5 -19 -18    3.23    7.88
  19 -14  18    3.64    7.29
  17   2 -18   -2.49    4.02
   2 -19 -18   -3.21    4.80
  19 -17  18    5.57    4.84
  20  -1 -18    7.74    6.11
 -19  20 -18    8.73    4.32
  -1 -19 -18   -7.39    5.30
  19 -20  18    6.69    5.42
 -20   1  18    2.07    4.99
 -19  23 -18    3.63    4.80
  -4 -19 -18   12.23    6.32
  23  -4 -18    6.88    8.48
 -23   4  18   13.14    6.29
  19 -23  18    2.66    6.05
 -20  -2 -18   48.93    7.11
  -2  22 -18   47.30    6.33
  20   2  18   48.31    8.07
 -22  20  18   42.61    6.40
   1  19 -18    1.83    4.52
 -20   1 -18    1.98    4.01
  20  -1  18    2.06    4.96
 -19  20  18   -1.28    4.35
   4  16 -18   65.15    7.03
  20  -4  18   74.30    8.47
 -16  20  18   68.53    6.51
  13 -20 -18   -3.94    4.27
   7  13 -18   -3.69    3.90
 -13  20  18    0.63    4.40
  20  -7  18   -7.45    4.45
  10  10 -18   72.58    6.92
  20 -10  18   77.43    7.29
   7 -20 -18   -3.57    4.27
  13   7 -18    2.94    4.06
  20 -13  18   -4.02    3.98
  16   4 -18   42.19    5.86
   4 -20 -18   56.43    6.71
  20 -16  18   58.46    7.41
  19   1 -18   12.31    5.70
   1 -20 -18    6.97    4.91
 -19  -1  18   -2.12    5.12
  20 -19  18    0.59    5.05
 -20  22 -18   34.57    5.57
  22  -2 -18   34.93    7.15
  -2 -20 -18   27.90    7.40
 -22   2  18   33.86    6.27
  20 -22  18   28.75    6.73
   0  21 -18   16.02    5.48
 -21   0 -18    3.91    5.39
  21   0  18   10.04    6.47
 -21  21  18   -1.76    5.03
 -21   3 -18   -1.86    4.62
   3  18 -18    2.94    4.57
  18 -21 -18    0.87    5.58
  21  -3  18    1.22    5.38
 -18  21  18   -5.25    4.40
   6  15 -18    6.89    4.48
  15 -21 -18   -5.22    4.99
  21  -6  18    5.61    5.10
 -15  21  18   -2.63    3.93
  12 -21 -18    1.64    4.79
   9  12 -18   -5.50    3.63
  21  -9  18    6.89    5.11
  12   9 -18    2.23    4.60
   9 -21 -18    4.43    4.69
  21 -12  18    6.53    5.13
   6 -21 -18   -5.89    4.31
  15   6 -18   -1.07    4.26
  21 -15  18   11.75    5.55
   3 -21 -18    4.43    5.42
  18   3 -18   -4.74    4.58
 -18  -3  18    2.06    4.90
  21 -18  18    1.99    5.68
  21   0 -18    6.22    6.76
   0 -21 -18   11.04    6.25
  21 -21  18   -7.88    6.16
 -21   0  18   -3.42    5.26
   2  20 -18   46.29    6.33
 -22   2 -18   45.43    6.60
 -20  22  18   48.67    6.48
  22  -2  18   53.66    7.86
  17 -22 -18   -4.96    5.53
   5  17 -18    3.81    4.87
  22  -5  18   10.74    5.23
 -17  22  18   -0.46    4.46
   8  14 -18   56.07    6.35
  14 -22 -18   57.58    7.20
  22  -8  18   56.40    7.45
  11  11 -18    5.16    4.30
  11 -22 -18    3.47    5.21
  22 -11  18    3.36    4.84
  14   8 -18   45.73    6.68
   8 -22 -18   43.30    6.79
  22 -14  18   52.35    7.25
  17   5 -18   -0.94    4.71
   5 -22 -18    9.01    5.61
  22 -17  18    2.34    5.35
  20   2 -18   11.18    6.86
   2 -22 -18   15.39    6.40
  22 -20  18   31.68    7.45
 -20  -2  18   15.88    6.17
 -23   4 -18    2.60    5.51
   4  19 -18   -3.63    5.37
  19 -23 -18   -4.18    6.06
  23  -4  18   12.61    6.67
 -19  23  18    6.23    5.34
   7  16 -18   -2.28    5.01
  16 -23 -18    1.85    5.70
  23  -7  18   -1.55    5.84
  13 -23 -18   -4.63    5.48
  10  13 -18   -2.68    4.70
  23 -10  18    7.02    5.92
  13  10 -18   -5.61    4.29
  10 -23 -18   -5.90    5.50
  23 -13  18    0.81    5.09
   7 -23 -18   -7.04    5.74
  16   7 -18   -7.39    5.42
  23 -16  18    5.98    5.50
   4 -23 -18    0.30    6.06
  19   4 -18    8.60    5.67
 -19  -4  18   -0.53    5.52
  23 -19  18   10.61    6.70
  18 -24 -18   29.17    7.25
  24  -6  18   31.62    7.65
  15 -24 -18   10.64    6.29
   9  15 -18   15.74    5.77
  24  -9  18    6.93    6.23
  12  12 -18   36.45    6.36
  12 -24 -18   38.45    7.30
  24 -12  18   46.52    7.87
   9 -24 -18    4.91    5.41
  15   9 -18   10.16    6.15
  24 -15  18   11.76    6.04
   6 -24 -18   42.28    7.83
  24 -18  18   57.46    7.99
  17 -25 -18   -8.16    6.98
  25  -8  18    4.09    6.81
  14 -25 -18   -0.46    6.45
  25 -11  18   13.13    6.81
  11 -25 -18    2.31    6.27
  25 -14  18   19.26    6.96
   8 -25 -18   -1.96    6.70
  25 -17  18    7.42    7.06
   1  -1 -19    3.11    1.39
  -1   0 -19   -0.34    1.43
   1  -1 -19    0.28    1.33
   0   1 -19   -1.66    1.32
   0   1 -19    1.94    1.35
  -1   0 -19   -0.06    1.26
   0  -1  19    0.65    2.39
  -1   1  19    5.70    2.76
   1   0  19   -2.46    2.42
  -1   3 -19    1.66    1.40
  -2  -1 -19    1.49    1.64
   3  -2 -19    1.94    1.62
  -2  -1 -19    2.50    1.32
  -3   2  19    2.58    2.44
   1  -3  19    0.85    1.41
   2   1  19    3.61    2.49
   1  -3  19    1.00    2.76
   2   1  19   -1.55    1.58
  -2   2 -19    3.64    1.48
   2   0 -19    4.57    1.59
   0  -2 -19    5.17    1.54
  -2   2 -19    2.59    1.36
   0  -2 -19    3.62    1.59
   2  -2  19    0.63    2.56
  -2   0  19   -0.83    2.52
   0   2  19    0.98    2.68
   2  -2  19    2.66    1.51
  -3  -2 -19    4.30    1.85
  -2   5 -19    5.38    1.87
  -5   3  19    9.05    2.44
   3   2  19    9.94    2.08
   2  -5  19    4.26    3.05
  -3   1 -19   12.49    2.05
  -3   1 -19   16.01    1.81
   1   2 -19   17.26    2.22
   2  -3 -19   16.25    2.00
   2  -3 -19   15.12    2.10
   3  -1  19   20.54    2.58
  -2   3  19   18.57    3.35
   3  -1  19   14.67    3.46
  -2   3  19   16.00    2.00
  -1  -2  19   22.98    3.66
  -1  -3 -19   28.75    2.81
  -3   4 -19   25.57    2.34
   3  -4  19   25.12    3.84
   3  -4  19   27.23    2.72
  -4   1  19   24.38    3.40
   1   3  19   29.78    3.95
  -3   7 -19   11.61    2.05
   7  -4 -19   12.15    2.53
  -4  -3 -19   12.95    2.95
  -7   4  19   16.30    3.32
   3  -7  19   12.53    3.82
   4   3  19   16.11    3.23
  -7   4  19   12.52    2.43
  -4   0 -19    0.04    1.56
   4  -4 -19    3.48    1.52
   0   4 -19   -1.43    1.44
   4  -4 -19    3.05    1.72
   4   0  19    2.22    2.83
  -4   4  19    1.19    1.65
   0  -4  19    1.43    2.87
   4   0  19    4.52    1.83
  -4   4  19   -3.32    2.22
   3   1 -19    4.63    1.74
  -4   3 -19    3.08    1.34
   1  -4 -19    2.07    1.55
   1  -4 -19    3.24    1.62
  -3  -1  19    0.98    2.74
   4  -3  19    6.93    1.82
  -1   4  19    1.57    2.66
   4  -3  19    2.50    2.97
  -1   4  19    3.46    1.42
  -2  -4 -19    3.97    1.94
   6  -2 -19    1.96    1.92
  -4   6 -19    3.57    1.53
  -6   2  19   -0.57    2.39
   4  -6  19   -0.79    1.69
   4  -6  19   -2.58    3.10
   9  -5 -19   -1.94    1.91
  -4   9 -19   -0.91    1.76
  -5  -4 -19    5.06    2.20
  -9   5  19   -1.18    2.50
  -9   5  19    1.29    2.25
   5   4  19   -0.59    1.92
   4  -9  19   -1.40    3.46
   6  -5 -19   29.72    3.42
  -5  -1 -19   34.11    3.21
  -1   6 -19   34.99    3.04
   5   1  19   30.76    3.50
  -6   5  19   36.09    3.28
   1  -6  19   45.56    5.38
  -6   5  19   39.77    4.61
  -5   2 -19    2.61    1.24
   3  -5 -19   -2.78    1.66
   3  -5 -19   -1.07    1.54
  -5   2 -19    2.18    1.60
   5  -2  19    2.97    1.85
  -3   5  19    1.94    1.50
  -2  -3  19   -0.39    2.27
  -3   5  19    5.19    2.64
   5  -2  19   -2.78    2.79
  -5   5 -19    3.16    1.43
   5   0 -19    3.26    1.64
   0  -5 -19    4.19    1.78
  -5   0  19    3.72    2.40
   5  -5  19    1.75    1.83
   5  -5  19    8.04    3.07
   0   5  19   -2.13    2.77
   8  -3 -19   20.68    3.07
  -5   8 -19   14.49    2.23
  -8   3  19   14.74    3.32
   5  -8  19   20.05    4.10
   5  -8  19   16.76    2.49
  -6  -5 -19    4.38    2.47
  -5  11 -19    0.70    1.76
  11  -6 -19   -0.49    2.60
   5 -11  19   -0.54    4.36
 -11   6  19   -3.25    2.56
 -11   6  19    2.38    2.12
   6   5  19   -5.75    2.31
  -2   8 -19    0.47    1.80
  -6  -2 -19    1.06    1.95
   8  -6 -19   -0.34    2.18
  -8   6  19    4.36    2.05
   2  -8  19   -0.14    3.36
   6   2  19   -1.54    2.18
   1   5 -19    3.28    1.79
   5  -6 -19    5.83    2.01
   5  -6 -19    3.81    1.71
  -6   1 -19    6.47    1.93
  -1  -5  19   12.82    3.37
   6  -1  19    5.62    2.14
  -5   6  19    4.84    1.80
  -5   6  19    3.12    2.79
   2  -6 -19   18.64    2.44
  -6   4 -19   16.98    2.03
   4   2 -19   21.77    2.66
   6  -4  19   17.73    3.72
   6  -4  19   17.98    2.54
  -2   6  19   17.69    2.20
  -4  -2  19   16.66    3.36
  -2   6  19   18.14    3.16
  -6   7 -19    0.84    1.51
  -1  -6 -19    0.77    2.03
   7  -1 -19    0.80    1.89
   6  -7  19   -0.43    1.77
   6  -7  19    0.56    3.46
  -7   1  19   -1.90    2.48
  -4  -6 -19    2.28    2.33
  10  -4 -19    2.68    2.29
  -6  10 -19    0.32    1.83
   6 -10  19    8.01    4.32
 -10   4  19    4.29    2.72
   6 -10  19    5.23    2.22
 -10   4  19    2.04    2.27
  -6  13 -19    2.63    2.09
  13  -7 -19    4.14    3.30
  -7  -6 -19    2.73    2.73
 -13   7  19    7.42    2.61
   6 -13  19    4.91    5.28
 -13   7  19    4.19    2.87
  -7  -3 -19   29.48    3.43
  10  -7 -19   32.90    3.93
  -3  10 -19   26.47    2.93
 -10   7  19   32.67    4.06
   7   3  19   35.11    4.26
 -10   7  19   32.55    3.41
   3 -10  19   27.87    4.70
   7  -7 -19   -0.30    1.70
   7  -7 -19    0.20    2.54
   0   7 -19    2.45    1.60
  -7   7  19    1.83    2.17
  -7   7  19   -0.01    2.86
   0  -7  19    1.48    3.24
   3   4 -19   10.43    2.15
   4  -7 -19    7.39    2.20
  -4   7  19   12.25    1.90
  -4   7  19   17.24    3.42
   7  -3  19   13.04    2.57
   1  -7 -19   20.50    2.71
   6   1 -19   16.77    2.53
  -7   6 -19   18.43    2.08
  -1   7  19   14.67    3.88
   7  -6  19   17.18    2.55
  -6  -1  19   18.64    3.14
  -2  -7 -19   -0.88    2.15
  -7   9 -19    0.95    1.76
   9  -2 -19    2.76    2.09
   7  -9  19    4.78    4.35
  -9   2  19   -0.75    2.40
   7  -9  19    2.67    2.12
  12  -5 -19   29.51    4.15
  -5  -7 -19   24.60    3.43
  -7  12 -19   27.86    3.14
 -12   5  19   26.03    3.72
 -12   5  19   20.72    3.43
   7 -12  19   22.94    3.23
  -8  -7 -19    3.78    3.14
  -7  15 -19    2.12    2.76
  15  -8 -19   -1.16    3.02
 -15   8  19   -0.66    3.10
 -15   8  19   -3.82    2.72
  -4  12 -19    3.79    2.01
  -8  -4 -19   -1.33    2.17
  12  -8 -19    5.69    2.97
 -12   8  19    3.99    2.81
   8   4  19    2.19    2.80
 -12   8  19    6.89    2.46
   4 -12  19    5.16    4.11
  -8  -1 -19   -3.50    1.82
  -1   9 -19    1.61    2.00
   9  -8 -19   -0.85    2.07
  -9   8  19   -0.15    2.06
   1  -9  19   -0.61    3.52
  -9   8  19    1.39    2.79
   8   1  19    3.20    2.60
   2   6 -19    1.56    1.90
   6  -8 -19    1.75    1.83
  -6   8  19   -1.50    2.87
  -2  -6  19    3.47    3.25
  -6   8  19   -0.29    1.61
  -8   5 -19    2.73    1.41
   3  -8 -19    5.72    1.95
   5   3 -19    3.43    1.95
   8  -5  19    4.61    2.20
  -5  -3  19    4.13    2.71
  -3   8  19    3.68    2.86
  -8   8 -19    1.84    2.14
   0  -8 -19    2.67    2.13
   8   0 -19    9.59    2.47
   8  -8  19    7.84    2.25
  -8   0  19    3.39    2.74
  -3  -8 -19    3.99    2.52
  11  -3 -19    3.26    2.45
  -8  11 -19    2.88    2.01
 -11   3  19    1.06    2.61
   8 -11  19    3.96    2.47
 -11   3  19    0.71    2.64
  14  -6 -19    5.05    3.29
  -6  -8 -19    0.08    2.91
  -8  14 -19    4.47    2.24
 -14   6  19    6.85    2.94
 -14   6  19    1.21    3.05
  -9  -8 -19   -0.06    3.54
  -8  17 -19    1.77    3.04
 -17   9  19   -5.48    2.93
  -9  -5 -19   27.69    4.00
  -5  14 -19   37.74    4.21
   9   5  19   28.27    4.24
 -14   9  19   30.59    4.27
 -14   9  19   26.65    3.72
   5 -14  19   27.10    6.31
  -9  -2 -19    1.40    2.52
  -2  11 -19   -1.79    2.13
 -11   9  19    0.57    3.00
   9   2  19    0.46    2.66
 -11   9  19   -1.27    1.93
   2 -11  19    7.01    3.81
  -9   1 -19   20.68    3.07
   1   8 -19   19.59    2.85
   8  -9 -19   24.42    3.20
  -1  -8  19   16.15    3.82
   9  -1  19   23.17    3.23
  -8   9  19   23.23    2.79
  -8   9  19   26.16    3.97
   4   5 -19    6.05    2.21
   5  -9 -19    3.11    2.11
   9  -4  19    7.18    2.40
  -4  -5  19    5.22    3.10
  -5   9  19    3.81    1.78
  -5   9  19    4.27    3.10
  -9   7 -19    7.58    1.81
   2  -9 -19    7.87    2.37
   7   2 -19    9.17    2.52
  -7  -2  19    9.07    3.03
   9  -7  19    4.14    2.36
  -9  10 -19   16.31    2.29
  10  -1 -19   11.64    3.01
  -1  -9 -19   13.64    2.79
 -10   1  19    5.99    2.79
   9 -10  19    9.97    2.74
  -9  13 -19    6.26    2.38
  -4  -9 -19    1.94    2.84
  13  -4 -19    6.77    2.85
   9 -13  19    6.72    2.75
 -13   4  19    4.85    2.79
 -13   4  19    5.31    2.66
  16  -7 -19   39.77    5.32
  -9  16 -19   28.35    3.95
  -7  -9 -19   27.86    4.75
 -16   7  19   39.76    4.78
 -10  -9 -19    1.11    3.55
  -9  19 -19    2.95    3.63
 -19  10  19    1.52    3.99
  -6  16 -19    2.68    2.85
 -10  -6 -19    0.54    3.19
  10   6  19    0.95    3.54
 -16  10  19   -1.81    2.81
 -10  -3 -19    2.00    2.81
  -3  13 -19   -2.93    2.07
   3 -13  19    4.79    4.72
 -13  10  19    0.35    2.26
 -13  10  19    0.01    3.24
  10   3  19   -1.88    3.17
   0  10 -19    4.37    2.23
  10 -10 -19    1.13    2.31
 -10   0 -19    6.78    2.48
 -10  10  19    4.08    2.07
  10   0  19    4.82    2.72
   0 -10  19    2.47    3.90
 -10  10  19    5.30    3.20
   7 -10 -19   10.60    2.46
   3   7 -19    9.03    2.40
  -7  10  19    4.55    2.00
  -3  -7  19    7.32    3.43
  10  -3  19    9.97    2.69
  -7  10  19   -1.49    2.87
   6   4 -19    0.69    1.98
   4 -10 -19    5.39    2.49
  10  -6  19   -0.33    2.16
  -6  -4  19    1.78    2.67
   1 -10 -19    5.98    2.71
 -10   9 -19   10.86    2.38
   9   1 -19    5.61    2.47
  10  -9  19    6.14    2.61
  -9  -1  19    6.48    2.97
  12  -2 -19   -1.45    2.45
 -10  12 -19    3.02    2.05
  -2 -10 -19    6.70    2.85
  10 -12  19    7.33    2.88
 -12   2  19   -0.84    2.49
  -5 -10 -19    9.91    3.43
 -10  15 -19    8.40    2.59
  15  -5 -19    5.48    4.01
  10 -15  19    6.89    3.21
 -15   5  19    7.38    3.20
 -15   5  19    8.09    3.60
  -8 -10 -19    3.56    3.53
  18  -8 -19   -1.36    4.52
 -18   8  19    3.29    3.79
 -11 -10 -19   -2.22    4.58
 -10  21 -19    1.43    4.11
 -21  11  19    0.52    4.73
  -7  18 -19   35.30    4.89
 -11  -7 -19   30.71    5.36
 -18  11  19   32.70    5.01
 -11  -4 -19    3.34    2.90
  -4  15 -19    6.95    2.70
  11   4  19   -5.37    3.35
   4 -15  19    0.50    5.37
 -15  11  19    5.08    2.96
 -15  11  19    6.10    3.76
 -11  -1 -19   20.82    3.56
  -1  12 -19   19.02    3.08
   1 -12  19   23.67    4.64
 -12  11  19   22.09    4.02
  11   1  19   14.73    3.30
 -12  11  19   19.03    3.37
   2   9 -19    0.11    2.00
   9 -11 -19   -1.54    2.16
  11  -2  19    1.26    2.58
  -9  11  19   -0.80    1.94
  -9  11  19    2.72    3.03
  -2  -9  19   -1.32    3.38
   6 -11 -19   19.70    2.97
   5   6 -19   22.29    3.32
  -5  -6  19   24.04    4.02
  -6  11  19   24.73    2.74
  11  -5  19   28.75    3.80
  -6  11  19   23.11    4.27
   3 -11 -19   11.73    2.90
   8   3 -19   15.03    3.23
 -11   8 -19   20.97    2.41
  11  -8  19   15.00    2.95
  -8  -3  19   11.95    3.37
 -11  11 -19   18.38    2.62
  11   0 -19   12.10    2.98
   0 -11 -19   15.48    3.33
  11 -11  19   18.96    3.30
 -11   0  19   13.28    3.23
 -11  14 -19   25.42    3.33
  -3 -11 -19   24.48    3.82
  14  -3 -19   30.70    4.33
 -14   3  19   25.78    3.55
 -14   3  19   24.46    4.04
  11 -14  19   38.47    4.93
  -6 -11 -19    8.83    3.92
 -11  17 -19    6.99    3.12
  17  -6 -19    4.86    5.53
 -17   6  19    8.75    5.07
  11 -17  19    4.63    4.97
  -9 -11 -19   27.89    5.05
 -11  20 -19   35.61    4.57
 -20   9  19   36.77    5.21
 -12 -11 -19    0.99    5.32
 -11  23 -19    4.41    4.84
 -23  12  19   10.26    4.75
 -12  -8 -19    1.20    4.25
  -8  20 -19   10.98    3.77
 -20  12  19   -0.66    4.12
  -5  17 -19    2.12    4.02
 -12  -5 -19    3.51    3.14
  12   5  19    1.90    3.55
 -17  12  19   -3.05    3.29
   5 -17  19   27.74    7.16
  -2  14 -19   -1.92    2.70
 -12  -2 -19    1.14    2.78
 -14  12  19    4.85    2.93
  12   2  19    0.33    2.84
   2 -14  19    8.83    5.10
 -14  12  19    2.03    3.59
   1  11 -19    5.75    2.33
 -12   1 -19    7.22    2.80
  11 -12 -19   11.70    2.97
 -11  12  19    2.73    2.38
  -1 -11  19   10.32    4.44
 -11  12  19    6.27    3.63
  12  -1  19    9.43    2.91
   8 -12 -19    2.06    2.69
   4   8 -19   -0.27    2.34
  -8  12  19    2.34    2.04
  -8  12  19   -1.24    3.81
  -4  -8  19   -0.15    3.46
  12  -4  19   -5.24    2.49
   5 -12 -19    7.04    2.74
   7   5 -19    6.75    2.65
  -7  -5  19   10.57    3.06
  12  -7  19    8.62    2.78
   2 -12 -19    0.38    2.29
 -12  10 -19   -0.44    1.92
  10   2 -19   -1.23    2.30
 -10  -2  19    1.56    2.80
  12 -10  19   -4.39    2.61
 -12  13 -19    6.71    2.45
  -1 -12 -19    3.99    3.21
  13  -1 -19    3.85    2.92
 -13   1  19    5.89    2.84
  12 -13  19    7.85    3.17
 -12  16 -19    1.38    2.66
  -4 -12 -19   -1.45    3.51
  16  -4 -19    7.47    4.17
 -16   4  19    1.74    3.23
  12 -16  19   -1.36    3.32
  19  -7 -19   22.10    5.63
  -7 -12 -19    8.85    4.61
 -12  19 -19   16.04    3.62
 -19   7  19   18.50    4.73
 -12  22 -19   -3.70    3.59
 -10 -12 -19    5.41    5.23
 -22  10  19    2.75    4.68
 -13 -12 -19    2.47    6.55
  -9  22 -19   34.73    5.32
 -13  -9 -19   38.02    6.35
 -22  13  19   40.27    6.22
  -6  19 -19    5.16    3.37
 -13  -6 -19    7.63    4.31
 -19  13  19   14.85    4.60
  13   6  19   15.78    4.92
  -3  16 -19   38.17    6.71
 -13  -3 -19   54.70    5.25
  13   3  19   45.34    5.70
 -16  13  19   41.18    4.93
   3 -16  19   41.18    6.83
   0  13 -19    0.57    2.80
 -13   0 -19    2.22    2.97
 -13  13  19   -8.81    3.43
 -13  13  19   -0.76    2.29
  13   0  19   -2.01    3.15
   0 -13  19   -2.56    4.42
   3  10 -19   31.13    3.75
  10 -13 -19   22.42    3.55
  13  -3  19   30.43    4.41
 -10  13  19   29.14    4.86
 -10  13  19   32.07    3.84
  -3 -10  19   30.14    4.75
   6   7 -19    2.79    2.34
   7 -13 -19    3.95    2.84
  -7  13  19    3.37    2.62
  13  -6  19    4.63    3.08
  -6  -7  19   -0.64    3.11
   9   4 -19   20.79    3.46
   4 -13 -19   28.01    4.11
  13  -9  19   21.69    3.67
  -9  -4  19   24.21    3.82
   1 -13 -19   18.29    3.70
  12   1 -19   17.43    3.49
 -13  12 -19   13.26    2.69
 -12  -1  19   10.86    3.12
  13 -12  19   17.62    3.61
  -2 -13 -19   -1.53    3.44
  15  -2 -19   11.33    3.65
 -13  15 -19    3.31    2.61
  13 -15  19    3.42    3.45
 -15   2  19    0.71    3.29
  18  -5 -19   25.65    5.16
 -18   5  19   31.67    4.83
  13 -18  19   27.48    4.74
 -13  21 -19    0.39    3.84
  -8 -13 -19    2.57    4.43
 -21   8  19   -0.34    4.56
 -11 -13 -19   22.07    6.68
 -13  24 -19   24.93    5.61
 -24  11  19   19.42    7.55
 -14 -10 -19    6.09    5.32
 -10  24 -19    3.07    5.64
 -24  14  19    9.94    5.59
  -7  21 -19   -2.62    4.10
 -14  -7 -19    5.31    4.92
 -21  14  19   10.75    4.35
 -14  -4 -19    6.49    3.78
  -4  18 -19   15.74    3.70
  14   4  19    0.94    3.94
 -18  14  19    7.87    3.46
 -14  -1 -19    0.36    2.95
  -1  15 -19    5.36    3.17
 -15  14  19    1.20    2.79
   1 -15  19   -0.33    5.47
 -15  14  19    2.19    4.29
  14   1  19    4.65    3.77
   2  12 -19   -1.18    2.51
  12 -14 -19    3.17    3.05
  14  -2  19   -3.77    2.78
 -12  14  19    0.93    2.66
  -2 -12  19   -3.68    4.39
 -12  14  19    1.88    4.14
   9 -14 -19    8.96    3.16
   5   9 -19   10.97    3.20
  14  -5  19    8.11    3.38
  -5  -9  19    8.08    3.82
  -9  14  19    6.40    2.49
   8   6 -19    0.86    2.32
   6 -14 -19    4.02    3.03
  -8  -6  19    1.52    3.21
  14  -8  19   -5.64    2.55
  11   3 -19    6.35    2.93
   3 -14 -19   -0.31    2.76
  14 -11  19   -1.34    3.07
 -11  -3  19    8.40    3.10
 -14  14 -19    0.17    2.45
   0 -14 -19    4.46    3.13
  14   0 -19    4.42    3.46
  14 -14  19    1.56    3.38
 -14  17 -19    7.66    2.84
  -3 -14 -19    1.92    3.52
  17  -3 -19    2.55    3.88
  14 -17  19    6.94    3.91
 -17   3  19    0.60    3.55
  20  -6 -19   -4.90    5.30
 -14  20 -19    3.43    3.77
  -6 -14 -19    2.47    4.63
 -20   6  19   -0.05    4.55
 -14  23 -19    0.91    4.32
  -9 -14 -19    0.02    5.69
 -23   9  19   13.24    5.00
  -8  23 -19    5.52    4.45
 -15  -8 -19    1.31    5.61
 -23  15  19   12.92    4.81
 -15  -5 -19   37.79    5.61
  -5  20 -19   39.88    5.19
  15   5  19   33.58    5.93
 -20  15  19   37.06    5.57
  -2  17 -19   -0.29    3.49
 -17  15  19   -5.34    3.54
   1  14 -19   56.13    7.25
  14 -15 -19   42.86    5.61
 -15   1 -19   54.47    5.17
  15  -1  19   61.07    5.92
 -14  15  19   62.25    5.34
 -14  15  19   52.93    5.97
  11 -15 -19    3.73    3.34
   4  11 -19    6.39    2.71
  -4 -11  19    5.07    4.23
  15  -4  19    1.59    3.29
 -11  15  19    4.62    2.84
   7   8 -19   34.03    4.21
   8 -15 -19   30.67    4.27
  -7  -8  19   25.32    4.36
  15  -7  19   25.07    4.56
   5 -15 -19    3.73    3.33
  10   5 -19    5.18    2.94
  15 -10  19    5.96    3.01
 -10  -5  19    4.22    3.57
   2 -15 -19   13.89    4.04
 -15  13 -19   15.65    2.93
  13   2 -19   10.80    3.51
  15 -13  19    6.25    3.72
  16  -1 -19    6.20    4.24
 -15  16 -19   10.50    3.21
  -1 -15 -19   19.59    4.26
 -16   1  19   14.20    4.52
  15 -16  19   14.16    4.39
 -15  19 -19   10.01    3.69
  19  -4 -19    3.67    4.79
  -4 -15 -19   -0.17    4.17
  15 -19  19   -1.87    4.42
 -19   4  19    6.13    4.21
  -7 -15 -19   20.57    5.47
 -15  22 -19   22.91    4.64
 -22   7  19   23.12    5.66
  -6  22 -19    2.58    4.91
 -16  -6 -19   -1.19    5.16
 -22  16  19   -1.30    4.80
  -3  19 -19    0.02    3.61
 -16  -3 -19    0.34    4.10
  16   3  19    2.23    4.91
 -19  16  19   -0.31    4.30
   0  16 -19   -6.96    2.95
   3  13 -19    0.91    5.59
  13 -16 -19    2.83    3.61
 -13  16  19    0.63    3.17
  16  -3  19   -0.83    3.77
   6  10 -19    3.74    2.89
  10 -16 -19    8.51    3.40
 -10  16  19    8.88    2.92
  16  -6  19    2.74    3.54
   9   7 -19   12.92    3.29
   7 -16 -19   13.20    3.91
  16  -9  19   15.47    4.20
  12   4 -19    1.27    4.47
   4 -16 -19    6.11    3.62
  16 -12  19    0.61    3.61
 -16  15 -19    7.57    3.11
  15   1 -19   16.57    4.29
   1 -16 -19   10.06    4.41
  16 -15  19   14.15    4.41
  -2 -16 -19   -0.16    3.78
 -16  18 -19   -1.70    3.34
  18  -2 -19    7.36    5.21
  16 -18  19    4.37    4.52
 -18   2  19   -2.54    4.30
  21  -5 -19   22.17    6.74
 -16  21 -19   12.01    4.51
  -5 -16 -19   14.34    5.82
 -21   5  19   -1.12    5.00
  16 -21  19    3.59    5.16
 -16  24 -19   -3.05    5.48
  -8 -16 -19    2.03    5.82
 -17  -7 -19   28.43    6.06
 -17  -4 -19    4.30    5.06
  -4  21 -19    3.67    3.90
  17   4  19   13.88    5.87
 -21  17  19    1.25    4.84
  -1  18 -19   39.56    5.40
 -17  -1 -19   32.16    5.64
  17   1  19   33.68    6.06
 -18  17  19   35.39    4.90
   2  15 -19   -4.32    3.51
  15 -17 -19    3.08    3.99
 -15  17  19   -3.98    3.27
  12 -17 -19   29.34    4.84
   5  12 -19   28.69    4.22
 -12  17  19   24.39    3.82
  17  -5  19   24.09    4.49
   9 -17 -19   -0.84    3.62
   8   9 -19   -1.14    4.15
  17  -8  19    4.89    4.33
  11   6 -19   20.72    3.93
   6 -17 -19   17.13    3.93
  17 -11  19   19.41    4.56
  14   3 -19   13.36    4.12
   3 -17 -19   12.32    4.06
  17 -14  19   20.69    4.88
 -17  17 -19    0.21    3.37
   0 -17 -19    5.39    4.59
  17   0 -19   -3.55    4.48
  17 -17  19    0.72    4.41
 -17   0  19   -4.10    4.38
 -17  20 -19   17.25    4.43
  -3 -17 -19   15.41    5.61
  20  -3 -19   15.20    6.14
 -20   3  19   22.00    5.66
  17 -20  19   13.00    5.53
  23  -6 -19   -3.19    6.27
 -17  23 -19    6.37    4.94
  -6 -17 -19   -0.75    5.92
 -23   6  19   -2.49    4.86
 -18  -5 -19    9.40    5.57
  18   5  19   -7.22    5.18
 -23  18  19   -9.82    5.77
  -2  20 -19   -0.52    4.11
 -18  -2 -19    6.57    5.00
  18   2  19    5.64    5.50
 -20  18  19    8.46    4.68
 -18   1 -19    6.58    3.89
   1  17 -19    9.92    4.26
  18  -1  19    1.43    4.36
 -17  18  19   12.04    4.26
  14 -18 -19   -0.60    4.33
   4  14 -19   -5.39    3.49
 -14  18  19   -4.22    3.36
  18  -4  19   -2.45    4.25
   7  11 -19    5.74    3.35
  11 -18 -19    1.09    3.98
  18  -7  19   -1.02    3.65
  10   8 -19   -5.50    3.21
   8 -18 -19   -1.65    3.70
  18 -10  19    2.86    4.13
  13   5 -19   17.84    4.28
   5 -18 -19    8.23    3.98
  18 -13  19    7.67    4.74
   2 -18 -19   -1.70    4.54
  16   2 -19    1.24    3.93
  -1 -18 -19   20.72    5.92
  19  -1 -19   11.53    5.28
 -18  19 -19   12.73    4.14
  18 -19  19   13.69    5.79
 -19   1  19    8.68    4.77
 -18  22 -19   -2.66    4.49
  -4 -18 -19    2.04    5.75
  22  -4 -19    5.32    6.69
  18 -22  19   -1.40    5.71
 -22   4  19   -6.75    5.56
 -19  -3 -19   19.06    6.40
  -3  22 -19   20.01    5.91
  19   3  19   33.05    7.44
 -22  19  19   32.01    6.15
   0  19 -19    7.64    4.60
 -19   0 -19   -0.61    4.38
 -19  19  19    3.49    4.43
  19   0  19   -3.37    4.92
  16 -19 -19   27.92    5.55
   3  16 -19   32.30    4.97
 -16  19  19   29.27    4.91
  19  -3  19   40.17    6.31
   6  13 -19   -1.92    3.80
  13 -19 -19    9.63    4.64
 -13  19  19    1.44    4.30
  19  -6  19    2.66    4.54
   9  10 -19    7.87    4.17
  10 -19 -19   12.79    4.68
  19  -9  19   12.05    5.88
  12   7 -19   10.81    3.92
  19 -12  19   13.40    8.18
  15   4 -19   10.68    4.47
   4 -19 -19   11.71    4.52
  19 -15  19    6.27    4.92
  18   1 -19   14.73    5.76
   1 -19 -19    9.73    5.55
  19 -18  19   19.20    5.72
 -18  -1  19   16.18    5.43
  21  -2 -19    9.42    6.00
  -2 -19 -19    6.22    6.54
 -19  21 -19    8.40    4.63
 -21   2  19    5.90    5.47
  19 -21  19   13.78    6.09
 -20  -1 -19   16.00    5.94
  -1  21 -19   17.18    4.89
  20   1  19   -0.45    6.08
 -21  20  19   19.11    5.43
   2  18 -19   -3.05    4.08
 -20   2 -19   -6.01    3.74
 -18  20  19   -1.63    4.30
  20  -2  19   -7.07    4.75
  15 -20 -19   10.24    5.05
   5  15 -19   11.38    4.56
 -15  20  19    5.20    4.04
  20  -5  19   14.36    4.93
   8  12 -19    5.01    3.88
  12 -20 -19   -2.64    6.02
  20  -8  19   -2.99    4.78
  11   9 -19   14.88    4.81
   9 -20 -19    9.55    4.94
  20 -11  19   13.19    4.82
   6 -20 -19    2.36    4.95
  14   6 -19   -0.11    3.95
  20 -14  19    2.06    5.13
   3 -20 -19   10.13    5.80
  17   3 -19   15.32    5.03
  20 -17  19   16.55    5.69
  20   0 -19   -2.04    5.72
   0 -20 -19   -0.32    5.69
 -20   0  19   -6.78    5.08
  20 -20  19   -0.24    5.96
 -20  23 -19   14.09    8.45
  -3 -20 -19   10.96    6.98
  20 -23  19   18.32    6.99
   1  20 -19   32.94    6.28
 -21   1 -19   31.82    6.55
  21  -1  19   24.01    7.07
 -20  21  19   35.27    5.90
  17 -21 -19   15.09    5.82
   4  17 -19    8.66    4.95
  21  -4  19   -0.60    5.63
 -17  21  19    1.22    4.44
   7  14 -19   16.50    5.11
  14 -21 -19   14.83    5.61
  21  -7  19   22.82    5.30
  10  11 -19    1.29    4.11
  11 -21 -19   -0.85    4.80
  21 -10  19    0.25    5.24
  13   8 -19    7.31    4.35
   8 -21 -19   19.11    5.21
  21 -13  19    2.16    5.39
  16   5 -19    5.52    5.11
   5 -21 -19   13.78    5.40
  21 -16  19   10.95    5.80
  19   2 -19   -4.64    5.91
   2 -21 -19   -3.98    5.84
  21 -19  19   27.49    6.65
 -19  -2  19   10.83    5.80
  -1 -21 -19   12.47    7.03
  21 -22  19   11.49    7.14
 -22   3 -19    4.85    4.77
   3  19 -19    4.11    5.46
  22  -3  19   13.96    5.87
 -19  22  19    9.23    5.28
   6  16 -19   -1.89    4.33
  16 -22 -19    0.62    5.66
  22  -6  19   -5.18    5.81
   9  13 -19   15.01    4.99
  13 -22 -19    8.05    5.58
  22  -9  19   14.61    5.98
  12  10 -19  -13.18    4.84
  10 -22 -19   -5.24    5.35
  22 -12  19    4.77    5.01
  15   7 -19    3.25    4.73
   7 -22 -19   13.64    6.25
  22 -15  19    0.69    5.99
  18   4 -19   -0.80    5.86
   4 -22 -19   16.26    6.04
  22 -18  19   -9.05    6.06
   1 -22 -19    9.70    6.69
  22 -21  19   23.12    7.46
  18 -23 -19   25.47    6.99
 -23   5 -19   23.19    6.20
  23  -5  19   33.55    7.14
  15 -23 -19    2.99    6.01
   8  15 -19    2.92    4.63
  23  -8  19    6.10    6.20
  11  12 -19   18.37    6.00
  12 -23 -19   29.89    7.07
  23 -11  19   15.01    6.43
  14   9 -19    1.26    5.00
   9 -23 -19    8.96    5.93
  23 -14  19    1.56    6.45
  17   6 -19   12.93    6.52
   6 -23 -19   14.19    6.32
  23 -17  19    3.36    5.84
   3 -23 -19   17.65    7.01
  23 -20  19    1.90    7.01
  17 -24 -19   -8.30    6.57
  24  -7  19   -0.26    5.95
  14 -24 -19    5.22    6.35
  10  14 -19    4.29    7.11
  24 -10  19   -8.84    6.18
  11 -24 -19   17.44    5.86
  13  11 -19    1.24    5.37
  24 -13  19    7.83    6.78
   8 -24 -19    2.44    6.45
  24 -16  19   -4.22    6.77
  13 -25 -19   -3.18    6.87
  25 -12  19    4.64    6.95
   1   0 -20    3.40    1.52
   0  -1 -20   -0.79    1.55
  -1   1 -20    1.67    1.48
  -1   1 -20    1.16    1.52
   1  -1  20   -0.61    2.87
  -1   0  20   -0.59    2.77
   0   1  20   -2.94    2.64
   2  -2 -20  178.64    6.89
   2  -2 -20  182.59    6.50
  -2   0 -20  192.42    6.50
  -2   0 -20  189.76    5.97
   0   2 -20  191.89    6.52
   2   0  20  192.63    8.79
  -2   2  20  180.10    8.44
   2   0  20  183.15    6.54
   0  -2  20  196.96    8.82
   3  -1 -20    2.22    1.71
  -2   3 -20    7.06    1.64
  -1  -2 -20    5.92    1.61
  -1  -2 -20    4.85    1.85
  -2   3 -20    4.12    1.47
   2  -3  20    5.13    3.18
  -3   1  20    1.31    2.53
   2  -3  20    4.81    1.73
   1   2  20    0.40    3.05
   4  -3 -20    6.63    2.02
  -3  -1 -20    6.34    1.98
  -1   4 -20    4.23    1.76
   1  -4  20    5.05    2.95
  -4   3  20    3.33    2.65
   3   1  20    7.38    3.44
   3   1  20    7.38    2.04
   1  -3 -20   -1.03    1.61
  -3   2 -20   -0.64    1.54
   1  -3 -20    0.51    1.58
   2   1 -20    1.03    1.94
  -2  -1  20    3.25    3.00
  -1   3  20    3.74    2.73
   3  -2  20    0.10    1.59
  -1   3  20    1.37    1.48
   3  -2  20   -4.99    2.97
   5  -2 -20    0.28    2.04
  -3   5 -20   -1.74    1.49
  -2  -3 -20   -2.27    1.73
  -5   2  20   -3.64    2.55
   3  -5  20    6.07    3.00
   6  -4 -20  170.39    7.03
  -2   6 -20  177.81    6.46
  -4  -2 -20  194.81   10.25
  -6   4  20  185.93    8.39
   4   2  20  184.45    8.43
   2  -6  20  181.82    8.67
  -6   4  20  178.39    7.04
   3  -4 -20    1.07    1.61
  -4   1 -20    0.65    1.79
   3  -4 -20   -3.85    1.65
  -1  -3  20    1.92    3.00
  -3   4  20   -1.06    2.63
   4  -1  20    4.87    2.90
   4  -1  20    1.06    1.72
  -3   4  20    2.83    1.80
  -4   4 -20  341.14    9.38
   4   0 -20  329.35   10.17
   0  -4 -20  340.82    9.99
  -4   0  20  320.21   11.65
   4  -4  20  329.80    9.75
   0   4  20  304.88   11.59
   4  -4  20  289.11   11.60
  -3  -4 -20    4.17    2.27
  -4   7 -20    3.14    1.73
   7  -3 -20    1.82    2.12
  -7   3  20    1.51    2.54
   4  -7  20    4.35    3.79
  -5  -3 -20    1.23    1.84
  -3   8 -20    1.60    1.64
   8  -5 -20   -3.36    2.26
  -8   5  20    3.94    2.66
   3  -8  20   -0.71    3.26
  -8   5  20    0.64    1.97
   5   3  20    1.56    2.37
  -5   0 -20   -1.23    1.71
   5  -5 -20   -2.04    1.87
   0   5 -20    1.26    1.76
   5   0  20    1.53    1.95
  -5   5  20   10.08    3.12
   0  -5  20   -0.35    3.30
  -5   5  20   -1.76    1.71
  -5   3 -20    1.16    1.40
   3   2 -20    3.17    1.68
   2  -5 -20    1.61    1.81
  -5   3 -20    1.28    1.60
   2  -5 -20    1.87    1.72
   5  -3  20    7.89    3.72
  -3  -2  20    1.50    2.95
  -2   5  20    1.16    2.78
  -2   5  20    0.69    1.58
   5  -3  20    0.56    1.85
  -1  -5 -20   -0.92    1.91
   6  -1 -20    1.03    2.08
  -5   6 -20    2.36    1.55
   5  -6  20   -1.70    3.16
   5  -6  20   -1.24    1.91
  -6   1  20    0.29    2.53
   9  -4 -20    3.73    2.45
  -4  -5 -20    3.16    2.12
  -5   9 -20    2.77    1.85
  -9   4  20    2.99    2.88
   5  -9  20    1.79    4.06
  -9   4  20   -0.49    2.01
  -6  -4 -20  187.04    7.63
  -4  10 -20  179.47    7.10
  10  -6 -20  191.11    8.18
   4 -10  20  176.52    9.51
   6   4  20  181.47    8.06
 -10   6  20  172.89    7.55
 -10   6  20  181.34    8.30
  -6  -1 -20    4.20    1.93
  -1   7 -20    1.89    1.90
   7  -6 -20    3.47    2.28
  -7   6  20    3.27    2.07
  -7   6  20    0.15    2.94
   1  -7  20    2.25    3.14
   6   1  20    4.51    2.01
   2   4 -20  209.93    7.54
  -6   2 -20  213.30    7.50
   4  -6 -20  219.29    7.54
   4  -6 -20  205.53    8.12
  -4   6  20  215.86    9.20
   6  -2  20  218.93    7.94
  -2  -4  20  210.61    9.53
  -4   6  20  215.02    7.08
  -6   5 -20   -0.80    1.39
   1  -6 -20    1.09    1.92
   5   1 -20    1.30    1.93
  -1   6  20    2.82    3.24
   6  -5  20    0.64    2.00
  -5  -1  20    3.16    2.81
  -6   8 -20  191.24    6.70
  -2  -6 -20  174.98    7.27
   8  -2 -20  186.97    7.53
   6  -8  20  194.98    7.08
  -8   2  20  198.04    8.50
   6  -8  20  183.25    9.95
  -6  11 -20    0.19    1.78
  -5  -6 -20   -0.02    2.65
  11  -5 -20    5.02    2.88
 -11   5  20   -0.09    2.40
   6 -11  20    3.85    4.49
 -11   5  20    3.44    2.94
  -7  -5 -20    1.27    2.36
  -5  12 -20    0.60    2.05
  12  -7 -20   -1.04    3.10
   7   5  20   -0.47    2.74
 -12   7  20   -0.39    3.02
 -12   7  20    6.24    2.92
   5 -12  20   -2.06    4.33
   9  -7 -20   -2.09    2.53
  -7  -2 -20   -1.51    2.18
  -2   9 -20   -0.31    2.02
  -9   7  20   -3.30    2.98
   7   2  20    2.21    2.51
  -9   7  20    0.34    1.94
   2  -9  20   -6.51    3.40
   1   6 -20   -0.84    1.62
   6  -7 -20   -2.39    2.21
  -1  -6  20   -1.64    3.31
  -6   7  20   -2.94    2.69
  -6   7  20    0.43    1.87
   4   3 -20   -2.65    1.58
   3  -7 -20   -0.82    1.86
   7  -4  20   -0.04    2.11
  -4  -3  20    6.96    3.00
  -3   7  20   -5.11    2.76
   7   0 -20    0.84    1.94
  -7   7 -20   -0.98    1.66
   7  -7  20   -2.68    2.05
  -7   0  20   -4.49    2.75
  -3  -7 -20    2.26    2.50
  10  -3 -20    4.65    2.36
  -7  10 -20    7.21    2.17
   7 -10  20   -4.91    2.28
 -10   3  20   -0.20    2.26
 -10   3  20    3.27    2.78
  -6  -7 -20   -0.94    2.77
  -7  13 -20    5.33    2.50
  13  -6 -20    0.13    2.90
 -13   6  20    2.21    2.92
 -13   6  20   -2.36    2.87
  -8  -6 -20  118.62    7.19
  -6  14 -20  111.56    6.28
  14  -8 -20  121.92    7.24
 -14   8  20  116.08    6.64
 -14   8  20  122.65    7.14
  -3  11 -20   -2.16    1.84
  11  -8 -20    6.77    3.06
  -8  -3 -20    1.54    2.38
 -11   8  20    1.52    2.65
   8   3  20    0.76    2.65
   3 -11  20   -3.43    4.39
 -11   8  20    5.54    2.62
  -8   0 -20  135.10    6.33
   0   8 -20  131.41    5.92
  -8   8  20  127.97    5.87
  -8   8  20  156.04    7.40
   0  -8  20  125.60    8.49
   8   0  20  141.58    6.88
   3   5 -20    2.74    1.85
   5  -8 -20   -1.45    2.00
  -5   8  20   -2.08    1.76
  -3  -5  20   -1.79    2.80
  -5   8  20    0.08    3.25
   6   2 -20  177.78    7.18
   2  -8 -20  176.38    7.13
  -8   6 -20  168.00    5.84
  -6  -2  20  174.34    8.19
  -8   9 -20    2.51    1.91
   9  -1 -20    6.21    2.63
  -1  -8 -20    2.84    2.39
   8  -9  20   -0.05    2.40
  -9   1  20   -1.90    2.68
  -8  12 -20  131.60    6.10
  12  -4 -20  127.40    7.24
  -4  -8 -20  126.95    6.95
 -12   4  20  117.26    6.99
 -12   4  20  135.05    7.22
  -8  15 -20   -2.02    2.36
  -7  -8 -20    3.91    3.39
  15  -7 -20   -4.51    3.85
 -15   7  20    1.57    3.39
  -9  -7 -20   -0.38    3.41
  -7  16 -20   -2.15    2.94
 -16   9  20    1.38    3.51
  -4  13 -20    4.86    2.52
  -9  -4 -20    0.75    2.49
   9   4  20    0.96    2.75
 -13   9  20   -0.05    3.08
   4 -13  20    2.24    5.28
 -13   9  20   -0.73    2.43
  -1  10 -20    0.37    1.93
  -9  -1 -20    0.49    2.22
   9   1  20   -1.52    2.64
   1 -10  20   -1.58    3.91
 -10   9  20   -6.29    3.06
 -10   9  20    0.26    2.30
   2   7 -20    2.29    2.10
   7  -9 -20   -0.56    2.13
  -2  -7  20    6.22    3.41
   9  -2  20    1.25    2.53
  -7   9  20    1.82    3.28
  -7   9  20    4.30    2.00
   4  -9 -20    2.28    2.22
   5   4 -20   -0.04    1.92
  -5  -4  20    0.95    2.91
   9  -5  20    7.25    2.44
   1  -9 -20   -0.01    2.35
  -9   8 -20    1.17    1.77
   8   1 -20    1.84    2.25
  -8  -1  20   -0.99    2.72
  -9  11 -20   -1.19    2.06
  11  -2 -20   -2.47    2.54
  -2  -9 -20   -0.34    2.61
 -11   2  20    4.06    2.75
  -5  -9 -20   -4.75    2.69
  14  -5 -20   -2.21    3.52
  -9  14 -20   -0.74    2.08
 -14   5  20   -2.46    2.99
 -14   5  20   -0.61    2.83
  -8  -9 -20   -2.16    3.15
  -9  17 -20    4.61    2.98
  17  -8 -20   -9.83    4.17
 -17   8  20    3.67    3.36
  -8  18 -20   59.19    5.98
 -10  -8 -20   52.69    6.85
 -18  10  20   71.67    5.98
  -5  15 -20   -0.06    2.84
 -10  -5 -20    0.32    3.27
 -15  10  20   -0.13    3.80
   5 -15  20    4.42    6.27
 -15  10  20    8.74    3.31
  10   5  20   -2.11    3.28
 -10  -2 -20  142.62    7.01
  -2  12 -20  145.37    6.96
   2 -12  20  123.24    8.89
 -12  10  20  138.99    6.78
  10   2  20  149.12    7.81
 -12  10  20  159.22    8.26
   9 -10 -20    2.48    2.50
 -10   1 -20    1.11    2.34
   1   9 -20    1.38    2.03
  -1  -9  20    9.51    3.99
  -9  10  20    3.16    2.32
  10  -1  20    1.01    2.29
  -9  10  20   -1.99    3.45
   4   6 -20  183.13    7.36
   6 -10 -20  173.72    7.29
  -6  10  20  169.87    8.75
  10  -4  20  169.54    7.65
  -4  -6  20  178.32    8.88
   3 -10 -20   -4.26    2.28
   7   3 -20    1.40    2.41
  10  -7  20    0.93    2.33
  -7  -3  20   -0.40    2.90
 -10  10 -20  138.03    5.88
  10   0 -20  138.00    6.97
   0 -10 -20  153.98    7.25
 -10   0  20  144.99    7.23
  10 -10  20  140.97    6.96
  13  -3 -20    1.48    2.91
 -10  13 -20   -1.95    2.35
  -3 -10 -20   -0.73    2.88
 -13   3  20    7.77    2.98
 -13   3  20    4.69    3.02
  10 -13  20    5.51    3.06
 -10  16 -20  111.74    6.59
  16  -6 -20  121.90    9.35
  -6 -10 -20  111.85    7.69
 -16   6  20  119.20    8.72
  -9 -10 -20    1.30    4.42
 -10  19 -20   -0.52    3.24
 -19   9  20   -4.13    3.45
 -11  -9 -20    0.96    4.37
  -9  20 -20   -2.57    3.50
 -20  11  20   -4.49    4.44
  -6  17 -20    4.70    2.99
 -11  -6 -20   -6.53    3.63
  -3  14 -20   -0.57    2.40
 -11  -3 -20   -0.99    2.77
 -14  11  20    3.67    3.03
   3 -14  20    5.53    5.59
 -14  11  20    3.53    3.68
  11   3  20    4.23    3.62
 -11   0 -20    0.27    2.64
   0  11 -20    2.30    2.27
  11   0  20    1.67    3.06
 -11  11  20   -1.65    3.50
 -11  11  20    2.27    2.45
   0 -11  20   -7.26    4.08
   3   8 -20    1.36    2.15
  11  -3  20    3.44    2.94
  -8  11  20    2.16    2.14
  -3  -8  20    3.95    3.58
  -8  11  20    8.93    4.28
   5 -11 -20    2.58    2.51
   6   5 -20    0.74    2.06
  -6  -5  20    2.38    3.00
  11  -6  20   -0.46    2.59
   2 -11 -20    2.34    2.27
   9   2 -20    2.26    2.70
  11  -9  20   -0.92    2.57
  -9  -2  20   -0.97    2.96
  -1 -11 -20   -0.05    3.03
 -11  12 -20    2.59    2.39
  12  -1 -20    4.91    3.20
  11 -12  20    3.71    3.08
 -12   1  20   -2.85    2.79
  -4 -11 -20    0.91    3.25
  15  -4 -20   -1.87    3.78
 -11  15 -20    2.89    2.74
  11 -15  20   -0.99    3.39
 -15   4  20   -1.32    3.53
  -7 -11 -20    9.13    4.39
 -11  18 -20    6.95    3.45
  18  -7 -20   -2.48    4.13
 -18   7  20    3.55    4.16
 -11  21 -20    5.40    3.82
 -10 -11 -20   -2.65    4.10
 -21  10  20    8.13    4.42
 -10  22 -20   57.05    6.62
 -12 -10 -20   55.53    7.15
 -22  12  20   77.87    8.08
 -12  -7 -20   -1.83    4.11
  -7  19 -20   -6.79    3.64
 -19  12  20    6.18    4.21
 -12  -4 -20   69.25    6.09
  -4  16 -20   80.08    9.87
   4 -16  20   89.22   10.88
  12   4  20   97.45    7.11
 -16  12  20   85.10    6.03
  -1  13 -20    1.02    2.78
 -12  -1 -20   -2.27    2.95
   1 -13  20   -3.22    4.96
 -13  12  20    2.90    3.80
 -13  12  20   -0.26    2.95
  12   1  20    6.41    3.13
   2  10 -20  139.32    6.89
  10 -12 -20  131.32    6.57
  12  -2  20  147.09    7.73
 -10  12  20  147.63    8.10
 -10  12  20  134.72    6.21
  -2 -10  20  139.75    8.99
   5   7 -20    3.20    2.62
   7 -12 -20    0.61    2.80
  -5  -7  20   -0.34    3.42
  12  -5  20   -1.51    2.75
   4 -12 -20  126.32    6.87
   8   4 -20  125.12    6.54
  12  -8  20  119.07    6.69
  -8  -4  20  120.30    7.38
  11   1 -20    5.98    3.29
   1 -12 -20    0.86    2.91
 -12  11 -20    1.43    1.99
 -11  -1  20    7.77    3.18
  12 -11  20    3.73    3.17
  -2 -12 -20  118.07    7.51
 -12  14 -20  111.43    5.95
  14  -2 -20  117.08    7.67
  12 -14  20  112.22    7.24
 -14   2  20  132.38    7.64
  17  -5 -20    7.01    4.56
  -5 -12 -20    7.04    4.19
 -12  17 -20    7.32    3.28
 -17   5  20    4.50    3.69
 -12  20 -20   61.17    5.82
  -8 -12 -20   60.00    7.06
 -20   8  20   48.01    6.12
 -11 -12 -20   12.56    5.88
 -12  23 -20   -1.98    4.96
 -23  11  20   -1.67    4.63
 -13 -11 -20    2.38    5.95
 -13  -8 -20   -3.82    4.69
  -8  21 -20   -4.00    4.23
 -21  13  20   -2.31    4.49
 -13  -5 -20   -0.45    3.95
  -5  18 -20    1.13    3.63
  13   5  20   -1.36    4.52
 -18  13  20    1.20    3.50
 -13  -2 -20    0.86    3.12
  -2  15 -20    9.37    5.12
 -15  13  20    2.06    2.82
  13   2  20   -0.95    3.61
   2 -15  20    2.48    6.38
   1  12 -20   -1.06    2.68
 -13   1 -20    0.85    2.66
 -12  13  20    6.78    4.22
 -12  13  20   -5.72    2.47
  -1 -12  20   -0.17    4.33
  13  -1  20    4.88    3.37
   9 -13 -20    3.15    2.84
   4   9 -20    0.40    2.69
  -9  13  20    5.31    2.62
  13  -4  20    9.04    3.25
  -4  -9  20    3.67    3.98
   6 -13 -20   -1.15    2.64
   7   6 -20    1.10    2.48
  -7  -6  20    0.33    3.32
  13  -7  20    2.11    2.79
   3 -13 -20    6.12    3.31
  10   3 -20    2.50    3.01
  13 -10  20    0.97    3.00
 -10  -3  20   -0.91    3.01
 -13  13 -20    1.06    2.47
   0 -13 -20   -5.98    3.24
  13   0 -20    7.06    3.42
  13 -13  20    2.76    3.30
  16  -3 -20    7.27    4.35
 -13  16 -20   11.41    3.12
  -3 -13 -20    7.11    4.01
 -16   3  20   10.47    4.26
  13 -16  20   -1.94    3.63
  -6 -13 -20   10.51    5.02
 -13  19 -20    3.05    3.66
  19  -6 -20    2.21    4.76
 -19   6  20    5.11    3.93
  -9 -13 -20    4.83    5.29
 -13  22 -20    1.55    4.47
 -22   9  20    7.12    5.37
 -14  -9 -20  -10.65    5.23
  -9  23 -20   -3.26    4.99
 -23  14  20    0.92    5.32
  -6  20 -20   61.73    6.20
 -14  -6 -20   43.76    5.94
 -20  14  20   46.73    5.83
 -14  -3 -20    0.94    3.91
  -3  17 -20    3.13    3.71
  14   3  20   -0.03    4.55
 -17  14  20    2.86    3.22
 -14   0 -20  108.32    6.76
   0  14 -20   88.20    8.79
 -14  14  20  121.56    8.37
 -14  14  20  107.60    6.39
  14   0  20   89.94    7.04
   3  11 -20    2.86    2.59
  11 -14 -20    3.19    3.42
  14  -3  20    6.54    3.59
 -11  14  20    2.97    2.73
  -3 -11  20   -5.34    4.69
   8 -14 -20  117.26    6.84
   6   8 -20  112.58    6.49
  -6  -8  20  125.77    7.99
  14  -6  20  122.39    7.40
   9   5 -20    3.34    3.01
   5 -14 -20    5.01    3.09
  14  -9  20    9.89    3.65
  -9  -5  20    4.16    3.54
  12   2 -20   86.92    6.32
   2 -14 -20   96.83    6.49
  14 -12  20   90.75    6.63
  -1 -14 -20    0.20    4.05
  15  -1 -20   -1.35    3.81
 -14  15 -20    4.19    2.93
  14 -15  20    4.31    3.93
 -15   1  20    4.48    4.12
  -4 -14 -20   74.36    7.14
  18  -4 -20   68.78    7.48
 -14  18 -20   82.01    6.19
  14 -18  20   74.97    7.29
 -18   4  20   73.75    6.83
 -14  21 -20    1.44    3.60
  -7 -14 -20    4.74    5.42
  21  -7 -20   -1.81    5.23
 -21   7  20    5.82    4.72
 -10 -14 -20   27.75    6.89
  -7  22 -20    1.53    4.33
 -15  -7 -20   -2.19    4.58
 -22  15  20    4.28    5.20
  -4  19 -20   -3.61    3.95
 -15  -4 -20    6.51    4.53
 -19  15  20   -2.41    4.13
  15   4  20   10.15    5.08
  -1  16 -20   -1.52    3.65
 -16  15  20    4.62    5.03
 -15   2 -20    1.76    3.24
  13 -15 -20   -1.95    4.11
 -13  15  20   -3.48    4.71
  15  -2  20    1.84    3.67
 -13  15  20    3.11    3.21
  10 -15 -20    1.49    3.38
   5  10 -20    2.40    2.79
 -10  15  20    0.78    2.68
  15  -5  20   -5.55    3.21
   7 -15 -20    4.67    3.35
   8   7 -20    3.15    2.69
  15  -8  20    0.23    3.37
   4 -15 -20    6.65    3.31
  15 -11  20    2.23    3.63
   1 -15 -20   -2.24    3.75
  14   1 -20    5.49    3.84
 -15  14 -20   -4.60    2.86
  15 -14  20   -5.08    3.72
  17  -2 -20   11.12    4.95
  -2 -15 -20    8.89    4.66
 -15  17 -20   13.66    3.80
 -17   2  20    9.83    4.48
  15 -17  20   14.82    4.72
  -5 -15 -20    2.20    5.21
  20  -5 -20    0.48    5.91
 -15  20 -20    0.96    3.90
 -20   5  20    4.41    4.89
  -8 -15 -20    6.21    6.23
 -15  23 -20    9.27    5.02
 -23   8  20   12.09    5.70
 -16  -8 -20   37.06    7.16
 -16  -5 -20    4.28    4.38
  -5  21 -20    6.83    4.30
  16   5  20   -0.40    4.86
 -21  16  20   -8.46    4.13
 -16  -2 -20   76.07    7.36
  -2  18 -20   59.45    6.31
 -18  16  20   65.05    6.89
  16   2  20   62.08    7.91
   1  15 -20   -0.16    3.73
 -15  16  20    6.52    3.65
  12 -16 -20   93.58    7.12
   4  12 -20   88.40    6.28
 -12  16  20   86.19    6.21
  16  -4  20   90.67    7.36
   9 -16 -20    7.92    3.82
  16  -7  20    9.27    3.70
   6 -16 -20  117.25    7.88
  16 -10  20  124.59    8.20
  13   3 -20    2.65    3.53
   3 -16 -20   -1.45    3.87
  16 -13  20    3.12    4.14
   0 -16 -20   82.31    7.75
 -16  16 -20  101.53    6.12
  16   0 -20   83.88    7.15
  16 -16  20  101.14    8.27
 -16   0  20   84.93    6.99
  19  -3 -20   -0.77    4.74
 -16  19 -20    0.92    3.81
  -3 -16 -20    9.70    4.50
  16 -19  20    8.78    5.38
 -19   3  20    6.50    4.49
 -16  22 -20   25.89    5.27
  22  -6 -20   41.37    8.03
  -6 -16 -20   31.04    7.06
 -22   6  20   35.29    6.52
 -17  -6 -20   -3.25    5.74
  -3  20 -20   -1.96    4.55
 -17  -3 -20   -4.37    3.97
 -20  17  20   -1.83    4.75
  17   3  20   -7.49    4.81
   0  17 -20   -1.17    4.16
 -17   0 -20    2.72    4.36
 -17  17  20    1.26    3.59
  17   0  20    0.85    4.88
   3  14 -20    2.04    3.25
  14 -17 -20    1.53    4.22
  17  -3  20    6.48    5.85
 -14  17  20    3.57    3.42
   6  11 -20    2.84    3.57
  11 -17 -20    5.31    3.73
  17  -6  20   -4.25    3.30
   8 -17 -20   -4.58    3.70
   9   8 -20    4.90    3.59
  17  -9  20    7.12    4.22
   5 -17 -20    0.63    4.09
  12   5 -20   -6.20    3.68
  17 -12  20    0.31    3.72
  15   2 -20    1.38    4.39
   2 -17 -20   -5.54    4.41
  17 -15  20    6.17    4.54
  -1 -17 -20    6.45    4.58
  18  -1 -20    9.35    5.26
 -17  18 -20    1.40    3.64
 -18   1  20   -7.81    4.70
  17 -18  20   -0.50    4.88
 -17  21 -20   -0.27    4.47
  21  -4 -20   -0.53    5.84
  -4 -17 -20   -0.78    4.84
 -21   4  20   -2.41    4.77
  -4  22 -20   35.47    6.91
 -18  -4 -20   51.90    7.56
  18   4  20   33.74    7.56
 -22  18  20   28.24    6.48
  -1  19 -20   -6.19    4.24
 -18  -1 -20   -5.54    4.46
 -19  18  20   -1.11    4.41
  18   1  20    1.87    5.55
   2  16 -20   51.44    6.21
 -18   2 -20   52.08    6.31
  18  -2  20   53.83    6.59
 -16  18  20   60.44    6.50
   5  13 -20   -5.83    3.56
  13 -18 -20    1.13    4.25
  18  -5  20   -1.97    4.07
 -13  18  20    2.25    4.36
   8  10 -20   68.96    6.30
  10 -18 -20   91.99    7.33
  18  -8  20   78.52    8.68
   7 -18 -20   -0.73    4.27
  11   7 -20    2.09    3.53
  18 -11  20    6.05    4.26
  14   4 -20   40.17    5.97
   4 -18 -20   62.20    7.65
   1 -18 -20   12.91    4.84
  17   1 -20    9.34    4.76
 -17  -1  20    9.56    4.89
  18 -17  20   11.28    5.15
  -2 -18 -20   50.28    7.30
 -18  20 -20   40.47    5.56
  20  -2 -20   32.82    7.53
  18 -20  20   39.79    7.02
 -20   2  20   49.86    7.11
  -5 -18 -20    1.03    5.55
 -18  23 -20    1.94    5.37
  -2  21 -20    0.31    5.36
 -19  -2 -20   -1.70    5.23
 -21  19  20    1.83    5.32
  19   2  20    9.88    6.28
 -19   1 -20   -6.45    4.60
   1  18 -20    0.45    4.42
  19  -1  20   -0.96    5.31
 -18  19  20    1.76    4.57
   4  15 -20   -0.24    3.80
  15 -19 -20   -4.70    4.78
 -15  19  20   -1.21    3.89
  19  -4  20    6.17    5.16
  12 -19 -20   -0.42    4.71
   7  12 -20   -3.06    3.92
  19  -7  20    9.04    4.77
  10   9 -20    9.68    4.52
  19 -10  20    3.51    4.22
   6 -19 -20   -2.65    4.31
  13   6 -20    6.54    4.17
  19 -13  20    0.77    4.95
   3 -19 -20    3.09    5.03
  16   3 -20    6.66    4.66
  19 -16  20   -3.10    5.20
  19   0 -20    8.43    5.47
   0 -19 -20   10.40    6.02
 -19   0  20    8.31    5.10
  19 -19  20   11.67    5.90
 -19  22 -20  -12.16    4.78
  -3 -19 -20    3.32    6.79
  19 -22  20  -15.35    6.43
   0  20 -20   39.58    6.65
 -20   0 -20   45.99    7.00
  20   0  20   42.82    7.47
 -20  20  20   55.37    6.84
   3  17 -20    0.76    4.20
 -20   3 -20    6.11    5.08
 -17  20  20   -7.52    4.46
  20  -3  20    5.13    5.63
   6  14 -20   52.85    6.45
  14 -20 -20   58.34    7.00
  20  -6  20   67.29    7.33
  11 -20 -20    5.23    4.99
   9  11 -20   -1.26    3.75
  20  -9  20    3.10    4.49
  12   8 -20   38.92    5.57
   8 -20 -20   37.52    6.43
  20 -12  20   68.43    8.30
   5 -20 -20   13.03    5.30
  15   5 -20    2.47    4.94
  20 -15  20    2.18    5.44
  18   2 -20   51.92    7.45
   2 -20 -20   50.54    6.95
 -18  -2  20   44.24    7.28
  20 -18  20   44.82    7.33
  -1 -20 -20    5.87    6.77
  20 -21  20   -2.45    6.54
   2  19 -20    4.55    4.82
 -21   2 -20    9.15    5.33
 -19  21  20   -2.00    5.16
  21  -2  20   23.63    6.94
  16 -21 -20    8.02    5.64
   5  16 -20   -2.43    4.45
  21  -5  20    1.54    5.41
  13 -21 -20    2.24    5.31
   8  13 -20    5.80    4.34
  21  -8  20    5.92    5.38
  10 -21 -20   12.14    5.42
  11  10 -20    4.06    4.93
  21 -11  20   -3.04    5.36
   7 -21 -20    0.65    5.54
  14   7 -20    6.75    4.75
  21 -14  20    5.53    5.88
  17   4 -20    9.06    5.34
   4 -21 -20   -4.18    4.84
  21 -17  20   -1.62    6.00
   1 -21 -20    6.26    6.81
  21 -20  20    1.53    6.49
 -22   4 -20   39.84    6.65
   4  18 -20   37.49    6.86
  22  -4  20   36.56    7.70
   7  15 -20    1.67    4.84
  15 -22 -20   11.64    6.01
  22  -7  20    9.21    6.16
  10  12 -20   50.07    7.02
  12 -22 -20   60.78    7.77
  22 -10  20   53.32    7.71
  13   9 -20   13.42    5.30
   9 -22 -20   18.18    6.00
  22 -13  20   11.21    6.30
   6 -22 -20   62.15    7.97
  16   6 -20   29.76    6.96
  22 -16  20   44.90    7.89
   3 -22 -20   10.12    5.90
  22 -19  20  -15.54    6.54
  23  -6  20    1.67    5.69
  14 -23 -20    1.72    5.86
   9  14 -20   12.87    5.14
  23  -9  20   -1.96    6.26
  11 -23 -20    9.02    6.35
  12  11 -20   -3.68    5.32
  23 -12  20  -13.28    5.97
   8 -23 -20    5.26    6.14
  15   8 -20   14.05    6.45
  23 -15  20    2.09    6.38
   5 -23 -20    8.26    6.88
  23 -18  20    5.60    7.34
  16 -24 -20   31.61    7.87
  24  -8  20   17.36    6.71
  13 -24 -20    4.68    6.71
  24 -11  20   -9.65    6.41
  10 -24 -20   33.07    7.66
  24 -14  20   34.58    7.87
   0   0 -21   14.11    2.10
   0   0  21   13.33    3.76
  -1  -1 -21   14.77    2.01
  -1   2 -21   13.35    2.03
   2  -1 -21   13.44    2.33
  -1  -1 -21   14.46    2.22
  -2   1  21    6.30    3.13
   1  -2  21    9.12    3.40
   1   1  21    7.83    3.43
  -2   1 -21    3.06    1.80
   1  -2 -21    1.87    1.76
   1  -2 -21   -1.83    1.63
   1   1 -21   -0.16    3.14
  -2   1 -21    0.65    1.57
  -1  -1  21   -0.94    2.96
   2  -1  21   -0.24    1.82
   2  -1  21    6.33    3.19
  -1   2  21    1.65    3.26
   4  -2 -21    1.72    2.47
  -2   4 -21   -0.13    2.00
  -2  -2 -21    0.34    1.91
   2  -4  21   -4.44    2.97
  -4   2  21    0.77    3.02
  -3   0 -21    0.95    1.87
   3  -3 -21    3.25    1.96
   0   3 -21    1.61    1.94
   3   0  21   -2.16    1.93
  -3   3  21   -2.90    3.14
   0  -3  21    1.50    3.43
  -3   3  21    0.48    1.76
   0  -3 -21    3.58    1.84
  -3   3 -21    4.50    1.80
  -3   3 -21    3.88    1.68
  -3   0  21    2.95    2.92
   0   3  21    6.78    3.40
   3  -3  21   -1.26    3.06
   3  -3  21    4.05    1.93
  -3   6 -21   23.32    2.72
   6  -3 -21   21.59    2.90
  -3  -3 -21   26.17    3.37
  -6   3  21   24.05    4.15
   3  -6  21   29.28    4.78
  -4  -1 -21    6.33    2.20
  -1   5 -21    4.26    1.88
   5  -4 -21    3.61    2.61
   4   1  21    5.62    2.49
   1  -5  21    2.34    3.40
  -5   4  21    8.82    2.63
  -5   4  21    3.20    3.39
  -4   2 -21    0.56    1.81
   2  -4 -21    0.81    1.92
   2   2 -21    1.01    1.74
   2  -4 -21    1.69    1.90
  -2   4  21    4.59    1.76
   4  -2  21    3.53    2.05
  -2  -2  21    6.71    3.28
  -2   4  21    0.67    2.99
  -4   5 -21   -1.23    1.55
   5  -1 -21   -2.12    1.90
  -1  -4 -21   -0.18    2.09
   4  -5  21    1.56    3.01
  -5   1  21    2.44    3.29
   4  -5  21    2.92    3.75
  -4   8 -21    3.72    1.97
   8  -4 -21    1.36    2.41
  -4  -4 -21    2.99    2.40
   4  -8  21    4.14    4.05
  -8   4  21    4.78    2.40
  -8   4  21    3.24    2.98
  -2   7 -21    1.57    2.03
  -5  -2 -21    6.90    2.46
   7  -5 -21    0.07    2.20
   2  -7  21    1.09    3.39
  -7   5  21    6.51    2.91
  -7   5  21    6.31    2.36
   5   2  21    2.21    2.45
   4  -5 -21   21.34    2.77
   1   4 -21   25.59    3.12
  -5   1 -21   23.92    2.99
  -1  -4  21   24.76    4.28
   5  -1  21   27.54    3.38
  -4   5  21   17.87    3.74
  -4   5  21   20.77    2.64
  -5   4 -21   18.93    2.20
   4   1 -21   18.16    2.61
   1  -5 -21   19.05    2.68
  -4  -1  21   18.61    3.61
  -1   5  21   14.40    3.69
   5  -4  21   21.36    2.64
   7  -2 -21    7.10    2.50
  -2  -5 -21    9.24    2.50
  -5   7 -21    4.68    1.92
  -7   2  21    4.30    3.24
   5  -7  21    5.21    4.11
  10  -5 -21   24.26    3.86
  -5  10 -21   21.14    2.94
  -5  -5 -21   22.06    3.48
 -10   5  21   22.98    3.68
   5 -10  21   20.57    4.91
 -10   5  21   22.87    3.80
  -6  -3 -21    0.34    2.07
  -3   9 -21    0.97    1.85
   9  -6 -21    8.00    2.91
  -9   6  21    0.05    2.80
  -9   6  21    4.00    2.49
   6   3  21    2.20    2.59
   3  -9  21    1.26    5.09
   0   6 -21    1.22    1.97
  -6   0 -21   -1.31    2.31
   6  -6 -21    3.21    2.51
  -6   6  21    2.87    2.02
   6   0  21    1.03    2.52
   0  -6  21    6.66    3.91
  -6   6  21    6.07    3.03
   3   3 -21    1.21    1.94
  -3  -3  21    7.19    3.38
   6  -3  21    7.60    2.22
  -3   6  21    4.89    1.98
  -3   6  21    3.61    3.58
  -6   6 -21    1.77    1.75
   6   0 -21    6.83    2.13
   0  -6 -21    5.54    2.34
  -6   0  21    4.81    3.36
   6  -6  21    6.68    2.32
  -6   9 -21   -1.53    1.84
  -3  -6 -21   -0.66    2.38
   9  -3 -21   -3.94    2.53
  -9   3  21    2.78    3.19
  -9   3  21    4.82    2.70
  -6  -6 -21    3.51    2.99
  -6  12 -21    6.23    2.53
  12  -6 -21    3.56    3.62
 -12   6  21    6.36    3.49
 -12   6  21   12.82    3.47
  -4  11 -21   -0.13    2.33
  11  -7 -21   -5.99    3.09
  -7  -4 -21   -0.74    2.71
   4 -11  21   -7.24    4.31
   7   4  21   -3.21    2.84
 -11   7  21   -3.15    2.70
 -11   7  21    2.58    3.12
  -7  -1 -21   25.71    3.33
  -1   8 -21   24.31    2.95
   8  -7 -21   24.28    3.52
  -8   7  21   20.92    3.11
  -8   7  21   16.26    3.65
   1  -8  21   15.90    4.24
   7   1  21   23.15    3.39
   2   5 -21   -0.67    2.00
   5  -7 -21    3.94    2.20
  -2  -5  21   13.29    3.76
  -5   7  21    4.02    3.21
  -5   7  21    3.25    1.96
   5   2 -21   17.52    2.94
  -5  -2  21    8.50    3.72
   7  -5  21   16.28    2.69
  -7   8 -21   21.88    2.60
  -1  -7 -21   20.10    3.19
   8  -1 -21   22.87    3.50
   7  -8  21   17.97    2.99
  -8   1  21   19.57    3.82
  -4  -7 -21    0.95    2.65
  11  -4 -21    3.52    3.06
  -7  11 -21    1.40    2.22
 -11   4  21    4.91    3.05
 -11   4  21    0.28    2.95
  -7  14 -21   29.97    3.64
  -7  -7 -21   23.56    4.31
  14  -7 -21   29.92    5.08
 -14   7  21   20.11    4.25
 -14   7  21   24.02    4.31
  13  -8 -21   -2.01    3.45
  -5  13 -21    3.27    2.45
  -8  -5 -21    4.60    3.08
 -13   8  21    2.99    3.45
   5 -13  21   -7.05    6.01
 -13   8  21    2.31    2.70
  -8  -2 -21    1.33    2.74
  -2  10 -21    4.31    2.31
  10  -8 -21   -1.27    2.87
 -10   8  21    8.79    3.42
 -10   8  21    4.09    2.60
   8   2  21    5.63    2.97
   2 -10  21    3.26    3.99
   1   7 -21    0.08    2.14
  -8   1 -21    3.22    2.20
  -7   8  21    1.76    2.14
  -7   8  21   -0.02    3.82
   8  -1  21    3.57    2.60
  -1  -7  21    5.36    3.49
   4   4 -21    0.39    2.15
   4  -8 -21    5.72    2.45
  -4   8  21    0.15    3.42
   8  -4  21    2.09    2.44
  -4  -4  21    0.06    3.35
  -8   7 -21    0.97    2.10
   1  -8 -21    1.99    2.42
   7   1 -21    5.37    2.60
  -7  -1  21    0.69    3.19
   8  -7  21    6.48    2.75
  -2  -8 -21    1.22    2.67
  10  -2 -21   -3.38    2.85
  -8  10 -21    0.05    1.96
   8 -10  21    0.38    3.11
 -10   2  21    3.07    3.14
  13  -5 -21    4.03    3.20
  -5  -8 -21    2.50    3.27
  -8  13 -21    1.41    2.45
 -13   5  21   -3.07    3.08
 -13   5  21    1.91    3.24
  -8  -8 -21   -0.91    3.11
  16  -8 -21    1.59    7.85
  -8  16 -21    2.44    2.88
 -16   8  21    3.90    6.59
  -6  15 -21    3.86    2.77
  -9  -6 -21    9.45    3.83
 -15   9  21    4.12    3.31
  -3  12 -21   31.55    3.98
  -9  -3 -21   32.20    4.56
 -12   9  21   43.47    4.68
 -12   9  21   29.09    4.26
   3 -12  21   30.12    5.46
   9   3  21   33.08    4.65
  -9   0 -21    1.38    2.23
   0   9 -21   -3.60    2.26
   0  -9  21    2.50    3.74
  -9   9  21    0.50    3.29
   9   0  21    0.02    2.80
  -9   9  21    2.55    2.31
   3   6 -21   14.88    2.89
   6  -9 -21   15.76    2.83
  -6   9  21   14.54    2.53
  -3  -6  21    9.62    3.83
   9  -3  21   11.84    2.99
  -6   9  21    9.92    3.56
   6   3 -21    2.96    2.56
   3  -9 -21    6.21    2.44
   9  -6  21    5.36    2.71
  -6  -3  21    2.49    3.40
   0  -9 -21    3.77    2.80
  -9   9 -21   10.47    2.26
   9   0 -21    6.89    2.60
  -9   0  21   11.01    3.47
   9  -9  21   10.77    2.90
  -3  -9 -21   15.28    3.57
  -9  12 -21   15.34    2.99
  12  -3 -21    9.34    3.29
 -12   3  21   16.85    3.71
 -12   3  21   12.84    3.57
  15  -6 -21    3.74    3.66
  -6  -9 -21    2.56    3.57
  -9  15 -21   -0.74    2.76
 -15   6  21    4.38    3.36
  -9  18 -21   41.49    5.16
  -9  -9 -21   38.99    5.96
 -18   9  21   42.41    5.85
  -7  17 -21    1.37    3.36
 -17  10  21   -0.07    3.40
  -4  14 -21    7.62    3.09
 -10  -4 -21    0.32    3.14
 -14  10  21    1.21    3.88
   4 -14  21   12.76    6.22
 -14  10  21    3.95    3.20
  10   4  21    3.16    3.67
 -10  -1 -21    5.08    3.05
  -1  11 -21    1.36    2.61
   1 -11  21    1.34    4.73
 -11  10  21    2.54    3.33
 -11  10  21    2.85    2.59
  10   1  21   -2.71    2.97
 -10   2 -21   -2.42    2.34
   2   8 -21    1.52    2.45
  10  -2  21   -0.30    2.34
  -2  -8  21    8.05    4.11
  -8  10  21    0.06    3.72
  -8  10  21   -2.18    2.05
   5   5 -21   -2.60    2.02
   5 -10 -21    2.39    2.46
  10  -5  21    1.81    2.56
  -5  -5  21    0.97    3.35
   2 -10 -21    9.87    2.89
   8   2 -21   10.48    2.98
  -8  -2  21    2.17    3.35
  10  -8  21    9.61    3.03
 -10  11 -21    1.85    2.28
  11  -1 -21    8.17    3.22
  -1 -10 -21    4.03    3.07
  10 -11  21   -3.41    2.88
 -11   1  21    5.43    3.35
 -10  14 -21   -0.59    2.63
  14  -4 -21   12.25    4.03
  -4 -10 -21    1.88    3.49
 -14   4  21    3.87    3.55
 -10  17 -21    4.08    3.19
  17  -7 -21    0.88    4.71
 -17   7  21   11.98    4.28
 -10 -10 -21   -1.60    4.10
 -10  20 -21   -3.50    4.13
 -20  10  21    0.55    4.64
  -8  19 -21    5.69    3.64
 -11  -8 -21    4.24    4.14
 -19  11  21   12.35    4.73
  -5  16 -21   37.38    4.47
 -11  -5 -21   42.92    5.60
  11   5  21   31.84    5.46
 -11  -2 -21    0.59    2.90
  -2  13 -21    8.27    2.79
  11   2  21    2.46    3.06
   2 -13  21   -3.45    5.14
 -13  11  21    8.76    4.12
 -13  11  21    5.05    3.04
 -11   1 -21   26.90    3.84
   1  10 -21   27.76    3.68
  11  -1  21   24.83    3.99
 -10  11  21   16.53    4.16
  -1 -10  21   23.24    4.90
 -10  11  21   25.62    3.37
   7 -11 -21    0.37    2.55
   4   7 -21    2.50    2.49
  11  -4  21    3.67    2.84
  -4  -7  21   -0.55    3.79
   4 -11 -21   36.16    4.34
   7   4 -21   22.57    3.55
  -7  -4  21   30.05    4.54
  11  -7  21   32.14    4.11
   1 -11 -21   26.95    3.82
 -11  10 -21   23.36    3.40
  10   1 -21   19.74    3.74
 -10  -1  21   17.78    3.74
  11 -10  21   25.25    3.98
  13  -2 -21   10.65    3.78
  -2 -11 -21    5.91    3.36
 -11  13 -21    0.98    2.55
  11 -13  21   -5.68    2.94
 -13   2  21    3.75    3.75
  -5 -11 -21   32.21    4.82
 -11  16 -21   26.20    3.85
  16  -5 -21   18.06    5.14
 -16   5  21   21.34    4.75
 -11  19 -21    2.80    3.55
  19  -8 -21    9.22    5.64
  -8 -11 -21    7.03    4.63
 -19   8  21    8.58    4.30
 -11 -11 -21   31.24    6.28
 -11  22 -21   24.19    5.47
 -22  11  21   20.04    5.57
  -9  21 -21    1.82    4.60
 -12  -9 -21    2.77    4.54
 -21  12  21    3.02    5.16
 -12  -6 -21    0.34    4.22
  -6  18 -21   -3.74    3.25
 -18  12  21    2.23    4.01
 -12  -3 -21   -1.53    3.44
   3 -15  21   -9.80    6.29
  12   3  21    0.90    3.51
 -15  12  21    9.19    3.58
 -12   0 -21    4.82    3.16
   0  12 -21    3.67    2.92
 -12  12  21    5.09    4.26
  12   0  21    5.38    3.52
   0 -12  21   -4.26    4.40
 -12  12  21    0.30    2.77
   9 -12 -21    2.87    2.79
   3   9 -21   -1.02    2.74
  -3  -9  21   -5.44    3.84
  12  -3  21    3.79    3.23
  -9  12  21    3.26    2.57
  -9  12  21    8.37    5.22
   6   6 -21   -1.85    2.69
   6 -12 -21    2.83    3.03
  12  -6  21   -4.47    2.68
  -6  -6  21    4.32    3.77
   3 -12 -21    4.02    3.21
   9   3 -21    0.56    2.63
  -9  -3  21    0.58    3.44
  12  -9  21    4.50    3.03
 -12  12 -21    4.25    2.46
   0 -12 -21    1.66    3.29
  12   0 -21   -1.25    3.38
  12 -12  21    0.56    3.18
 -12  15 -21    4.57    3.10
  -3 -12 -21    4.32    3.54
  15  -3 -21    5.42    3.81
 -15   3  21    3.29    3.59
  12 -15  21    6.90    3.90
  -6 -12 -21    3.18    4.53
 -12  18 -21    0.32    3.67
  18  -6 -21   -0.56    5.57
 -18   6  21   -2.69    4.19
 -12  21 -21    2.86    4.39
  -9 -12 -21    2.69    5.40
 -21   9  21    7.69    4.54
 -13 -10 -21    8.33    5.38
 -10  23 -21    7.19    5.35
 -13  -7 -21   29.15    5.90
  -7  20 -21   33.84    5.10
 -20  13  21   26.48    5.42
  -4  17 -21    2.94    3.32
 -13  -4 -21    7.70    4.13
  13   4  21    5.45    4.82
 -17  13  21   -0.71    3.42
 -13  -1 -21   37.69    5.08
 -14  13  21   42.48    5.40
  13   1  21   53.80    5.69
 -14  13  21   38.15    4.50
   2  11 -21    3.33    3.00
 -13   2 -21    2.03    3.03
  -2 -11  21   -2.33    4.77
 -11  13  21    2.04    2.83
 -11  13  21   -4.37    4.45
  13  -2  21    3.23    3.49
   8 -13 -21   10.35    3.56
   5   8 -21    9.66    2.98
  13  -5  21   13.78    3.76
  -5  -8  21   11.47    4.47
   5 -13 -21    5.86    3.30
   8   5 -21    0.24    2.91
  -8  -5  21    3.42    3.76
  13  -8  21    3.69    3.23
   2 -13 -21   11.03    3.33
  11   2 -21   11.92    4.01
  13 -11  21   18.22    3.91
 -13  14 -21   26.11    3.45
  14  -1 -21   22.28    5.59
  -1 -13 -21   29.63    4.96
  13 -14  21   27.92    4.45
 -14   1  21   12.28    4.33
  -4 -13 -21    4.63    4.52
  17  -4 -21   -1.85    4.51
 -17   4  21    2.46    4.36
  20  -7 -21   23.21    6.59
  -7 -13 -21   19.56    5.79
 -13  20 -21    9.10    4.50
 -20   7  21   32.87    5.86
 -10 -13 -21   -1.58    5.83
 -13  23 -21    0.24    5.29
  -8  22 -21   -4.58    4.69
 -14  -8 -21   -0.44    4.89
 -22  14  21    2.84    4.59
  -5  19 -21    4.24    3.88
 -14  -5 -21    9.10    4.19
  14   5  21   -0.59    4.35
 -19  14  21    3.09    4.43
  -2  16 -21   -5.31    3.60
 -14  -2 -21   -0.09    3.60
 -16  14  21    6.48    3.91
  14   2  21   -6.40    3.69
 -14   1 -21    8.39    3.73
  14  -1  21    1.50    3.77
 -13  14  21    2.99    3.19
 -13  14  21    2.62    4.29
   4  10 -21   11.72    3.20
  10 -14 -21   13.18    3.54
 -10  14  21    7.76    2.91
  14  -4  21    6.47    3.25
   7 -14 -21    8.59    3.51
   7   7 -21   10.17    3.03
  14  -7  21   15.01    3.91
   4 -14 -21   -1.06    3.45
  10   4 -21    0.28    2.94
  14 -10  21    0.44    3.34
   1 -14 -21   21.56    4.23
  13   1 -21   24.04    4.45
  14 -13  21   16.25    4.42
  16  -2 -21    6.05    4.89
 -14  16 -21    2.25    3.18
 -16   2  21   -5.63    4.01
  14 -16  21   13.53    4.23
 -14  19 -21    6.97    4.15
  -5 -14 -21   -3.44    5.00
  19  -5 -21    0.39    5.89
 -19   5  21    0.22    4.71
 -14  22 -21   -1.14    4.72
  -8 -14 -21    4.90    5.61
 -22   8  21    9.07    4.88
 -15  -6 -21    6.42    5.15
  -6  21 -21   12.52    4.91
 -21  15  21   -4.92    4.18
 -15  -3 -21   28.57    5.10
  -3  18 -21   28.11    4.85
 -18  15  21   37.22    5.32
  15   3  21   30.07    6.01
   0  15 -21    0.90    3.27
 -15   0 -21   -2.37    6.69
 -15  15  21   -3.00    5.49
  15   0  21    5.89    7.62
   3  12 -21   40.58    4.80
 -12  15  21   34.68    4.29
  15  -3  21   27.41    5.04
   9 -15 -21    2.80    3.62
   6   9 -21    8.33    5.14
  15  -6  21   -1.30    3.19
   6 -15 -21   30.83    4.77
   9   6 -21   24.51    6.43
  15  -9  21   29.98    4.96
   3 -15 -21   11.02    4.40
  12   3 -21   13.18    3.89
  15 -12  21   13.32    4.17
  15   0 -21    6.61    4.01
   0 -15 -21    2.47    4.76
  15 -15  21    0.39    4.26
 -15  18 -21   20.23    4.26
  -3 -15 -21   26.54    5.76
  18  -3 -21   22.97    5.83
  15 -18  21   20.70    6.50
 -18   3  21   30.91    5.70
 -15  21 -21    8.30    4.60
  -6 -15 -21    0.75    5.95
  21  -6 -21  -13.64    6.30
 -21   6  21   -1.63    4.77
 -16  -7 -21    3.53    5.98
 -16  -4 -21   -1.57    4.36
  -4  20 -21   -0.97    4.57
  16   4  21   -0.88    5.35
 -20  16  21    4.05    4.80
 -16  -1 -21   -7.14    3.67
  -1  17 -21    2.13    3.70
 -17  16  21    6.92    4.49
  16   1  21    1.44    4.91
 -16   2 -21   -0.05    4.91
   2  14 -21   -3.40    3.46
  16  -2  21    1.46    5.33
 -14  16  21   -3.69    3.30
  11 -16 -21    7.93    4.14
   5  11 -21   -3.26    3.45
  16  -5  21    1.82    3.84
   8   8 -21    3.34    3.09
   8 -16 -21    5.55    3.95
  16  -8  21    6.07    3.71
   5 -16 -21    2.61    3.76
  11   5 -21    5.73    4.09
  16 -11  21    6.34    4.10
   2 -16 -21   -0.76    4.98
  14   2 -21    0.33    3.79
  16 -14  21    1.55    4.58
  -1 -16 -21   13.12    5.21
 -16  17 -21   17.46    6.17
  17  -1 -21    6.77    4.61
  16 -17  21   10.57    5.02
 -17   1  21    2.44    4.14
 -16  20 -21   -3.34    4.18
  20  -4 -21    0.27    6.14
  -4 -16 -21    0.28    5.40
 -20   4  21   -7.52    5.19
 -16  23 -21    6.97    7.12
  -7 -16 -21   19.95    6.92
 -17  -5 -21   22.88    5.70
 -22  17  21   21.78    6.50
 -17  -2 -21    0.55    4.97
  -2  19 -21   -8.93    3.92
 -19  17  21   -5.03    4.46
  17   2  21    4.88    5.07
 -17   1 -21   33.70    5.51
   1  16 -21   37.62    5.37
  17  -1  21   35.23    5.91
 -16  17  21   36.01    5.23
  13 -17 -21   -5.49    5.55
   4  13 -21    1.41    3.74
 -13  17  21    7.63    4.94
  17  -4  21   -0.36    4.36
   7  10 -21   17.64    4.02
  10 -17 -21   15.02    4.74
  17  -7  21   19.78    4.92
  10   7 -21   15.33    4.05
   7 -17 -21    9.19    4.31
  17 -10  21   13.73    4.50
  13   4 -21    4.75    4.00
  17 -13  21   13.13    4.78
   1 -17 -21   13.38    5.47
  16   1 -21  -10.10    4.62
  17 -16  21   -2.86    6.60
  19  -2 -21    6.36    5.38
  -2 -17 -21    7.90    5.65
 -17  19 -21    7.12    4.29
  17 -19  21   -3.12    5.54
 -19   2  21    1.98    4.74
  -5 -17 -21   23.48    6.70
 -17  22 -21   23.88    5.56
  -3  21 -21    1.12    4.67
 -18  -3 -21  -12.48    5.57
  18   3  21   -1.96    6.47
 -21  18  21    2.35    5.44
   0  18 -21    5.11    4.74
 -18   0 -21   -5.85    4.78
  18   0  21   -8.46    5.09
 -18  18  21    3.05    4.52
 -18   3 -21    9.09    4.05
   3  15 -21    7.58    3.99
 -15  18  21    5.11    4.03
  18  -3  21    4.75    4.34
   6  12 -21   12.36    3.86
  12 -18 -21   -2.62    4.43
  18  -6  21   -2.22    4.30
   9   9 -21    6.53    3.87
   9 -18 -21   -0.64    4.49
  18  -9  21   10.82    5.16
   6 -18 -21    2.77    5.81
  12   6 -21   -4.87    4.36
  18 -12  21    5.31    6.20
  15   3 -21    6.15    4.84
   3 -18 -21    3.82    5.19
  18 -15  21   -0.96    5.09
   0 -18 -21   -4.36    4.73
  18   0 -21    0.20    5.43
  18 -18  21   -0.79    5.32
 -18   0  21   -5.13    5.30
  21  -3 -21   11.26    7.35
  -3 -18 -21   22.04    7.08
 -18  21 -21    1.83    5.81
 -21   3  21    6.56    6.01
 -19  -1 -21   33.30    6.34
  -1  20 -21   27.44    5.47
 -20  19  21   30.32    6.09
  19   1  21   32.55    7.18
   2  17 -21   -5.41    4.05
 -19   2 -21    0.87    4.60
  19  -2  21   -6.87    5.53
 -17  19  21   -1.75    4.41
   5  14 -21   21.22    4.78
  19  -5  21   22.60    5.90
   8  11 -21   -4.61    4.24
  11 -19 -21    0.35    6.31
  19  -8  21   -3.30    4.75
  11   8 -21   25.48    5.43
   8 -19 -21   30.05    5.71
  19 -11  21   36.88    6.32
   5 -19 -21   12.87    5.58
  14   5 -21    2.82    4.37
  19 -14  21    1.30    5.20
   2 -19 -21   14.09    5.34
  17   2 -21   -4.76    5.41
 -17  -2  21   10.47    5.56
  19 -17  21   -1.78    5.71
  -1 -19 -21   25.00    6.86
  20  -1 -21   21.57    7.27
  19 -20  21   32.60    7.14
 -20   1  21   24.58    6.66
 -20   1 -21    3.22    5.50
   1  19 -21    4.09    4.81
 -19  20  21    8.88    5.43
  20  -1  21   15.13    6.30
   4  16 -21    4.44    4.78
 -20   4 -21   -4.27    4.71
  20  -4  21    0.98    5.50
  13 -20 -21    3.85    5.34
   7  13 -21    7.90    4.79
  20  -7  21    8.18    5.30
  10  10 -21    3.44    4.89
  10 -20 -21   -0.43    5.05
  20 -10  21   -6.92    4.59
   7 -20 -21   -8.70    4.95
  13   7 -21   11.94    4.69
  20 -13  21    9.69    5.11
   4 -20 -21    9.07    5.73
  16   4 -21   -1.32    4.76
  20 -16  21   -3.03    5.72
   1 -20 -21   17.03    6.48
  19   1 -21   13.62    6.51
 -19  -1  21   14.59    5.71
  20 -19  21   12.26    6.74
   3  18 -21   24.16    6.52
 -21   3 -21   38.35    6.38
  21  -3  21   39.71    7.44
   6  15 -21   -7.15    4.69
  21  -6  21   -7.53    5.49
   9  12 -21   13.95    5.25
  12 -21 -21    7.76    5.84
  21  -9  21   20.99    5.46
   9 -21 -21    4.11    5.56
  12   9 -21    7.35    4.69
  21 -12  21   13.74    6.26
  15   6 -21   12.13    5.98
   6 -21 -21   -3.30    5.43
  21 -15  21    8.97    6.27
   3 -21 -21    1.54    6.14
  18   3 -21    5.22    6.45
 -18  -3  21    8.35    6.42
  21 -18  21   13.85    6.99
 -22   5 -21   18.86    6.08
  22  -5  21   -2.58    6.62
   8  14 -21    6.57    5.48
  14 -22 -21  -14.40    6.26
  22  -8  21   -0.25    5.44
  11 -22 -21   15.89    6.31
  11  11 -21   13.99    5.94
  22 -11  21   21.48    6.45
   8 -22 -21   -0.74    5.80
  14   8 -21    1.36    5.84
  22 -14  21    2.92    5.75
   5 -22 -21   -9.98    5.97
  22 -17  21    7.89    6.69
  23  -7  21    7.52    6.26
  13 -23 -21    0.53    6.53
  23 -10  21    6.75    6.74
  10 -23 -21   12.55    6.76
  23 -13  21   11.08    7.26
   7 -23 -21   -6.43    6.49
  23 -16  21   -2.51    7.25
   0   1 -22    3.31    1.81
   1  -1 -22    3.76    1.97
  -1   0 -22    0.11    1.75
   0  -1  22    1.69    3.77
   1   0  22    7.70    3.82
  -1   1  22    4.43    3.17
  -2  -1 -22    5.30    2.02
  -1   3 -22   -0.19    1.77
   3  -2 -22    0.14    1.93
   1  -3  22    3.95    3.26
  -3   2  22    2.91    3.51
  -2   2 -22  200.04    6.76
   2   0 -22  197.38    8.16
   2  -2  22  194.70    9.69
  -2   0  22  214.32    9.40
   0   2  22  206.39    9.22
  -2   5 -22    1.40    1.90
   5  -3 -22    3.21    2.25
  -5   3  22    2.19    3.12
   2  -5  22    7.47    3.87
  -5   3  22    5.46    2.31
  -3   1 -22   -0.72    1.99
   2  -3 -22    3.32    2.04
   1   2 -22   -0.84    1.72
  -2   3  22   -4.53    3.00
  -2   3  22   -4.17    1.89
   3  -1  22    1.33    2.09
  -1  -2  22   -1.24    3.54
  -3   4 -22    1.15    3.40
  -1  -3 -22   -1.20    2.10
   4  -1 -22   -1.14    1.98
  -4   1  22   -8.13    2.77
   3  -4  22    4.84    3.71
  -4  -3 -22   -0.48    2.28
   7  -4 -22    2.27    2.59
  -3   7 -22    3.83    1.96
  -7   4  22   -3.16    3.42
  -7   4  22    1.70    2.38
   3  -7  22    1.73    4.20
   0   4 -22  180.38    7.07
   4  -4 -22  190.22    7.33
  -4   0 -22  192.37    7.35
  -4   4  22  204.81    9.44
  -4   4  22  201.85    7.20
   4   0  22  198.46    7.54
   0  -4  22  210.82    9.80
   3   1 -22   -2.09    1.88
  -4   3 -22    1.75    1.71
  -4   3 -22    2.96    1.99
   1  -4 -22    2.33    2.12
  -1   4  22    4.08    3.57
  -3  -1  22    2.53    3.71
   4  -3  22    2.81    2.27
  -4   6 -22  146.44    5.99
   6  -2 -22  158.65    6.76
  -6   2  22  140.99    8.17
   4  -6  22  148.68    8.88
  -4   9 -22   -1.32    1.85
  -5  -4 -22    1.64    2.63
   9  -5 -22    2.67    2.98
   4  -9  22    1.15    5.64
  -9   5  22   -0.35    2.39
  -9   5  22    1.27    3.40
   6  -5 -22   -3.14    2.19
  -1   6 -22    1.08    1.93
  -5  -1 -22   -0.56    2.21
   1  -6  22   -2.80    4.46
   5   1  22    3.64    2.44
  -6   5  22    2.07    3.20
  -6   5  22    2.18    2.25
   3  -5 -22    0.39    2.24
  -5   2 -22    0.31    2.11
   2   3 -22    4.89    1.83
  -3   5  22   -4.45    1.87
   5  -2  22    3.92    2.37
  -3   5  22   -4.81    3.12
  -2  -3  22   -0.95    3.06
   5   0 -22   -0.31    1.92
  -5   5 -22    0.97    1.84
   5  -5  22   -2.05    2.86
  -5   0  22   -0.57    3.28
   8  -3 -22   -1.75    2.44
  -5   8 -22    1.59    2.06
  -3  -5 -22    3.42    2.55
  -8   3  22    2.48    3.52
  -8   3  22   -1.45    2.48
  -5  11 -22    2.86    2.42
  11  -6 -22   -1.57    3.28
  -6  -5 -22    3.99    3.00
 -11   6  22    3.62    2.94
 -11   6  22    0.48    3.12
   8  -6 -22  160.98    7.44
  -6  -2 -22  162.05    7.24
  -2   8 -22  153.79    6.72
   2  -8  22  162.80    9.39
   6   2  22  164.29    7.57
  -8   6  22  166.27    7.04
  -8   6  22  166.70    8.25
  -6   1 -22    8.72    2.82
   5  -6 -22    5.55    2.72
   1   5 -22    6.80    2.29
  -1  -5  22    3.00    3.55
   6  -1  22    4.48    2.92
  -5   6  22    6.16    2.33
  -5   6  22    9.04    3.88
   4   2 -22  192.05    7.50
  -6   4 -22  193.16    7.20
   2  -6 -22  188.23    7.30
   6  -4  22  205.91    7.49
  -4  -2  22  188.64    9.39
  -6   7 -22   -0.32    1.76
   7  -1 -22    2.29    2.20
  -1  -6 -22    1.05    2.41
  -7   1  22    2.11    3.23
  -6  10 -22  126.74    6.00
  -4  -6 -22  132.98    7.03
  10  -4 -22  135.61    6.99
 -10   4  22  135.55    7.07
 -10   4  22  138.36    7.71
  -6  13 -22    4.98    2.89
  13  -7 -22    0.74    3.44
  -7  -6 -22    2.10    3.32
 -13   7  22   -7.27    3.57
 -13   7  22    8.68    3.51
  -7  -3 -22    6.48    2.90
  10  -7 -22    2.31    3.18
  -3  10 -22    0.60    2.29
   3 -10  22    1.70    4.37
   7   3  22    1.15    2.98
 -10   7  22   -1.64    2.68
 -10   7  22   -5.21    3.42
   7  -7 -22    0.99    2.57
   0   7 -22    1.52    2.32
  -7   0 -22    0.68    2.39
  -7   7  22    3.61    2.38
   7   0  22   -3.66    2.54
  -7   7  22   -6.19    3.65
   0  -7  22    2.08    3.78
   4  -7 -22    0.01    2.27
  -7   3 -22   -2.56    2.30
   3   4 -22   -0.35    2.15
   7  -3  22   -2.91    2.76
  -3  -4  22   -4.16    3.07
  -4   7  22   -5.13    3.68
   6   1 -22   -1.70    2.37
   1  -7 -22   -0.83    2.32
   7  -6  22   -3.32    2.30
  -6  -1  22   -5.77    3.51
  -7   9 -22    2.53    2.13
  -2  -7 -22   -1.63    2.58
   9  -2 -22   -7.13    2.75
  -9   2  22   -4.27    3.14
  -7  12 -22    1.08    2.51
  -5  -7 -22    4.50    3.19
  12  -5 -22    7.59    3.81
 -12   5  22    3.54    3.31
 -12   5  22    1.60    3.50
  15  -8 -22   -3.69    4.98
  -7  15 -22    1.09    3.21
  -8  -7 -22    0.10    3.72
 -15   8  22    4.06    3.90
  12  -8 -22  126.29    7.23
  -4  12 -22  111.49    6.51
  -8  -4 -22  118.13    7.12
 -12   8  22  123.48    6.85
 -12   8  22  118.97    7.85
   4 -12  22   97.78   10.16
   8   4  22  133.79    7.61
  -8  -1 -22    2.01    2.58
  -1   9 -22    2.73    2.44
  -9   8  22    1.88    3.62
   8   1  22    6.11    3.05
   1  -9  22    0.49    4.63
  -9   8  22    0.61    2.53
  -8   2 -22  148.10    6.72
   2   6 -22  154.86    6.93
  -2  -6  22  157.28    9.12
   8  -2  22  158.92    7.30
  -6   8  22  148.21    6.14
   5   3 -22   -0.04    2.46
   8  -5  22    2.92    2.67
  -5  -3  22   -3.94    3.64
   8   0 -22  123.00    6.31
  -8   8 -22  122.97    5.39
   0  -8 -22  113.95    6.66
  -8   0  22  128.35    7.49
   8  -8  22  115.29    6.30
  11  -3 -22    4.84    3.03
  -8  11 -22    4.76    2.58
  -3  -8 -22    1.25    2.93
 -11   3  22    3.67    3.34
 -11   3  22    4.90    3.40
  -8  14 -22  140.65    7.13
  14  -6 -22  148.92    8.80
  -6  -8 -22  157.25    8.47
 -14   6  22  143.40    7.81
  -8  17 -22    2.63    3.34
  -9  -8 -22   -1.53    3.73
 -17   9  22    2.14    4.11
  -9  -5 -22    0.97    3.13
  -5  14 -22    0.78    2.64
 -14   9  22   -0.67    2.99
  -9  -2 -22    6.15    3.11
  -2  11 -22   -1.41    2.57
 -11   9  22   -0.54    2.68
   2 -11  22   -9.19    4.90
 -11   9  22    1.24    3.69
   9   2  22    0.91    3.20
   1   8 -22   -0.58    2.14
  -9   1 -22    0.91    2.69
  -8   9  22    4.12    3.68
   9  -1  22    2.76    2.85
  -8   9  22    1.35    2.40
  -1  -8  22    2.51    4.02
   4   5 -22    0.50    2.37
   9  -4  22    5.39    2.95
  -4  -5  22   -6.71    3.57
   2  -9 -22    1.99    2.64
   7   2 -22   -2.68    2.26
  -7  -2  22    2.77    3.39
   9  -7  22    2.06    2.85
  -9  10 -22   -0.72    2.31
  10  -1 -22    3.64    2.89
  -1  -9 -22    1.31    3.15
 -10   1  22    3.34    3.46
   9 -10  22    3.12    3.03
  -4  -9 -22   -1.78    3.27
  -9  13 -22    1.47    2.64
  13  -4 -22    0.23    3.38
 -13   4  22   -2.49    3.38
  -7  -9 -22   -7.20    3.60
  16  -7 -22    3.96    4.26
 -16   7  22    2.17    3.57
 -10  -9 -22    3.64    4.25
  -9  19 -22   -1.13    4.01
 -19  10  22    0.56    4.23
 -10  -6 -22   58.86    6.90
  -6  16 -22   47.12    5.66
 -16  10  22   60.35    6.27
 -10  -3 -22    8.58    3.61
  -3  13 -22   -1.36    2.93
  10   3  22   -2.18    3.47
 -13  10  22   -1.14    4.11
   3 -13  22   -6.26    5.84
 -13  10  22    2.56    3.17
   0  10 -22   98.90    6.01
 -10   0 -22   96.72    6.45
 -10  10  22  100.10    7.89
   0 -10  22  102.66    9.03
  10   0  22  105.14    6.94
 -10  10  22   95.79    5.75
   3   7 -22   -0.29    2.52
  10  -3  22    3.38    2.87
  -3  -7  22    9.85    3.97
   4 -10 -22  118.73    6.46
   6   4 -22  109.68    6.18
  10  -6  22  115.43    6.46
  -6  -4  22  128.36    8.12
   1 -10 -22    1.81    2.96
   9   1 -22    4.00    3.07
  -9  -1  22   12.21    3.54
  10  -9  22    0.00    2.92
  -2 -10 -22   94.93    6.83
 -10  12 -22  108.50    5.80
  12  -2 -22   91.24    6.96
 -12   2  22   90.78    6.38
  -5 -10 -22   -0.78    3.73
 -10  15 -22    2.31    3.17
  15  -5 -22   -1.63    3.94
 -15   5  22   -2.04    3.47
 -10  18 -22   71.19    6.58
  -8 -10 -22   75.51    6.94
  18  -8 -22   62.12    7.77
 -18   8  22   70.88    7.48
 -10  21 -22    4.13    4.23
 -11 -10 -22    7.91    5.54
 -21  11  22    7.83    5.53
  -7  18 -22   -0.82    3.76
 -11  -7 -22    3.08    4.44
 -18  11  22  -11.64    4.29
  -4  15 -22    6.25    3.70
 -11  -4 -22   -3.57    3.14
  11   4  22    2.18    4.06
 -15  11  22    2.74    3.75
  -1  12 -22   -0.17    2.59
 -11  -1 -22    2.23    2.83
  11   1  22    0.50    3.45
 -12  11  22   -4.59    4.44
   1 -12  22   -0.84    5.64
 -12  11  22   -2.36    2.86
   2   9 -22    1.63    2.79
 -11   2 -22   -1.57    2.57
  -9  11  22   -1.09    2.51
  11  -2  22   -1.97    2.94
  -2  -9  22    1.16    4.39
  -9  11  22   10.26    4.06
   5   6 -22   -4.93    2.56
   6 -11 -22   -1.17    3.03
  -5  -6  22    2.37    3.92
  11  -5  22    3.34    2.98
   3 -11 -22    0.48    3.05
   8   3 -22    1.16    2.65
  11  -8  22    4.94    3.18
  -8  -3  22    0.32    3.69
  11   0 -22    0.14    3.30
   0 -11 -22    6.20    3.14
  11 -11  22    2.30    3.41
 -11  14 -22   -0.84    2.89
  -3 -11 -22   -0.47    3.69
  17  -6 -22    4.82    5.31
 -11  17 -22   -0.87    3.59
  -6 -11 -22    8.55    3.79
 -17   6  22    2.07    4.41
 -11  20 -22    2.75    4.46
  -9 -11 -22    7.32    5.37
 -20   9  22    7.53    5.19
 -12 -11 -22   -2.66    5.56
 -12  -8 -22   65.08    7.23
  -8  20 -22   54.11    6.12
 -20  12  22   46.06    6.58
  -5  17 -22   -3.40    3.62
 -12  -5 -22   -0.24    4.42
 -17  12  22    1.82    4.14
 -12  -2 -22  109.30    6.86
  -2  14 -22   76.24    7.96
  12   2  22   91.73    7.72
 -14  12  22  102.57    6.77
   2 -14  22   78.55   14.18
 -12   1 -22    1.12    3.04
   1  11 -22    2.17    2.63
  12  -1  22   -1.02    3.62
 -11  12  22   -3.70    3.97
 -11  12  22    6.06    2.94
  -1 -11  22    8.94    5.48
   8 -12 -22  126.73    7.02
   4   8 -22  136.29    6.90
  -4  -8  22  135.04    8.95
  12  -4  22  127.80    7.55
   5 -12 -22    5.78    3.30
   7   5 -22    1.86    2.68
  12  -7  22    3.09    3.08
  -7  -5  22   -0.50    3.87
  10   2 -22  124.17    7.54
   2 -12 -22  122.85    7.25
  12 -10  22  119.53    7.13
 -12  13 -22    5.73    2.92
  -1 -12 -22    3.23    3.75
  12 -13  22    1.12    3.79
  16  -4 -22   84.41    7.69
 -12  16 -22   86.14    6.20
 -16   4  22   75.79    7.61
 -12  19 -22   -6.85    4.03
  19  -7 -22   -7.81    4.94
  -7 -12 -22    6.88    4.99
 -19   7  22    3.14    4.94
 -12  22 -22   40.55    6.23
 -10 -12 -22   25.54    6.53
 -22  10  22   27.31    6.44
 -13  -9 -22   10.40    5.28
  -9  22 -22    1.35    4.43
 -22  13  22   -1.81    5.76
 -13  -6 -22   10.21    4.98
  -6  19 -22    1.02    3.67
 -19  13  22    0.67    4.90
  -3  16 -22    9.98    3.93
 -13  -3 -22    1.48    3.74
 -16  13  22    5.40    4.11
  13   3  22   10.62    4.55
 -13   0 -22   -1.33    3.08
   0  13 -22   -1.59    3.53
  13   0  22   -5.65    3.37
 -13  13  22    6.12    3.28
 -13  13  22   14.85    5.34
   3  10 -22   -2.28    2.61
 -13   3 -22    1.00    2.83
  -3 -10  22    6.25    6.68
  13  -3  22    2.18    3.45
 -10  13  22   -5.54    2.94
   7 -13 -22    0.80    3.15
   6   7 -22   -0.35    3.01
  13  -6  22   -4.29    3.09
   9   4 -22   -0.10    2.81
   4 -13 -22    7.16    3.55
  13  -9  22    8.84    3.74
   1 -13 -22    2.91    3.65
  13 -12  22   -3.99    3.40
 -13  15 -22   -5.65    3.01
  -2 -13 -22   10.29    4.02
  15  -2 -22   -0.99    3.86
 -15   2  22    1.91    4.35
  -5 -13 -22    8.63    4.29
 -13  18 -22    3.41    3.89
  18  -5 -22   -0.08    5.23
 -18   5  22    8.38    5.19
 -13  21 -22   -7.61    4.73
  -8 -13 -22    1.93    5.48
 -21   8  22   10.61    5.45
  -7  21 -22    9.66    4.70
 -14  -7 -22    3.85    5.36
 -21  14  22    6.27    4.72
 -14  -4 -22   52.91    6.55
  -4  18 -22   51.86    6.14
 -18  14  22   51.41    5.97
  14   4  22   36.98    6.31
 -14  -1 -22    5.09    4.18
  -1  15 -22   -2.03    3.58
 -15  14  22   -9.11    4.14
  14   1  22   10.70    4.94
   2  12 -22  109.55    6.66
 -14   2 -22   99.89    6.99
 -12  14  22  107.19    6.46
  14  -2  22  100.37    7.76
   5   9 -22    4.09    2.93
   9 -14 -22    7.33    3.52
  14  -5  22    7.34    3.80
   6 -14 -22   94.46    7.29
   8   6 -22  101.92    6.69
  14  -8  22  107.91    7.34
  11   3 -22    6.61    3.71
   3 -14 -22   10.11    4.23
  14 -11  22    4.14    3.66
  14   0 -22   92.33    8.03
   0 -14 -22  110.39    8.04
  14 -14  22  103.18    8.13
  17  -3 -22  -10.45    5.19
 -14  17 -22   -7.87    3.43
  -3 -14 -22    4.29    4.84
 -17   3  22   -2.14    4.64
  -6 -14 -22   35.07    6.81
 -14  20 -22   34.13    5.56
  20  -6 -22   37.24    6.93
 -20   6  22   34.54    6.34
  -9 -14 -22   -5.41    5.32
  -5  20 -22   -7.13    4.16
 -15  -5 -22   -0.95    4.66
 -20  15  22    6.09    4.98
  -2  17 -22    3.20    4.15
 -15  -2 -22    4.92    4.52
 -17  15  22    5.44    4.34
  15   2  22    4.06    4.34
   1  14 -22    3.85    3.76
 -15   1 -22    5.21    4.94
  15  -1  22   -3.38    4.55
 -14  15  22    1.68    3.67
   4  11 -22   -0.96    2.90
  15  -4  22    2.62    4.22
   7   8 -22   -2.71    3.51
   8 -15 -22   -0.77    3.92
  15  -7  22    6.65    3.54
  10   5 -22    1.89    3.63
   5 -15 -22    3.17    3.81
  15 -10  22   -2.59    3.73
   2 -15 -22    7.30    4.37
  13   2 -22   -6.80    4.06
  15 -13  22    5.32    4.34
  -1 -15 -22   14.69    5.00
  16  -1 -22    6.89    5.10
  15 -16  22   -4.93    4.71
 -16   1  22    6.11    4.80
  19  -4 -22    6.25    5.59
  -4 -15 -22    3.09    5.53
 -15  19 -22   -6.77    4.32
 -19   4  22    6.78    4.81
 -15  22 -22   -2.99    4.51
  -7 -15 -22   15.81    6.59
 -16  -6 -22   21.95    6.72
 -16  -3 -22    2.70    4.41
  -3  19 -22   -2.31    4.56
  16   3  22   -1.11    5.09
 -19  16  22    7.01    4.76
   0  16 -22   76.55    7.34
 -16   0 -22   80.68    7.70
  16   0  22   88.25    8.51
 -16  16  22   80.22    7.04
   3  13 -22    2.63    3.87
 -16   3 -22    6.79    3.97
  16  -3  22   -3.22    4.34
   6  10 -22   85.30    6.42
  10 -16 -22   81.55    7.57
  16  -6  22   75.44    7.37
   9   7 -22    1.09    3.72
   7 -16 -22    3.18    4.36
  16  -9  22    5.55    4.34
   4 -16 -22   82.54    7.66
  12   4 -22   67.50    6.58
  16 -12  22   56.39    7.25
   1 -16 -22    3.01    4.77
  15   1 -22    1.25    4.72
  16 -15  22   -1.89    4.62
  -2 -16 -22   71.28    8.51
  18  -2 -22   76.03    8.31
 -18   2  22   57.42    7.19
 -16  21 -22  -10.45    4.69
  21  -5 -22   -0.21    6.24
  -5 -16 -22   -3.71    5.03
 -21   5  22   -1.08    5.75
 -17  -4 -22   11.11    5.85
  -4  21 -22   11.69    7.34
 -21  17  22    9.16    5.92
  17   4  22   -2.74    5.40
  -1  18 -22   -3.23    4.15
 -17  -1 -22   -6.94    4.88
  17   1  22    4.51    5.57
 -18  17  22    5.81    4.89
   2  15 -22   -0.11    4.17
 -17   2 -22   -1.61    3.69
  17  -2  22   -1.18    4.24
 -15  17  22    3.00    4.08
   5  12 -22    5.18    4.20
  17  -5  22    7.81    4.70
   9 -17 -22   -6.41    4.34
   8   9 -22    2.11    3.50
   6 -17 -22    9.26    4.40
  11   6 -22    8.62    3.96
  17 -11  22    5.54    5.18
  14   3 -22    6.34    4.36
   3 -17 -22    3.48    4.88
  17 -14  22    7.65    7.88
  17   0 -22    4.56    5.50
   0 -17 -22    5.89    5.06
  17 -17  22   -1.01    5.51
 -17   0  22   -9.67    5.03
  -3 -17 -22   -0.47    5.16
  20  -3 -22    4.58    6.68
 -20   3  22   10.23    6.01
  -2  20 -22   55.13    7.11
 -18  -2 -22   39.84    6.63
 -20  18  22   42.76    6.52
  18   2  22   42.48    7.85
   1  17 -22   -1.19    4.58
 -18   1 -22    1.95    5.11
  18  -1  22    3.03    5.39
 -17  18  22   -3.09    4.67
   4  14 -22   45.22    5.76
 -18   4 -22   52.01    6.30
  18  -4  22   59.86    7.21
   7  11 -22   12.00    4.53
  11 -18 -22   -0.61    4.91
  18  -7  22    2.14    4.28
   8 -18 -22   78.54   11.80
  10   8 -22   79.88    7.79
  18 -10  22   73.86    8.37
  13   5 -22    0.09    4.68
   5 -18 -22    1.11    5.11
  18 -13  22    7.69    5.16
  16   2 -22   46.13    6.89
   2 -18 -22   51.88    7.15
  18 -16  22   58.44    7.41
  -1 -18 -22   17.22    6.34
  19  -1 -22    6.48    5.99
 -19   1  22  -13.21    5.58
   0  19 -22    0.43    5.34
 -19   0 -22    2.51    4.79
  19   0  22   10.28    6.25
 -19  19  22  -10.33    5.07
 -19   3 -22    2.53    4.84
   3  16 -22    3.06    4.76
  19  -3  22    1.18    5.58
   6  13 -22    7.14    4.61
  19  -6  22    1.69    5.42
  10 -19 -22    4.88    5.13
   9  10 -22    2.40    4.59
  19  -9  22   -2.95    4.99
  12   7 -22   -5.93    4.57
   7 -19 -22    5.61    5.14
  19 -12  22    8.19    5.19
  15   4 -22    3.02    5.37
   4 -19 -22    8.60    5.49
  19 -15  22   -2.40    5.63
   1 -19 -22   -1.76    5.75
  18   1 -22    9.48    6.39
  19 -18  22   -4.20    6.48
 -18  -1  22    3.86    5.79
  -2 -19 -22  -10.38    6.78
   2  18 -22   32.02    6.40
 -20   2 -22   25.87    6.71
  20  -2  22   33.18    7.03
 -20   5 -22   -2.66    4.85
   5  15 -22    9.25    5.23
  20  -5  22   10.39    6.06
   8  12 -22   45.73    6.16
  12 -20 -22   40.45    6.90
  20  -8  22   43.09    6.60
   9 -20 -22   -5.33    5.42
  11   9 -22    0.14    5.16
  20 -11  22   12.52    5.98
   6 -20 -22   54.94    7.22
  14   6 -22   62.64    7.14
  20 -14  22   48.74    7.41
  17   3 -22    2.66    5.43
   3 -20 -22    0.07    5.23
  20 -17  22    9.91    6.64
 -17  -3  22    6.03    5.22
   0 -20 -22   44.48    8.13
  20 -20  22   28.66    7.55
 -21   4 -22   -7.24    5.20
  21  -4  22    6.93    6.18
   7  14 -22    7.73    4.74
  21  -7  22   -1.52    6.10
  11 -21 -22   -7.36    5.77
  10  11 -22   -3.42    4.99
  21 -10  22    6.73    5.47
   8 -21 -22    2.98    6.10
  13   8 -22   11.42    5.79
  21 -13  22    7.49    6.44
  16   5 -22    2.22    5.55
   5 -21 -22    2.64    6.40
  21 -16  22   -1.04    6.50
   2 -21 -22   -4.36    5.94
  21 -19  22  -14.33    6.97
 -22   6 -22   24.66    6.54
  22  -6  22   26.25    7.19
  13 -22 -22   -0.57    6.37
   9  13 -22   -1.00    6.25
  22  -9  22    9.76    6.23
  12  10 -22   49.06    6.99
  10 -22 -22   42.49    7.56
  22 -12  22   39.73    7.88
   7 -22 -22    6.42    6.48
  22 -15  22   -2.30    6.77
  12 -23 -22   10.25    6.98
  23 -11  22   -6.20    6.55
   9 -23 -22    5.84    6.82
  23 -14  22   -5.80    7.36
   1   0 -23    8.08    2.19
  -1   1 -23    6.48    2.15
  -1   0  23   11.68    3.90
   0   1  23   13.66    4.35
   1  -1  23    8.42    3.88
   2  -2 -23    6.03    4.29
   0   2 -23    9.06    2.25
  -2   2  23    8.89    3.99
   0  -2  23   12.02    4.39
   3  -1 -23    6.48    2.32
  -1  -2 -23    8.80    2.45
  -2   3 -23   -2.37    2.00
  -3   1  23    3.91    4.94
   2  -3  23    2.79    4.26
   4  -3 -23   12.84    2.68
  -1   4 -23   11.59    2.38
  -3  -1 -23    9.64    2.50
   1  -4  23    6.37    3.93
  -4   3  23   11.16    2.71
  -4   3  23    5.20    3.60
   2   1 -23   10.30    2.35
  -2  -1  23   12.14    4.64
   5  -2 -23    3.63    2.58
  -3   5 -23    2.45    1.95
  -2  -3 -23    9.41    2.54
  -5   2  23    8.56    3.60
  -2   6 -23   -4.72    1.98
   6  -4 -23    2.18    2.50
  -4  -2 -23    3.18    2.50
  -6   4  23    0.48    2.45
  -6   4  23   -0.29    3.72
   1   3 -23    0.40    2.10
  -4   1 -23    3.96    2.23
   3  -4 -23   -4.29    2.29
   4  -1  23   -2.30    2.36
  -1  -3  23    1.70    3.94
  -3   4  23    4.61    2.55
  -3   4  23   -0.66    4.02
   0  -4 -23    6.46    2.46
  -4   4 -23    2.94    2.31
   4   0 -23    5.71    2.49
  -4   0  23    0.48    3.79
  -4   7 -23    0.13    2.09
   7  -3 -23    1.13    2.56
  -3  -4 -23    3.66    2.73
  -7   3  23    4.11    3.42
  -7   3  23    4.88    2.73
  -3   8 -23   13.63    2.64
  -5  -3 -23   12.11    3.16
   8  -5 -23   10.46    3.20
  -8   5  23   15.27    3.27
   3  -8  23   16.77    5.30
  -8   5  23   17.10    4.28
  -5   0 -23    2.81    2.31
   5  -5 -23    2.36    2.51
   0   5 -23    4.16    2.30
   5   0  23    4.00    2.69
  -5   5  23    1.78    2.38
   0  -5  23    7.60    4.02
  -5   5  23    3.49    3.91
   3   2 -23   15.20    2.67
  -5   3 -23   13.07    2.60
   5  -3  23   12.75    2.89
  -3  -2  23    6.52    3.81
  -5   6 -23    6.31    2.20
   6  -1 -23    7.11    2.71
  -1  -5 -23    4.18    2.50
  -6   1  23   11.99    3.96
  -5   9 -23    5.72    2.32
   9  -4 -23    8.53    3.11
  -4  -5 -23    0.66    2.83
  -9   4  23    3.60    3.26
  -9   4  23    7.86    3.30
  -6  -4 -23    1.54    3.03
  10  -6 -23    8.03    3.04
  -4  10 -23    3.02    2.52
 -10   6  23   11.00    4.06
 -10   6  23    5.83    3.07
  -6  -1 -23   -2.97    2.44
   7  -6 -23   -0.73    2.66
  -1   7 -23    1.17    2.22
  -7   6  23    5.99    3.91
  -7   6  23    0.67    2.44
   6   1  23   -0.58    2.87
   1  -7  23    4.26    4.83
   2   4 -23   -0.88    2.20
  -2  -4  23    0.14    3.77
  -4   6  23    4.96    3.70
   5   1 -23   -0.19    2.38
   1  -6 -23    0.38    2.82
  -5  -1  23   -4.58    3.64
  -6   8 -23   -1.24    2.11
   8  -2 -23   -2.87    2.93
  -2  -6 -23   -0.58    2.53
  -8   2  23   -3.12    3.58
  11  -5 -23    0.15    3.50
  -5  -6 -23    4.21    3.06
  -6  11 -23    3.17    2.53
 -11   5  23    6.72    3.86
 -11   5  23   -4.59    3.05
  -5  12 -23   33.44    4.12
  -7  -5 -23   36.01    4.89
  12  -7 -23   32.31    4.97
 -12   7  23   34.74    4.68
 -12   7  23   30.30    5.11
  -7  -2 -23   -0.38    2.74
  -2   9 -23    2.32    2.42
   9  -7 -23   -3.28    2.81
   7   2  23   -0.94    2.86
  -9   7  23   -6.78    3.99
   2  -9  23    2.64    5.22
  -9   7  23    0.37    2.81
   1   6 -23   16.51    2.85
  -7   1 -23   17.08    3.34
  -6   7  23   18.16    4.77
  -6   7  23   16.53    2.93
   7  -1  23   24.30    3.70
  -1  -6  23   13.18    4.63
  -7   4 -23    6.27    2.36
   3  -7 -23   12.51    2.91
   4   3 -23    6.26    2.64
   7  -4  23    4.17    2.69
  -4  -3  23    6.81    4.18
   0  -7 -23    4.78    2.90
   7   0 -23   11.04    3.22
  -7   0  23   11.54    3.89
  10  -3 -23   28.62    4.28
  -7  10 -23   27.60    3.31
  -3  -7 -23   29.98    4.09
 -10   3  23   22.04    4.01
 -10   3  23   23.51    4.45
  -7  13 -23   -1.79    2.77
  13  -6 -23   -1.37    3.94
  -6  -7 -23    3.38    3.45
 -13   6  23   -2.72    3.63
  14  -8 -23    3.27    4.56
  -6  14 -23    0.58    3.12
  -8  -6 -23   -1.95    3.71
 -14   8  23    1.11    3.67
  -8  -3 -23   -1.91    3.10
  11  -8 -23    1.87    3.46
  -3  11 -23    2.23    2.87
   3 -11  23   -1.93    5.88
   8   3  23    3.70    3.57
 -11   8  23    6.26    4.03
 -11   8  23   -2.03    3.08
  -8   0 -23    9.99    2.88
   0   8 -23    3.14    2.63
  -8   8  23    3.59    2.53
  -8   8  23    7.99    4.27
   8   0  23    3.14    3.03
   0  -8  23   17.60    4.99
   3   5 -23    0.48    2.64
  -8   3 -23    1.65    2.50
   8  -3  23   -3.43    2.68
  -3  -5  23   -2.15    3.55
   2  -8 -23    5.89    2.82
   6   2 -23    4.97    2.43
  -6  -2  23    4.43    3.46
   8  -6  23   -2.97    2.87
  -1  -8 -23    2.68    2.95
  -8   9 -23   -1.31    2.36
   9  -1 -23    0.67    2.76
  -9   1  23    0.04    3.62
  -8  12 -23    7.54    2.96
  -4  -8 -23   11.17    3.70
  12  -4 -23    6.93    3.57
 -12   4  23    0.42    3.51
  15  -7 -23    1.93    4.22
  -7  -8 -23    1.72    4.09
  -8  15 -23   -1.31    3.24
 -15   7  23    1.62    3.82
  -7  16 -23   21.58    3.89
  -9  -7 -23   17.57    4.95
 -16   9  23   20.96    4.85
  -9  -4 -23    4.48    3.28
  -4  13 -23    5.34    2.97
 -13   9  23    1.85    3.56
   9   4  23    1.96    3.66
  -1  10 -23   33.52    4.20
  -9  -1 -23   37.84    4.94
 -10   9  23   37.69    5.49
   1 -10  23   39.77    6.77
   9   1  23   40.89    4.93
 -10   9  23   33.88    3.88
   2   7 -23    7.51    2.89
  -9   2 -23    6.82    2.73
  -2  -7  23   -8.73    4.24
  -7   9  23    0.45    6.37
   9  -2  23    0.90    3.00
   5   4 -23    9.49    2.80
   4  -9 -23    8.70    3.07
   9  -5  23   10.93    3.18
  -5  -4  23   15.98    4.45
   1  -9 -23   12.46    3.30
   8   1 -23    9.97    3.46
   9  -8  23   10.73    3.32
  -8  -1  23   13.53    4.18
  -9  11 -23    5.02    2.59
  11  -2 -23   -4.21    3.52
  -2  -9 -23   10.31    3.50
 -11   2  23    5.05    3.45
 -11   2  23    0.72    5.16
  -5  -9 -23   14.26    4.34
  -9  14 -23   20.24    3.71
  14  -5 -23   11.36    8.31
 -14   5  23   19.12    6.05
  17  -8 -23    1.92    5.00
  -9  17 -23    0.04    3.60
  -8  -9 -23   -2.51    4.32
 -17   8  23    7.04    4.13
 -10  -8 -23    0.55    4.73
  -8  18 -23    2.41    3.98
 -18  10  23    7.25    4.15
  -5  15 -23   -0.96    3.40
 -10  -5 -23    3.75    4.24
 -15  10  23    6.39    3.85
 -10  -2 -23    3.25    3.42
  -2  12 -23   -3.66    2.64
 -12  10  23    7.08    4.65
   2 -12  23   -0.41    5.28
 -12  10  23    2.01    3.11
  10   2  23    1.14    3.76
 -10   1 -23   -0.13    2.90
   1   9 -23    1.93    2.83
  -1  -9  23    5.59    4.70
  -9  10  23    2.94    2.69
  10  -1  23    1.63    3.32
  -9  10  23   -3.67    4.50
   4   6 -23    0.83    2.44
  -4  -6  23    2.95    4.12
  10  -4  23   -0.02    3.10
   3 -10 -23    5.65    3.25
   7   3 -23    1.06    2.96
  -7  -3  23    4.57    4.06
  10  -7  23    9.30    3.26
   0 -10 -23    0.43    3.22
  10   0 -23   -1.29    2.86
 -10   0  23    4.66    4.27
 -10  13 -23   -2.46    2.87
  13  -3 -23   -2.22    4.28
  -3 -10 -23   -2.05    3.38
 -13   3  23   -0.89    4.16
  -6 -10 -23   11.30    4.50
 -10  16 -23    8.65    3.78
  16  -6 -23   -6.12    4.34
 -16   6  23    2.69    4.39
  -9 -10 -23   -1.85    4.13
 -10  19 -23    3.20    4.42
 -19   9  23    3.20    4.30
  -9  20 -23   17.81    5.29
 -11  -9 -23   25.47    6.06
 -20  11  23   39.42    6.42
  -6  17 -23    0.51    3.46
 -11  -6 -23   10.77    4.37
 -17  11  23    6.90    4.40
 -11  -3 -23   47.52    6.04
  -3  14 -23   50.41    5.13
  11   3  23   46.57    6.24
 -14  11  23   43.33    5.17
 -11   0 -23   -0.29    3.18
   0  11 -23    3.99    3.25
   0 -11  23    7.95    5.90
 -11  11  23   -2.90    4.46
 -11  11  23    0.29    2.96
  11   0  23    2.38    3.09
 -11   3 -23   23.04    3.77
   3   8 -23   35.12    4.37
  11  -3  23   22.62    4.13
  -3  -8  23   37.34    5.89
   6   5 -23    2.94    3.05
   5 -11 -23    6.46    3.37
  11  -6  23   12.87    3.50
  -6  -5  23    3.80    4.35
   2 -11 -23   14.00    3.70
   9   2 -23    7.47    3.68
  11  -9  23   15.88    3.80
  -1 -11 -23   22.12    4.58
  12  -1 -23   25.12    4.93
  15  -4 -23    7.77    4.88
  -4 -11 -23    2.11    3.88
 -11  15 -23    5.59    3.40
 -15   4  23    5.10    4.54
  -7 -11 -23   26.78    5.57
  18  -7 -23   34.49    6.78
 -11  18 -23   26.26    4.88
 -18   7  23   34.12    6.14
 -11  21 -23   -2.19    4.33
 -10 -11 -23    5.31    5.54
 -21  10  23    5.39    5.82
 -12 -10 -23    0.58    5.72
 -12  -7 -23   11.76    5.16
  -7  19 -23    0.42    3.89
 -19  12  23    8.40    4.90
 -12  -4 -23   -0.27    4.19
  -4  16 -23    1.87    3.90
  12   4  23    9.80    4.35
 -16  12  23    5.01    4.05
  -1  13 -23   -5.57    3.02
 -12  -1 -23   -4.50    3.36
 -13  12  23   -5.46    3.26
  12   1  23    6.56    4.17
   2  10 -23   -0.43    2.75
 -12   2 -23   -0.94    3.18
 -10  12  23    6.41    5.07
  -2 -10  23    2.46    7.35
  12  -2  23    3.96    3.32
   7 -12 -23   -1.24    3.33
   5   7 -23   -4.16    2.99
  -5  -7  23   -5.17    4.76
  12  -5  23   -3.84    3.22
   4 -12 -23    0.23    3.47
   8   4 -23    0.87    2.80
  12  -8  23    1.27    3.39
  11   1 -23    6.73    4.68
   1 -12 -23    8.02    3.68
  12 -11  23    6.55    3.88
  14  -2 -23    1.93    3.73
  -2 -12 -23    1.12    4.09
 -12  14 -23    3.05    3.27
 -14   2  23    7.37    4.24
  17  -5 -23    3.25    5.23
  -5 -12 -23   -1.43    4.84
 -12  17 -23    6.77    3.93
 -17   5  23    1.97    4.72
  -8 -12 -23    8.01    5.68
 -12  20 -23    4.45    4.23
 -20   8  23    3.78    5.13
  -8  21 -23    6.13    5.14
 -13  -8 -23    3.74    5.13
 -21  13  23    7.49    5.89
  -5  18 -23   27.27    4.95
 -13  -5 -23   26.04    5.27
 -18  13  23   17.58    5.35
  -2  15 -23   -0.33    3.61
 -13  -2 -23   -5.90    3.94
  13   2  23    1.32    4.46
 -15  13  23   -1.53    3.80
   1  12 -23   27.54    4.48
 -13   1 -23   22.62    4.63
  13  -1  23   27.91    4.65
 -12  13  23   31.10    4.35
   4   9 -23    0.84    3.00
  13  -4  23    1.05    3.57
   6 -13 -23   16.30    4.12
   7   6 -23   10.83    3.38
  13  -7  23    8.77    3.71
   3 -13 -23    9.24    4.20
  13 -10  23    9.68    4.11
  13   0 -23   -3.28    3.97
   0 -13 -23    7.27    4.23
  13 -13  23   12.73    4.54
  -3 -13 -23   23.08    5.50
  16  -3 -23   17.80    5.59
 -13  16 -23   22.99    5.31
 -16   3  23   14.95    5.20
  19  -6 -23    3.27    5.70
  -6 -13 -23    4.76    4.97
 -13  19 -23    1.12    4.45
 -19   6  23   -0.64    4.69
  -9 -13 -23   12.24    6.50
 -13  22 -23   33.04    7.76
  -6  20 -23    0.10    4.87
 -14  -6 -23    1.17    4.70
 -20  14  23   -3.57    5.12
 -14  -3 -23   -2.29    4.06
  -3  17 -23   11.36    4.63
 -17  14  23    5.26    4.41
  14   3  23    7.24    5.22
   0  14 -23    0.16    3.83
 -14   0 -23   -2.82    4.12
  14   0  23    3.08    4.68
   3  11 -23    4.30    3.16
 -14   3 -23   -2.80    3.28
  14  -3  23    4.61    4.16
   6   8 -23    5.09    3.28
   8 -14 -23    3.21    3.96
  14  -6  23   -3.42    3.70
   9   5 -23    4.96    3.30
   5 -14 -23    2.39    3.91
  14  -9  23    3.25    4.10
   2 -14 -23    0.79    4.25
  12   2 -23    7.40    3.90
  14 -12  23   -2.63    4.14
  -1 -14 -23   11.03    4.69
  15  -1 -23   17.44    4.85
 -15   1  23   13.51    4.48
  -4 -14 -23    2.32    5.47
 -14  18 -23    8.07    4.42
  18  -4 -23   -6.69    5.77
 -18   4  23   -9.51    4.87
  -7 -14 -23   -1.08    5.73
 -14  21 -23   14.67    5.46
 -21   7  23   24.75    6.41
 -15  -7 -23   20.11    6.76
  -4  19 -23   -4.94    4.61
 -15  -4 -23    1.17    5.19
  15   4  23   -5.06    5.41
 -19  15  23   -0.32    4.81
 -15  -1 -23   41.19    5.62
  -1  16 -23   36.67    5.26
 -16  15  23   36.06    5.60
  15   1  23   40.99    6.55
   2  13 -23    2.32    3.75
 -15   2 -23   -1.32    3.89
  15  -2  23    1.98    4.90
   5  10 -23   22.23    4.66
  15  -5  23   25.80    5.10
   8   7 -23   -0.09    3.97
   7 -15 -23   12.04    4.14
  15  -8  23    5.66    4.24
   4 -15 -23   10.91    4.53
  11   4 -23    1.42    3.98
  15 -11  23   10.07    4.78
  14   1 -23   10.42    4.69
   1 -15 -23   13.37    5.16
  15 -14  23   11.30    4.90
  17  -2 -23    9.27    5.78
  -2 -15 -23    7.89    5.40
 -17   2  23   14.64    5.53
  -5 -15 -23   14.56    6.60
 -15  20 -23   17.51    5.33
  20  -5 -23    0.26    7.15
 -20   5  23    9.46    5.71
 -16  -5 -23    1.26    4.97
 -21  16  23   -2.41    6.64
  -2  18 -23    0.92    4.47
 -16  -2 -23  -11.69    4.80
 -18  16  23   -3.29    4.29
  16   2  23    5.18    5.87
   1  15 -23   13.79    4.60
 -16   1 -23   -0.43    4.63
  16  -1  23   -3.22    4.85
 -15  16  23   -2.61    4.18
 -16   4 -23   -2.96    3.83
   4  12 -23   -2.84    3.60
  16  -4  23   -0.27    3.79
   9 -16 -23   14.24    4.50
   7   9 -23    5.88    4.19
  16  -7  23   13.24    4.86
  10   6 -23    6.00    4.24
   6 -16 -23    9.50    4.39
  16 -10  23   -0.44    4.45
   3 -16 -23    6.41    4.83
  13   3 -23    7.63    4.89
  16 -13  23    5.84    4.96
  16   0 -23   -4.92    5.03
   0 -16 -23   -1.64    5.26
 -16   0  23  -10.22    4.86
  19  -3 -23   -1.42    6.82
  -3 -16 -23    1.79    5.82
 -19   3  23    1.45    5.10
  -3  20 -23   40.21    9.36
 -17  -3 -23   25.88    6.76
 -20  17  23   27.99    6.27
  17   3  23   18.08    6.87
   0  17 -23    3.12    4.81
 -17   0 -23    2.51    4.86
  17   0  23   -1.63    5.53
 -17  17  23    5.27    4.99
   3  14 -23   24.57    5.36
 -17   3 -23   25.04    5.18
  17  -3  23   31.25    5.70
   6  11 -23   -4.57    4.03
  17  -6  23    5.06    5.03
   9   8 -23   31.04    5.66
   8 -17 -23   36.93    5.92
  17  -9  23   33.76    5.65
   5 -17 -23   10.98    5.14
  12   5 -23   19.04    5.37
  17 -12  23    7.98    5.22
   2 -17 -23    1.57    5.41
  15   2 -23    3.37    5.44
  17 -15  23   16.66    5.45
  -1 -17 -23   21.37    6.42
  18  -1 -23   28.78    6.71
 -18   1  23   19.84    6.33
  -4 -17 -23    0.66    6.44
 -18  -1 -23   11.64    5.96
  -1  19 -23    1.43    5.35
 -19  18  23   -0.66    5.33
  18   1  23    0.08    5.98
 -18   2 -23    0.62    5.02
   2  16 -23    9.72    4.53
  18  -2  23    9.65    5.98
   5  13 -23   14.92    5.08
  18  -5  23    8.05    5.47
   8  10 -23   -1.06    4.32
  10 -18 -23    6.21    5.33
  18  -8  23    4.74    5.05
   7 -18 -23   10.10    5.05
  11   7 -23   11.84    4.93
  18 -11  23   -2.11    5.25
   4 -18 -23    1.73    5.27
  14   4 -23    2.00    5.11
  18 -14  23    4.69    5.70
   1 -18 -23   10.86    6.33
  17   1 -23    7.81    5.56
  18 -17  23   12.34    5.97
 -17  -1  23   14.71    6.19
  -2 -18 -23    9.96    6.74
 -19   1 -23   14.19    5.73
   1  18 -23   13.83    6.21
  19  -1  23   16.99    6.92
 -19   4 -23   -1.03    4.19
   4  15 -23   -6.22    4.71
  19  -4  23   -7.49    5.52
   7  12 -23   26.13    5.19
  19  -7  23   18.77    6.02
   9 -19 -23    2.90    5.34
  10   9 -23   13.36    5.30
  19 -10  23    4.07    5.34
  13   6 -23   12.45    5.70
   6 -19 -23   12.39    5.78
  19 -13  23   11.97    6.08
  16   3 -23    5.72    6.03
   3 -19 -23    2.27    5.88
  19 -16  23    9.93    6.31
   0 -19 -23    8.19    6.59
 -20   3 -23    9.28    5.85
  20  -3  23   13.30    6.56
   6  14 -23   -0.90    4.51
  20  -6  23    8.68    5.97
  11 -20 -23    2.81    6.12
   9  11 -23   -0.74    4.71
  20  -9  23   -4.17    5.41
  12   8 -23    1.29    5.67
   8 -20 -23    6.41    5.96
  20 -12  23    5.11    6.18
   5 -20 -23   15.73    6.29
  15   5 -23    6.61    6.15
  20 -15  23    6.79    6.18
   2 -20 -23   -4.29    6.43
  20 -18  23    3.79    7.02
 -21   5 -23   26.36    6.48
  21  -5  23   23.44    7.39
   8  13 -23    1.11    5.56
  21  -8  23    5.82    6.42
  11  10 -23   14.76    6.03
  10 -21 -23   26.42    6.79
  21 -11  23   16.82    6.83
   7 -21 -23   26.39    6.89
  14   7 -23    3.86    7.37
  21 -14  23    3.49    6.62
   4 -21 -23   26.18    6.93
  21 -17  23    7.67    7.17
  22  -7  23   16.42    6.89
  12 -22 -23    5.21    6.94
  22 -10  23    4.96    6.54
   9 -22 -23   -1.01    6.65
  22 -13  23    1.77    7.11
   2  -1 -24   -1.34    2.37
  -2   1  24   -3.99    6.99
   1   1 -24    6.33    2.38
  -1  -1  24    7.58    4.40
   4  -2 -24  164.84    6.97
  -2   4 -24  177.74    6.76
  -4   2  24  162.56    8.96
   3  -3 -24    3.37    3.02
   0   3 -24    3.45    2.31
  -3   3  24    4.80    3.05
   0  -3  24   -4.42    4.37
  -3   3  24    6.67    5.16
   3   0 -24    0.43    2.42
  -3   0  24    7.10    4.47
  -3  -3 -24    0.44    2.77
  -3   6 -24    0.08    2.24
   6  -3 -24   -0.66    2.72
  -6   3  24    2.05    2.75
  -6   3  24   -1.88    4.25
  -4  -1 -24   -5.10    2.59
  -1   5 -24    1.31    2.26
   5  -4 -24   -2.75    2.53
   1  -5  24    0.91    4.68
  -5   4  24    3.17    3.92
  -5   4  24   -3.42    2.52
   2   2 -24  145.66    6.49
  -2  -2  24  157.39    8.89
   5  -1 -24   -0.47    2.49
  -1  -4 -24    6.82    3.05
  -4   5 -24   -1.36    2.17
  -5   1  24    8.88    4.35
  -4  -4 -24  141.62    7.25
  -4   8 -24  148.83    6.65
   8  -4 -24  137.27    7.36
  -8   4  24  156.98    8.94
  -8   4  24  146.03    7.31
  -5  -2 -24   -2.36    2.87
  -2   7 -24   -3.55    2.32
   7  -5 -24   -3.01    2.95
   2  -7  24   -2.37    5.05
  -7   5  24   -4.59    2.66
  -7   5  24    2.66    3.74
   1   4 -24    2.33    2.35
  -5   1 -24    3.82    3.00
   5  -1  24    4.11    3.14
  -1  -4  24   -6.84    4.13
  -4   5  24    4.11    4.44
   4   1 -24    3.29    2.36
  -4  -1  24    1.78    3.71
   7  -2 -24   -0.45    2.45
  -2  -5 -24    3.43    2.89
  -5   7 -24    4.52    2.17
  -7   2  24    1.33    4.19
  -5  10 -24    6.06    2.64
  -5  -5 -24    3.02    3.21
  10  -5 -24    1.26    3.56
 -10   5  24    7.58    3.04
 -10   5  24    3.36    4.33
  -3   9 -24   -3.14    2.55
  -6  -3 -24   -3.39    2.91
   9  -6 -24   -1.12    3.37
  -9   6  24    8.75    3.12
  -9   6  24   -2.07    4.22
   6  -6 -24  164.23    7.54
  -6   0 -24  149.96    7.27
   0   6 -24  155.85    6.75
  -6   6  24  153.92    6.84
   6   0  24  161.72    7.47
  -6   6  24  162.53    9.38
   0  -6  24  149.45    9.83
   3   3 -24    1.22    2.42
  -3  -3  24    2.67    4.51
   6  -3  24    6.79    5.33
   6   0 -24  124.07    6.64
   0  -6 -24  119.89    6.53
  -6   0  24  124.45    7.81
   9  -3 -24    4.54    3.24
  -6   9 -24   -0.15    2.46
  -3  -6 -24    4.20    3.21
  -9   3  24   -3.64    4.13
  -9   3  24    3.20    3.30
  -6  -6 -24  119.14    7.60
  12  -6 -24  126.10    8.26
  -6  12 -24  125.53    6.72
 -12   6  24  118.19    7.62
  11  -7 -24   -0.80    3.36
  -4  11 -24   -2.97    2.76
  -7  -4 -24    0.02    3.18
 -11   7  24    0.35    4.05
 -11   7  24   -0.21    3.34
   8  -7 -24    2.02    3.25
  -1   8 -24   -2.75    2.56
  -7  -1 -24    1.72    2.93
  -8   7  24    7.81    3.06
   7   1  24   -5.17    2.94
  -8   7  24   -0.26    3.94
   1  -8  24    0.99    5.23
   2   5 -24    2.56    2.51
  -7   2 -24   -2.01    2.69
  -2  -5  24    4.77    4.54
   7  -2  24    2.65    2.91
   2  -7 -24    1.27    3.24
   5   2 -24   -0.43    2.62
  -5  -2  24    2.68    4.12
   8  -1 -24    1.17    3.17
  -1  -7 -24   -4.72    2.85
  -8   1  24    2.53    4.21
  -4  -7 -24   -1.68    3.31
  11  -4 -24    2.72    3.80
  -7  11 -24   -0.56    2.71
 -11   4  24    1.29    3.16
  -7  -7 -24   -1.32    3.73
  14  -7 -24   -0.88    4.86
  -7  14 -24    1.99    2.93
 -14   7  24    2.22    3.55
  -5  13 -24   -2.40    2.81
  13  -8 -24    7.51    4.62
  -8  -5 -24    1.58    3.76
 -13   8  24   -1.45    3.09
  -2  10 -24  106.26    5.94
  -8  -2 -24  110.40    6.79
   8   2  24  105.31    7.19
 -10   8  24  125.59    8.62
   2 -10  24  126.88   10.38
 -10   8  24  103.66    6.48
  -8   1 -24   -2.62    2.78
   1   7 -24    0.41    2.38
   8  -1  24   -2.35    3.05
  -1  -7  24    0.34    4.41
  -7   8  24   -8.55    4.94
  -8   4 -24  114.83    6.31
   4   4 -24  113.54    6.47
  -4  -4  24  126.04    8.84
   8  -4  24  115.57    6.45
   7   1 -24   -2.05    3.01
   1  -8 -24   -2.61    3.08
  -7  -1  24   -3.46    4.15
  10  -2 -24  125.89    7.79
  -8  10 -24  127.11    6.21
  -2  -8 -24  151.20    7.65
 -10   2  24  133.17    7.31
 -10   2  24  124.31    8.46
  -5  -8 -24   -6.12    3.45
  -8  13 -24    4.34    3.15
  13  -5 -24   -6.30    5.65
 -13   5  24    4.79    5.85
  -8  16 -24   62.50    6.37
  16  -8 -24   68.45    7.81
  -8  -8 -24   65.25    7.46
 -16   8  24   65.49    7.23
  -9  -6 -24    2.13    5.13
  -6  15 -24    3.99    3.60
 -15   9  24    9.09    4.24
  -9  -3 -24   -1.97    3.61
  -3  12 -24    3.16    3.27
 -12   9  24    0.06    3.28
   9   3  24   -3.25    3.13
  -9   0 -24   -0.85    3.01
   0   9 -24    1.43    2.94
  -9   9  24   -6.37    4.44
   0  -9  24   13.22    5.49
   9   0  24   -0.63    3.43
  -9   9  24   -4.23    2.78
   3   6 -24    4.35    2.92
  -9   3 -24    6.55    2.94
   9  -3  24   -0.63    3.27
  -3  -6  24    2.10    4.71
   3  -9 -24    2.76    3.21
   6   3 -24   -3.03    2.77
   9  -6  24   -1.11    3.20
  -6  -3  24    0.45    4.27
   0  -9 -24    1.48    3.38
   9   0 -24    1.42    2.99
  -9   0  24    3.91    4.23
  12  -3 -24   -0.84    4.03
  -3  -9 -24    2.80    3.61
  -9  12 -24    2.28    3.03
 -12   3  24    5.66    3.99
  -9  15 -24    3.28    4.60
  15  -6 -24    9.53    4.91
 -15   6  24    9.78    4.55
  -9  -9 -24   -2.63    4.93
  -9  18 -24    3.97    3.74
 -18   9  24    7.57    4.42
  -7  17 -24    2.73    4.14
 -10  -7 -24    0.31    4.64
 -17  10  24    0.85    4.54
  -4  14 -24   72.69    6.32
 -10  -4 -24   73.34    7.13
 -10  -1 -24    4.48    3.45
  -1  11 -24    2.70    3.21
 -11  10  24    4.72    3.35
   1 -11  24   -5.40    5.86
 -11  10  24   -3.98    4.58
  10   1  24    1.63    3.81
   2   8 -24  132.73    7.05
 -10   2 -24  113.02    6.80
  -2  -8  24  117.45    9.65
  10  -2  24  117.49    7.43
   5   5 -24    5.56    3.22
  10  -5  24    1.90    3.29
  -5  -5  24    7.33    4.78
   2 -10 -24   88.60    6.43
   8   2 -24   89.45    6.63
  10  -8  24   80.85    6.12
  -8  -2  24   89.89    8.48
  11  -1 -24    5.70    4.11
  -1 -10 -24    8.05    3.81
  14  -4 -24   84.71    7.31
  -4 -10 -24   83.88    7.36
 -10  14 -24   59.25    5.70
 -14   4  24   79.87    7.58
 -10  17 -24    4.93    4.10
  17  -7 -24    0.88    4.96
  -7 -10 -24   -1.63    4.47
 -17   7  24   -2.31    4.62
 -10  20 -24   44.69    6.01
 -10 -10 -24   32.11    6.65
 -20  10  24   24.14    6.08
 -11  -8 -24    1.23    4.61
  -8  19 -24   -5.15    4.41
 -19  11  24    4.35    5.40
 -11  -5 -24    6.76    4.51
  -5  16 -24    1.43    3.57
 -16  11  24    3.63    4.43
  -2  13 -24    0.71    3.02
 -11  -2 -24   -4.75    3.66
 -13  11  24   -4.36    3.48
  11   2  24   -9.29    4.02
 -11   1 -24    0.58    3.03
   1  10 -24   -0.53    2.85
  -1 -10  24    0.21    7.14
  11  -1  24    0.96    3.57
 -11   4 -24   -1.38    3.16
   4   7 -24   -2.42    3.05
  -4  -7  24   -0.15    5.15
  11  -4  24   -2.32    3.36
   4 -11 -24   -0.98    3.36
   7   4 -24    0.60    3.35
  11  -7  24    6.68    3.38
   1 -11 -24    4.79    3.70
  10   1 -24    4.45    3.38
  13  -2 -24    4.27    4.38
  -2 -11 -24    3.69    3.94
 -13   2  24   -3.32    3.59
  16  -5 -24   -2.46    5.15
  -5 -11 -24    0.93    4.70
 -11  16 -24    4.13    3.72
 -16   5  24   -3.54    4.21
 -11  19 -24    2.72    4.47
  -8 -11 -24    8.52    4.79
 -19   8  24   -0.88    5.12
  -9  21 -24   -7.14    4.62
 -12  -9 -24   -0.90    5.93
  -6  18 -24   50.36    6.25
 -12  -6 -24   59.28    7.67
  -3  15 -24   -3.87    3.79
 -12  -3 -24    1.42    4.25
  12   3  24   13.67    4.54
 -15  12  24    3.95    4.23
   0  12 -24   71.01    5.89
 -12   0 -24   84.20    6.79
 -12  12  24   71.07    6.09
  12   0  24   70.81    6.59
 -12   3 -24    2.15    3.40
   3   9 -24    4.01    3.86
  12  -3  24   -2.90    3.54
   6   6 -24  124.67    7.55
  12  -6  24  137.49    8.29
   9   3 -24    6.35    4.93
   3 -12 -24   -6.03    3.76
  12  -9  24    0.61    3.53
  12   0 -24  122.29    8.69
   0 -12 -24  135.47    8.36
  -3 -12 -24    3.94    4.65
  15  -3 -24    5.62    5.31
 -15   3  24   -4.41    4.00
  -6 -12 -24   68.98    7.67
  18  -6 -24   56.31    8.02
 -12  18 -24   51.57    5.79
 -18   6  24   62.48    7.28
 -12  21 -24    9.58    5.31
  -9 -12 -24   10.66    6.42
 -13  -7 -24   -1.86    5.53
  -7  20 -24    3.44    4.57
 -20  13  24    1.48    5.51
 -13  -4 -24    0.89    4.74
  -4  17 -24    0.44    4.39
 -17  13  24   10.05    4.70
  -1  14 -24    1.35    3.30
 -13  -1 -24    7.15    4.31
 -14  13  24    6.67    3.97
  13   1  24   11.21    4.84
   2  11 -24    2.98    3.33
 -13   2 -24   -2.60    3.59
  13  -2  24    4.01    4.31
   5   8 -24    0.15    3.69
  13  -5  24    7.59    4.36
   5 -13 -24   -1.87    3.96
   8   5 -24    6.06    3.87
  13  -8  24    1.88    3.76
  11   2 -24    2.30    3.62
   2 -13 -24   -5.48    4.38
  13 -11  24    2.33    4.06
  14  -1 -24   -1.64    4.02
  -1 -13 -24    3.60    5.88
 -14   1  24    3.40    4.20
  17  -4 -24   10.93    5.93
  -4 -13 -24   13.30    5.62
 -17   4  24   -3.79    5.03
  20  -7 -24    3.72    7.13
  -7 -13 -24   -4.05    5.87
 -20   7  24   -1.21    5.65
 -14  -5 -24    4.94    5.28
  -5  19 -24   -3.43    4.98
 -19  14  24    4.49    5.09
 -14  -2 -24   63.89    7.78
  -2  16 -24   75.20    7.47
  14   2  24   71.60    8.94
 -16  14  24   77.88    7.23
 -14   1 -24    1.60    4.00
   1  13 -24    3.67    3.45
  14  -1  24    8.03    4.73
   4  10 -24   87.41    6.92
 -14   4 -24   76.68    6.56
  14  -4  24   77.86    7.35
   7 -14 -24   -1.89    3.89
   7   7 -24   -1.16    3.87
  14  -7  24   -2.09    3.95
   4 -14 -24   78.09    7.41
  10   4 -24   85.37    6.64
  14 -10  24   69.63    7.21
  13   1 -24   -3.27    4.69
  -2 -14 -24   62.46    7.34
  16  -2 -24   77.40    7.70
 -16   2  24   40.17    6.75
  19  -5 -24   -8.49    6.52
  -5 -14 -24   -6.54    5.49
 -19   5  24    6.17    5.81
 -15  -6 -24    9.71    5.37
  -3  18 -24   -0.05    4.18
 -15  -3 -24   -1.08    4.47
 -18  15  24   -1.17    4.92
  15   3  24   -5.94    5.28
   0  15 -24   -2.56    4.23
 -15   0 -24    2.94    4.25
 -15  15  24   -0.88    4.45
  15   0  24    4.98    4.62
 -15   3 -24    1.00    3.95
   3  12 -24    4.43    3.53
  15  -3  24    2.24    4.49
   6   9 -24    9.57    4.06
  15  -6  24    0.34    4.56
   9   6 -24    1.90    3.51
   6 -15 -24    3.16    4.59
  15  -9  24    1.24    4.19
  12   3 -24   -0.01    4.20
  15 -12  24    1.36    4.66
  15   0 -24    0.65    4.64
   0 -15 -24   -6.96    4.82
 -15   0  24   -7.44    4.81
  -3 -15 -24    1.36    5.67
  18  -3 -24    8.61    6.47
 -18   3  24   -0.68    5.61
  -6 -15 -24   -4.19    6.42
 -16  -4 -24   37.75    6.96
 -20  16  24   45.28    7.09
  -1  17 -24    4.87    4.86
 -16  -1 -24    4.93    5.16
  16   1  24   -1.44    5.58
 -17  16  24    2.47    4.96
 -16   2 -24   72.64    7.91
   2  14 -24   63.38    7.29
  16  -2  24   69.55    8.55
   5  11 -24    5.39    4.24
 -16   5 -24    0.98    4.10
  16  -5  24    6.17    4.19
   8 -16 -24   67.60    8.16
   8   8 -24   73.55    6.74
  16  -8  24   61.27    8.52
   5 -16 -24   15.16    7.24
  11   5 -24   13.65    4.31
   2 -16 -24   64.29    8.27
  14   2 -24   74.83    8.46
  16 -14  24   75.47    8.52
  -1 -16 -24    0.55    5.71
  17  -1 -24    1.74    6.12
 -17   1  24    6.30    5.45
  -4 -16 -24   47.67    7.69
 -17  -2 -24    7.42    5.83
  17   2  24    0.46    6.14
 -19  17  24   12.34    5.97
   1  16 -24    6.92    4.56
 -17   1 -24    2.56    4.92
  17  -1  24   -1.38    5.67
   4  13 -24   15.41    4.98
 -17   4 -24    1.65    3.84
  17  -4  24   -0.15    5.19
   7  10 -24    1.58    3.97
  17  -7  24    4.05    5.02
  10   7 -24   -1.74    4.15
   7 -17 -24   -4.59    4.93
  17 -10  24    2.64    4.90
   4 -17 -24    7.25    5.40
  13   4 -24    9.28    4.82
  17 -13  24   -3.84    5.26
  16   1 -24    4.24    5.81
   1 -17 -24   -4.85    5.48
 -16  -1  24   -5.57    5.59
  -2 -17 -24   19.89    6.88
   0  18 -24   27.86    8.13
 -18   0 -24   26.32    6.37
  18   0  24   27.33    7.10
   3  15 -24   -7.04    4.67
 -18   3 -24   -8.16    4.68
  18  -3  24    5.65    6.06
   6  12 -24   58.13    6.75
  18  -6  24   42.26    7.02
   9 -18 -24   12.12    5.49
   9   9 -24   10.56    5.09
  18  -9  24   16.58    5.63
  12   6 -24   50.65    7.32
   6 -18 -24   59.79    7.32
  18 -12  24   59.62    7.58
  15   3 -24    3.70    5.83
   3 -18 -24   18.18    6.30
  18 -15  24    4.57    6.33
   0 -18 -24   41.37    7.66
 -19   2 -24   -0.33    5.60
  19  -2  24   11.54    6.35
   5  14 -24    0.73    5.23
 -19   5 -24  -12.14    4.82
  19  -5  24    1.43    5.97
   8  11 -24   -1.57    4.50
  19  -8  24   11.04    5.96
   8 -19 -24    1.82    5.80
  11   8 -24   12.01    5.44
  19 -11  24  -10.26    5.31
  14   5 -24    5.03    6.12
   5 -19 -24   14.49    6.22
  19 -14  24   -7.50    5.94
   2 -19 -24    0.13    6.47
 -20   4 -24   49.31    7.23
  20  -4  24   41.49    7.96
   7  13 -24    4.09    5.46
  20  -7  24    2.24    6.09
  10 -20 -24   41.42    7.55
  10  10 -24   49.83    7.25
  20 -10  24   43.93    7.28
  13   7 -24    2.09    5.47
   7 -20 -24   -8.46    6.24
  20 -13  24   -4.33    6.63
   4 -20 -24   40.17    7.61
  20 -16  24   39.52    8.06
 -21   6 -24   -3.69    5.66
  21  -6  24   11.26    6.71
  21  -9  24    9.38    6.93
   9 -21 -24   14.36    7.02
  21 -12  24    3.77    6.54
   6 -21 -24    1.79    7.12
  21 -15  24   -5.72    7.01
  -1   3 -25   -0.42    2.46
   3  -2 -25    0.47    2.75
  -3   2  25   -0.43    4.13
  -3   2  25    1.66    4.64
   2   0 -25    7.04    2.70
  -2   0  25   10.24    4.97
   5  -3 -25    3.49    3.04
  -2   5 -25    0.58    2.40
  -5   3  25    2.07    4.15
  -5   3  25    4.82    2.77
   1   2 -25   21.96    3.12
  -1  -2  25   28.05    5.59
   4  -1 -25    1.35    2.88
  -4   1  25    1.84    4.49
  -3   7 -25    4.31    2.59
  -4  -3 -25   -0.74    3.09
   7  -4 -25   -4.55    2.95
  -7   4  25    6.51    4.54
  -7   4  25    0.14    3.01
   0   4 -25    7.34    2.69
  -4   4  25    5.02    7.16
   0  -4  25    2.42    4.89
   3   1 -25    2.93    2.61
  -3  -1  25   -4.67    4.38
  -2  -4 -25    1.52    2.73
  -4   6 -25   -1.07    3.70
   6  -2 -25   -2.93    2.88
  -6   2  25   -3.92    2.89
  -6   2  25   -2.30    4.02
  -5  -4 -25   -5.73    3.03
   9  -5 -25   -0.61    3.44
  -4   9 -25    2.74    2.69
  -9   5  25   10.55    4.84
  -9   5  25    3.17    3.41
  -1   6 -25    9.15    2.83
   6  -5 -25    8.12    3.40
  -5  -1 -25   11.06    3.29
  -6   5  25   24.45    5.13
  -6   5  25   14.35    3.12
   1  -6  25   18.74    5.71
   2   3 -25    6.91    2.89
  -2  -3  25   10.42    5.17
   5   0 -25    7.23    3.17
  -5   0  25   11.66    4.69
  -5   8 -25   23.59    3.32
  -3  -5 -25   16.26    3.71
   8  -3 -25   21.01    3.98
  -8   3  25   13.36    3.83
  -8   3  25   18.45    4.76
  -6  -5 -25    3.58    3.71
  -5  11 -25    4.14    3.20
  11  -6 -25    0.48    4.28
 -11   6  25    9.91    3.67
  -6  -2 -25   -1.59    3.15
   8  -6 -25    4.17    3.53
  -2   8 -25    2.97    2.80
  -8   6  25    6.92    4.85
  -8   6  25    0.03    2.89
  -6   1 -25    3.02    2.76
   1   5 -25   -0.28    2.70
  -1  -5  25    0.41    5.02
   6  -1  25    1.16    3.17
   4   2 -25    2.48    2.83
  -4  -2  25   -6.94    3.97
   7  -1 -25    2.65    2.89
  -1  -6 -25   -3.62    2.96
  -7   1  25   -2.75    4.33
  -4  -6 -25    4.32    3.44
  -6  10 -25    1.87    2.91
  10  -4 -25    1.69    3.52
 -10   4  25    8.84    3.73
  13  -7 -25   19.37    7.85
  -7  -6 -25    1.15    4.03
  -6  13 -25    0.05    3.40
 -13   7  25   -4.53    5.19
  -7  -3 -25   24.66    4.41
  -3  10 -25   27.90    3.97
  10  -7 -25   33.34    4.93
 -10   7  25   37.37    5.92
 -10   7  25   29.39    4.42
   0   7 -25   -1.53    2.74
  -7   0 -25    9.45    3.37
  -7   7  25    0.12    5.04
   0  -7  25    6.32    4.76
   7   0  25    4.55    3.27
   3   4 -25    4.33    3.06
   7  -3  25   13.85    3.60
  -3  -4  25    0.42    4.42
   6   1 -25    8.12    3.41
  -6  -1  25   -0.18    4.63
   9  -2 -25   11.29    3.69
  -2  -7 -25    8.66    3.53
  -9   2  25   11.30    4.97
  -9   2  25    7.15    3.25
  -7  12 -25   23.48    3.89
  12  -5 -25   32.26    5.38
  -5  -7 -25   21.77    4.40
 -12   5  25   24.98    4.89
  -8  -7 -25    6.26    4.59
  -7  15 -25    2.98    3.89
  15  -8 -25    1.34    4.71
 -15   8  25    3.12    4.48
  -4  12 -25    0.31    3.38
  -8  -4 -25    6.23    3.74
 -12   8  25    3.51    3.58
  -8  -1 -25   -4.88    3.20
  -1   9 -25    0.64    3.17
  -9   8  25    4.75    4.36
   1  -9  25    1.92    5.80
   8   1  25    5.20    3.67
  -9   8  25    4.36    3.24
   2   6 -25    4.65    2.91
  -8   2 -25   -4.06    2.97
   8  -2  25    3.82    3.14
  -2  -6  25   -3.05    4.85
   5   3 -25    0.19    2.53
  -5  -3  25    4.15    4.84
   0  -8 -25    7.56    3.56
   8   0 -25   -0.65    3.30
  -8   0  25    8.23    4.72
  -3  -8 -25    9.33    3.76
  11  -3 -25    7.14    3.73
 -11   3  25    5.76    3.89
  14  -6 -25    2.93    5.20
  -6  -8 -25   13.66    6.91
 -14   6  25   -4.40    4.21
  -8  17 -25   -6.97    4.02
  -9  -8 -25   -8.31    4.59
 -17   9  25   -5.49    4.62
  -5  14 -25   29.77    4.78
 -14   9  25   31.97    4.95
  -2  11 -25    4.43    3.26
  -9  -2 -25    1.45    3.49
   9   2  25    3.50    4.00
 -11   9  25   -5.43    3.33
  -9   1 -25   27.67    4.12
   1   8 -25   24.55    4.00
   9  -1  25   29.07    4.57
  -1  -8  25   12.43    6.05
  -9   4 -25    6.70    3.25
   4   5 -25   10.23    3.50
  -4  -5  25   10.76    5.42
   9  -4  25    2.61    3.38
   2  -9 -25   12.00    3.78
   7   2 -25    5.08    3.65
  -7  -2  25    7.39    5.38
  10  -1 -25   12.10    4.31
  -1  -9 -25   14.64    4.18
  -4  -9 -25    9.66    4.10
  -9  13 -25    7.51    3.66
  13  -4 -25   15.76    5.31
 -13   4  25    7.80    4.49
  -9  16 -25   14.28    4.27
  -7  -9 -25   10.85    4.91
  16  -7 -25   24.83    6.34
 -16   7  25   32.33    5.74
  -9  19 -25    0.97    4.25
 -10  -9 -25    3.84    5.16
 -19  10  25   -8.25    5.14
  -6  16 -25    3.47    4.33
 -10  -6 -25    1.92    4.47
 -16  10  25   -1.89    4.55
 -10  -3 -25   -1.40    3.95
  -3  13 -25   -1.10    3.51
 -13  10  25    7.66    5.93
  10   3  25   -1.89    4.13
 -10   0 -25    6.23    3.56
   0  10 -25    1.13    3.41
   0 -10  25   11.98    9.38
  10   0  25    0.96    4.08
   3   7 -25    0.27    3.21
 -10   3 -25   -3.12    3.17
  -3  -7  25   -4.96    5.69
  10  -3  25    2.29    3.58
   6   4 -25   -4.44    3.27
  10  -6  25   -1.03    3.66
   1 -10 -25    8.65    3.94
   9   1 -25    4.74    3.35
  -2 -10 -25   -6.95    3.89
  12  -2 -25    0.48    4.38
 -12   2  25   -7.32    3.94
  15  -5 -25    5.12    5.38
  -5 -10 -25    6.14    4.57
 -10  15 -25    6.17    3.75
 -15   5  25   -4.53    3.99
 -10  18 -25   -3.73    4.36
  -8 -10 -25    3.69    4.62
 -18   8  25    2.86    5.22
 -11 -10 -25    6.11    5.45
 -11  -7 -25   19.76    5.40
  -7  18 -25   15.66    5.07
 -18  11  25   27.64    5.88
  -4  15 -25   -0.84    4.11
 -11  -4 -25   -1.74    4.33
 -15  11  25    4.23    4.47
  -1  12 -25   27.36    4.21
 -11  -1 -25   37.75    5.33
  11   1  25   37.18    5.63
 -12  11  25   27.52    4.83
   2   9 -25    4.39    5.35
 -11   2 -25   -1.30    3.64
  11  -2  25   -7.57    3.59
 -11   5 -25   23.39    4.23
   5   6 -25   24.44    4.05
  11  -5  25   17.87    4.22
   3 -11 -25    5.66    3.95
   8   3 -25    7.54    3.96
   0 -11 -25    6.86    4.16
  11   0 -25    8.63    4.05
  -3 -11 -25   26.79    5.50
  14  -3 -25   16.46    5.61
 -14   3  25   21.94    5.58
 -11  17 -25   -0.17    4.17
  -6 -11 -25    1.92    5.03
  17  -6 -25    4.05    5.36
 -17   6  25   -2.41    4.39
 -11  20 -25   18.49    5.62
  -9 -11 -25   19.97    6.46
 -20   9  25   31.40    5.82
 -12  -8 -25    7.33    6.03
  -8  20 -25    6.40    5.57
 -20  12  25   10.23    5.60
  -5  17 -25   -5.95    3.83
 -12  -5 -25   -1.08    4.70
 -17  12  25    2.24    4.38
 -12  -2 -25   -0.93    4.33
  -2  14 -25    6.09    4.11
  12   2  25    0.33    4.76
 -14  12  25    2.84    4.20
 -12   1 -25   -0.47    3.69
   1  11 -25   -2.74    3.13
  12  -1  25    8.36    4.32
   4   8 -25    1.39    3.16
 -12   4 -25    1.98    3.56
  12  -4  25    2.20    3.92
   7   5 -25    7.34    3.56
  12  -7  25   -0.23    3.86
  10   2 -25    9.47    4.52
   2 -12 -25    4.16    4.20
  13  -1 -25    9.46    4.64
  -1 -12 -25   10.85    6.87
 -13   1  25   10.14    4.89
  -4 -12 -25    1.91    5.13
  16  -4 -25   -2.16    4.98
 -16   4  25   -2.73    4.54
 -12  19 -25    4.19    5.00
  -7 -12 -25   -2.40    5.67
  19  -7 -25   -0.61    6.08
 -19   7  25   14.45    6.13
 -13  -6 -25   -0.83    5.51
  -6  19 -25    4.03    4.74
 -19  13  25   -5.96    5.26
  -3  16 -25   29.88    5.47
 -13  -3 -25   36.39    6.03
 -16  13  25   38.92    5.43
  13   3  25   28.13    6.47
   0  13 -25    1.94    4.12
 -13   0 -25    2.34    4.28
  13   0  25   -2.80    4.67
   3  10 -25   22.01    4.30
 -13   3 -25   36.11    4.78
  13  -3  25   29.80    5.30
   6   7 -25   10.26    4.18
  13  -6  25    4.49    4.40
   4 -13 -25    7.80    4.49
   9   4 -25   11.26    4.39
  13  -9  25   11.90    4.50
  12   1 -25   14.80    4.69
   1 -13 -25   19.45    5.27
  15  -2 -25   -0.61    5.65
  -2 -13 -25   -4.95    4.89
 -15   2  25   -7.17    4.97
  -5 -13 -25   18.62    6.16
  18  -5 -25   17.28    7.36
 -18   5  25   32.45    6.46
 -14  -4 -25    6.07    5.26
  -4  18 -25   -5.00    4.27
 -18  14  25    3.24    5.09
  -1  15 -25   -0.53    4.44
 -14  -1 -25    0.07    4.65
 -15  14  25   -1.73    4.49
  14   1  25   -1.45    4.59
 -14   2 -25   -2.24    4.31
   2  12 -25    0.18    4.23
  14  -2  25   10.19    4.85
   5   9 -25   -4.57    3.80
 -14   5 -25    3.08    4.03
  14  -5  25   13.32    4.59
   8   6 -25    7.91    4.35
  14  -8  25    7.54    4.48
  11   3 -25   -4.87    3.92
   3 -14 -25    4.96    4.49
  14 -11  25    4.99    6.42
   0 -14 -25   -4.21    4.74
  14   0 -25    2.73    4.56
 -14   0  25   -0.38    4.92
  -3 -14 -25   14.82    5.33
  17  -3 -25    8.76    6.58
 -17   3  25    3.24    5.54
  -6 -14 -25    7.95    6.98
 -15  -5 -25   31.38    6.77
 -15  -2 -25   -3.72    4.96
  -2  17 -25   -2.27    4.99
 -17  15  25   -2.13    5.01
  15   2  25   -4.77    4.96
   1  14 -25   23.22    5.34
 -15   1 -25   22.43    5.10
  15  -1  25   13.79    5.77
   4  11 -25    4.29    4.39
 -15   4 -25   -0.18    4.16
  15  -4  25    0.79    4.78
   7   8 -25   35.63    5.17
  10   5 -25   21.16    4.74
   5 -15 -25    7.24    5.28
  15 -10  25    8.83    5.06
   2 -15 -25   -1.08    5.18
  13   2 -25   12.21    5.51
  16  -1 -25   11.30    6.08
  -1 -15 -25   31.34    6.56
 -16   1  25   12.39    6.00
  -4 -15 -25    6.93    6.49
 -16  -3 -25    2.06    5.95
 -19  16  25   -2.42    6.21
   0  16 -25    0.68    4.52
 -16   0 -25    2.85    5.05
  16   0  25    7.26    5.91
 -16   3 -25   -4.10    4.63
   3  13 -25   -1.51    4.59
  16  -3  25    9.26    5.64
   6  10 -25    2.71    4.52
  16  -6  25    9.10    5.18
   9   7 -25   11.24    4.90
  16  -9  25   13.17    5.43
   4 -16 -25   -3.81    5.01
  12   4 -25    5.21    5.21
  16 -12  25    4.67    5.47
   1 -16 -25   15.27    5.95
  15   1 -25   14.35    5.35
 -15  -1  25    6.26    5.20
  -2 -16 -25    7.62    6.05
  18  -2 -25    1.12    7.15
 -18   2  25    3.13    6.07
 -17  -1 -25   34.27    6.95
  17   1  25   23.74    7.15
   2  15 -25    5.07    5.10
 -17   2 -25    0.30    4.59
  17  -2  25    3.33    5.62
 -17   5 -25   20.47    4.65
   5  12 -25   18.43    5.35
  17  -5  25   28.78    6.20
   8   9 -25   -0.41    4.41
  17  -8  25  -12.02    5.22
   6 -17 -25   14.18    6.02
  11   6 -25   14.68    4.79
  17 -11  25   15.39    5.82
   3 -17 -25    3.77    6.01
  14   3 -25   16.93    5.39
   0 -17 -25   13.92    6.91
  17   0 -25    6.83    6.90
 -17   0  25    7.99    6.40
 -18   1 -25   -2.24    5.84
  18  -1  25    7.74    6.80
   4  14 -25    1.41    4.51
 -18   4 -25    7.20    5.10
  18  -4  25   -7.45    5.89
   7  11 -25    3.52    5.02
  18  -7  25    1.30    5.81
  10   8 -25    0.53    5.32
  18 -10  25   -7.91    5.47
  13   5 -25   17.91    5.56
   5 -18 -25    7.43    5.87
  18 -13  25    4.77    6.50
   2 -18 -25    4.70    6.37
  16   2 -25    7.60    6.57
 -16  -2  25   -2.74    6.96
 -19   3 -25   18.15    6.26
  19  -3  25   14.24    6.93
 -19   6 -25   -4.07    5.05
   6  13 -25   -6.00    4.74
  19  -6  25    2.85    6.18
   9  10 -25   26.57    5.92
  19  -9  25   20.67    6.74
   7 -19 -25    2.29    6.27
  12   7 -25    3.63    6.10
  19 -12  25   -2.22    6.17
   4 -19 -25    6.80    6.39
  19 -15  25   11.73    8.43
 -20   5 -25   11.79    6.07
  20  -5  25    9.03    7.09
  20  -8  25    2.64    6.45
  20 -11  25    2.72    6.54
   6 -20 -25    4.52    6.54
  20 -14  25   -6.28    6.72
  21 -10  25   16.02    7.06
   3  -1 -26   -2.49    3.04
  -3   1  26    3.77    5.41
  -1   4 -26    2.64    2.64
   2   1 -26   -1.92    2.62
  -2  -1  26    0.32    4.69
   5  -2 -26    1.65    3.09
  -5   2  26    0.65    4.94
  -5   2  26   -2.12    3.20
   6  -4 -26  134.45    7.11
  -2   6 -26  129.76    6.37
  -6   4  26  123.63    9.39
  -6   4  26  119.33    7.02
   1   3 -26   -2.62    2.56
  -1  -3  26   -1.47    4.75
   4   0 -26  147.61    7.14
  -4   0  26  151.81    9.33
   7  -3 -26    6.92    3.38
  -3  -4 -26   -6.72    3.03
  -7   3  26    3.16    3.29
  -7   3  26   -5.33    4.40
  -3   8 -26    2.62    3.09
  -5  -3 -26    2.67    3.64
   8  -5 -26    1.41    3.58
  -8   5  26   -1.11    3.35
  -8   5  26    1.52    4.68
   0   5 -26   -2.21    2.65
   3   2 -26    3.93    2.94
  -3  -2  26   14.84    5.35
   6  -1 -26    1.10    3.52
  -6   1  26    3.20    4.89
   9  -4 -26   -6.12    3.67
  -4  -5 -26    7.52    3.55
  -5   9 -26   -5.05    2.72
  -9   4  26   -1.53    3.74
  10  -6 -26   93.78    7.50
  -6  -4 -26   87.09    6.87
  -4  10 -26   82.89    5.96
 -10   6  26   87.24    6.82
  -1   7 -26   -2.96    2.78
  -6  -1 -26   -2.32    3.22
  -7   6  26    2.20    7.39
   2   4 -26  132.69    6.89
  -2  -4  26  126.02    9.27
   5   1 -26   -2.76    2.97
  -5  -1  26    4.13    5.17
  -2  -6 -26  106.08    7.17
   8  -2 -26  110.72    7.11
  -8   2  26   99.47    8.99
  -8   2  26  108.28    7.15
  -5  -6 -26   -2.30    3.61
  11  -5 -26   10.15    4.67
  -6  11 -26   -0.07    3.36
 -11   5  26    0.51    4.06
  -7  -5 -26    0.51    4.01
  -5  12 -26    4.13    3.78
  -2   9 -26    5.08    3.09
   9  -7 -26    1.91    4.29
  -7  -2 -26   -7.79    3.49
  -9   7  26    7.05    3.53
  -9   7  26    2.97    4.79
   1   6 -26   -0.75    3.12
  -7   1 -26    4.07    3.21
   7  -1  26    0.87    3.61
   4   3 -26    1.73    3.17
  -4  -3  26    9.06    5.55
   7   0 -26   -2.12    3.38
  -7   0  26    0.54    5.08
  -3  -7 -26    7.71    4.01
  10  -3 -26    4.95    4.18
 -10   3  26    0.47    3.96
  -6  -7 -26    1.90    4.21
  13  -6 -26    5.29    5.30
 -13   6  26    1.73    3.75
  -6  14 -26   91.07    7.12
  -8  -6 -26   90.09    7.85
 -14   8  26   74.32    7.51
  -3  11 -26    2.65    3.49
  -8  -3 -26   -4.89    3.75
 -11   8  26    2.59    3.72
   0   8 -26  120.15    7.05
  -8   0 -26  127.22    7.33
   8   0  26  134.80    8.18
   0  -8  26  108.17   10.96
   3   5 -26    8.74    3.73
  -3  -5  26   19.75    6.22
   6   2 -26   98.80    6.96
  -6  -2  26  108.72   12.30
  -1  -8 -26    3.34    3.95
   9  -1 -26    5.62    3.99
  -4  -8 -26   90.27    7.45
  12  -4 -26   80.89    8.05
 -12   4  26   99.63    7.82
  15  -7 -26   11.37    5.48
  -8  15 -26    1.72    3.98
  -7  -8 -26    5.07    4.49
 -15   7  26    4.57    4.82
  -9  -7 -26    0.84    4.30
  -7  16 -26   -8.15    4.26
 -16   9  26    1.78    4.86
  -4  13 -26    9.82    4.10
 -13   9  26    0.23    4.01
  -9  -1 -26   -2.00    3.63
  -1  10 -26   -3.33    3.46
   9   1  26   -4.70    3.86
   2   7 -26   -2.36    3.17
  -9   2 -26   -8.52    3.28
   9  -2  26    9.99    3.86
  -2  -7  26    2.66    8.79
   5   4 -26    7.06    3.39
   8   1 -26    3.44    4.00
  -2  -9 -26    1.92    4.10
  11  -2 -26   -0.92    3.88
 -11   2  26    4.87    4.28
  14  -5 -26    4.84    4.87
  -5  -9 -26    8.19    4.55
 -14   5  26   -7.95    4.57
  -9  17 -26   13.88    4.86
  -8  -9 -26   -0.03    5.27
 -17   8  26  -13.02    4.97
 -10  -8 -26   47.35    6.70
  -8  18 -26   55.99    6.64
 -18  10  26   51.46    6.99
 -10  -5 -26   -1.58    4.64
  -5  15 -26    3.07    4.18
 -15  10  26    1.40    4.67
  -2  12 -26   74.38    6.66
 -10  -2 -26   78.79    7.20
  10   2  26   55.86    7.39
 -12  10  26  101.13    7.69
 -10   1 -26    0.16    3.73
  10  -1  26    0.54    4.20
 -10   4 -26   87.19    7.00
   4   6 -26  100.27    7.12
  10  -4  26  114.76    7.34
   7   3 -26    2.72    4.17
  10   0 -26  125.27    8.63
   0 -10 -26  120.70    7.94
  13  -3 -26    0.77    5.07
 -13   3  26    4.19    4.79
  16  -6 -26   45.60    7.11
  -6 -10 -26   57.36    6.96
 -10  16 -26   59.06    6.98
 -16   6  26   55.29    6.65
 -10  19 -26    4.65    5.22
  -9 -10 -26   -5.58    5.61
 -19   9  26   -1.45    5.71
 -11  -9 -26   -2.50    5.79
  -6  17 -26    0.51    4.13
 -11  -6 -26    7.98    5.43
 -17  11  26   -4.25    5.22
 -11  -3 -26   -0.22    4.53
  -3  14 -26    8.64    4.12
 -14  11  26    7.59    4.52
 -11   0 -26    5.23    4.17
   0  11 -26    2.22    3.92
  11   0  26    2.19    4.50
   3   8 -26   -0.29    3.72
 -11   3 -26    8.12    4.09
  11  -3  26   -1.31    4.05
   6   5 -26   10.57    4.09
  11  -6  26   10.96    4.40
   9   2 -26    4.20    4.26
   2 -11 -26    3.32    4.56
  -1 -11 -26   10.41    4.71
  12  -1 -26   -0.69    4.45
 -12   1  26   10.97    4.73
  -4 -11 -26   -0.94    5.10
  15  -4 -26    6.19    5.99
 -15   4  26    5.93    4.84
 -11  18 -26    0.74    4.86
  18  -7 -26    0.66    6.36
  -7 -11 -26   -6.98    5.61
 -18   7  26   -9.24    4.88
 -12  -7 -26   13.23    5.89
  -7  19 -26    2.31    5.31
 -19  12  26    6.86    6.04
  -4  16 -26   44.57    5.66
 -12  -4 -26   49.50    6.59
 -16  12  26   50.44    6.56
 -12  -1 -26   -1.25    4.47
  -1  13 -26    6.76    3.73
  12   1  26    1.09    5.05
 -12   2 -26   84.37    7.15
   2  10 -26   86.73    7.06
  12  -2  26   77.63    7.74
   5   7 -26   -8.82    3.76
 -12   5 -26   -4.13    3.70
  12  -5  26   -2.32    4.12
   8   4 -26   89.24    6.79
   1 -12 -26    3.32    4.52
  11   1 -26    3.79    4.77
  14  -2 -26   61.44    7.14
  -2 -12 -26   82.52    8.33
 -14   2  26   53.33    7.00
  17  -5 -26    4.36    6.48
  -5 -12 -26   -6.32    5.77
 -17   5  26   14.98    5.85
  -8 -12 -26   50.16    8.00
 -13  -5 -26   -0.78    5.47
  -5  18 -26   -7.90    5.16
 -18  13  26    2.37    5.52
  -2  15 -26    8.61    4.77
 -13  -2 -26   -1.82    4.93
 -15  13  26    2.19    7.16
  13   2  26    5.86    5.60
   1  12 -26   -0.01    4.12
 -13   1 -26    8.20    4.51
  13  -1  26    3.88    4.99
 -13   4 -26    5.72    3.99
   4   9 -26    1.63    4.00
  13  -4  26   -1.94    4.65
   7   6 -26   -1.94    3.55
  13  -7  26   -7.23    4.56
   3 -13 -26    5.08    4.73
  10   3 -26   -1.53    4.64
  13   0 -26    0.33    5.21
   0 -13 -26   14.51    5.21
 -13   0  26    0.37    4.97
  -3 -13 -26    3.71    5.41
  16  -3 -26   -2.69    6.08
 -16   3  26    0.89    4.92
  -6 -13 -26    7.53    6.55
 -14  -3 -26    0.99    4.99
  -3  17 -26   -0.30    5.19
 -17  14  26   -3.33    5.20
   0  14 -26   51.06    6.65
 -14   0 -26   70.96    7.59
  14   0  26   53.46    7.23
   3  11 -26   -1.46    3.66
 -14   3 -26   15.13    5.10
  14  -3  26    0.72    5.04
   6   8 -26   79.89    7.73
   9   5 -26    1.91    4.43
  14  -9  26    7.56    5.19
   2 -14 -26   86.33    8.51
  12   2 -26   75.13    8.40
  -1 -14 -26   10.70    5.58
  15  -1 -26  -12.66    5.75
 -15   1  26  -10.19    5.10
  -4 -14 -26   41.86    7.34
  18  -4 -26   29.69    8.14
 -18   4  26   39.59    7.32
 -15  -4 -26   -3.67    5.89
  -1  16 -26   -1.58    4.47
 -15  -1 -26   12.33    5.69
  15   1  26    4.57    6.23
 -15   2 -26    4.74    4.71
   2  13 -26    8.31    4.48
  15  -2  26    0.28    5.56
 -15   5 -26   -4.94    4.64
   5  10 -26   -2.49    3.80
  15  -5  26   -7.25    4.90
   8   7 -26   -1.54    4.65
  15  -8  26   -1.37    4.89
  11   4 -26    4.88    5.30
   4 -15 -26    6.83    5.38
  14   1 -26   -0.48    5.02
   1 -15 -26   -7.71    5.40
 -14  -1  26   -0.92    4.87
  17  -2 -26   17.69    7.29
  -2 -15 -26   -3.61    5.81
 -17   2  26   -7.61    5.91
 -16  -2 -26   52.52    7.61
  16   2  26   36.34    7.67
   1  15 -26   -2.77    4.48
 -16   1 -26   -2.96    5.15
  16  -1  26   -1.00    5.93
   4  12 -26   40.27    6.39
  16  -4  26   52.63    7.31
   7   9 -26   11.76    4.94
  16  -7  26   -0.13    5.20
  10   6 -26   69.06    7.37
  16 -10  26   79.72    8.55
  13   3 -26   11.48    5.10
   3 -16 -26    7.71    5.95
  16   0 -26   33.95    6.87
   0 -16 -26   32.03    7.35
 -16   0  26   45.77    7.43
 -17   0 -26   -3.74    5.75
  17   0  26   -6.03    6.67
   3  14 -26    4.11    4.58
 -17   3 -26    1.22    5.19
  17  -3  26   -0.02    5.83
   6  11 -26    3.74    5.15
 -17   6 -26    1.27    5.12
  17  -6  26    0.85    5.66
   9   8 -26    1.16    5.13
  17  -9  26    9.12    5.80
   5 -17 -26   -4.56    5.68
  12   5 -26   -5.57    5.40
  15   2 -26   -4.87    5.98
   2 -17 -26    0.62    6.20
 -15  -2  26   16.09    6.61
 -18   2 -26   54.75    7.16
  18  -2  26   44.43    8.14
 -18   5 -26   -0.34    5.08
   5  13 -26   -5.02    5.40
  18  -5  26   -3.90    6.40
   8  10 -26   50.33    7.28
  18  -8  26   37.26    7.24
  11   7 -26    3.38    5.75
  18 -11  26    2.89    6.23
   4 -18 -26   45.65    7.56
  14   4 -26   78.74    9.74
 -19   4 -26   -3.93    6.16
  19  -4  26   -6.50    6.49
 -19   7 -26   -9.62    5.16
  19  -7  26    5.66    6.58
  10   9 -26   15.07    7.64
  19 -10  26   -2.09    6.44
   6 -19 -26   12.29    6.79
  19 -13  26   -6.29    6.45
  20  -9  26    1.62    7.17
  20 -12  26   43.25    7.89
   6  -3 -27    8.51    3.97
  -6   3  27   16.88    4.68
  -6   3  27    4.41    5.93
  -1   5 -27    2.80    2.84
   2   2 -27    4.33    3.03
   5  -1 -27   -1.15    3.56
  -5   1  27    6.70    5.62
   8  -4 -27   -3.02    3.89
  -8   4  27    3.19    3.68
  -2   7 -27   -1.74    3.06
   1   4 -27   -2.14    3.03
   4   1 -27    7.50    3.42
  -4  -1  27    0.30    5.23
   7  -2 -27    2.60    3.72
  -7   2  27   -0.15    3.64
  -7   2  27    5.52    6.25
  -5  -5 -27   18.64    4.46
  10  -5 -27   15.97    4.93
  -5  10 -27   17.15    5.72
 -10   5  27   25.69    4.64
  -6  -3 -27    8.24    3.85
  -3   9 -27   -7.16    3.17
   9  -6 -27    0.85    4.24
  -9   6  27   -1.78    3.85
   0   6 -27    2.95    3.24
   3   3 -27    1.43    3.09
  -3  -3  27   -6.77    5.94
   6   0 -27    6.82    3.67
  -6   0  27   -1.97    4.89
  -3  -6 -27    2.86    4.00
   9  -3 -27    5.71    4.16
  -9   3  27    1.21    3.91
  12  -6 -27   -1.38    5.20
  -6  -6 -27   -0.85    4.41
 -12   6  27   -2.14    4.36
  -7  -4 -27    1.54    4.30
  11  -7 -27    3.54    5.63
 -11   7  27   12.19    5.03
  -7  -1 -27   15.05    4.38
  -1   8 -27   24.57    4.10
   2   5 -27    5.94    3.54
  -2  -5  27    6.77    6.38
   5   2 -27   24.04    4.13
   8  -1 -27   23.82    4.52
  -8   1  27   17.73    4.27
  11  -4 -27    2.73    4.99
  -4  -7 -27    5.74    4.33
 -11   4  27    3.34    4.36
  14  -7 -27   29.52    6.68
  -7  14 -27   29.63    4.90
  -7  -7 -27   25.36    5.36
 -14   7  27   30.58    5.58
  -5  13 -27   13.40    4.39
  -8  -5 -27    6.47    4.73
 -13   8  27   -9.05    4.32
  -8  -2 -27    1.55    4.14
   1   7 -27    5.16    3.62
   8  -1  27    0.82    5.37
   4   4 -27   -1.71    2.97
   7   1 -27   -0.54    3.91
  10  -2 -27    4.59    4.13
  -2  -8 -27    7.11    4.53
 -10   2  27    0.09    4.37
  -5  -8 -27   11.28    4.81
  13  -5 -27   -5.47    4.56
 -13   5  27    3.08    4.88
  -8  -8 -27   -3.66    4.73
  -8  16 -27   -5.21    4.39
 -16   8  27    0.42    5.21
  -9  -6 -27   -0.29    4.97
  -6  15 -27    0.74    4.56
 -15   9  27    0.30    4.80
  -3  12 -27   21.30    4.43
 -12   9  27    9.78    4.55
  -9   0 -27    5.05    3.99
   0   9 -27   -0.71    4.80
   9   0  27   -3.85    4.39
   3   6 -27   14.78    4.13
   6   3 -27    0.62    3.42
   9   0 -27   -0.43    4.21
  -3  -9 -27   14.76    5.90
  12  -3 -27   25.14    5.59
 -12   3  27   17.53    5.28
  15  -6 -27   13.18    6.45
  -6  -9 -27    6.64    5.44
 -15   6  27    3.93    4.98
  -9  -9 -27   17.24    6.15
  -9  18 -27   11.60    5.49
 -18   9  27   19.66    6.47
 -10  -7 -27    6.88    5.51
  -7  17 -27    5.26    4.97
 -17  10  27    5.36    5.58
 -10  -4 -27    2.46    4.74
  -4  14 -27    3.51    3.95
 -14  10  27   -3.69    4.61
  -1  11 -27    2.89    4.05
 -10  -1 -27   -6.39    4.38
  10   1  27    7.99    4.80
 -10   2 -27    3.81    4.05
   2   8 -27    1.97    3.83
  10  -2  27    7.90    4.45
   5   5 -27   -1.49    3.87
   8   2 -27    5.04    4.18
  -1 -10 -27    8.63    4.66
  11  -1 -27    5.69    4.72
 -11   1  27    8.87    4.40
  -4 -10 -27   -0.51    5.13
  14  -4 -27    7.96    6.02
 -14   4  27   -8.99    5.07
  -7 -10 -27   11.84    5.64
  17  -7 -27    1.11    7.15
 -17   7  27   -0.86    5.83
 -11  -8 -27   -2.97    5.91
 -11  -5 -27   26.32    6.03
  -5  16 -27   38.33    6.08
 -16  11  27   33.20    5.95
 -11  -2 -27    1.31    4.75
  -2  13 -27   -3.75    4.40
 -11   1 -27   33.81    5.25
   1  10 -27   28.14    5.02
  11  -1  27   43.65    6.17
 -11   4 -27    6.55    6.33
   4   7 -27   -0.64    4.10
  11  -4  27   -3.16    4.48
   7   4 -27   11.80    4.67
  10   1 -27   10.23    5.00
  13  -2 -27   -0.61    4.81
  -2 -11 -27   10.13    5.44
 -13   2  27    2.96    5.06
  16  -5 -27    4.11    7.00
  -5 -11 -27   13.42    5.90
 -16   5  27   17.91    5.90
  -8 -11 -27   -3.63    6.56
  -6  18 -27    3.66    5.68
 -12  -6 -27    7.90    6.08
 -18  12  27   -1.22    5.79
 -12  -3 -27   -5.23    4.64
  -3  15 -27    1.12    4.96
   0  12 -27    9.17    4.54
 -12   0 -27   11.75    4.91
  12   0  27    4.45    5.36
   3   9 -27   -6.75    4.13
 -12   3 -27    0.57    4.21
  12  -3  27   -1.74    4.74
   6   6 -27   -6.65    3.71
   9   3 -27    8.05    4.89
   0 -12 -27    9.10    5.09
  12   0 -27    3.18    5.11
 -12   0  27    1.33    4.90
  -3 -12 -27   12.06    5.95
  15  -3 -27    0.56    6.41
 -15   3  27    6.04    5.79
  -6 -12 -27  -10.55    5.88
  18  -6 -27    1.65    9.49
 -18   6  27   10.49    8.27
 -13  -4 -27    3.22    5.37
  -4  17 -27    0.06    4.67
 -17  13  27    5.55    5.51
 -13  -1 -27    6.21    5.25
  -1  14 -27   11.86    5.01
  13   1  27   16.63    6.00
   2  11 -27    1.73    3.94
 -13   2 -27    1.39    4.72
  13  -2  27   12.47    5.33
   5   8 -27   28.94    5.65
  13  -5  27   32.83    9.44
   8   5 -27   16.21    4.32
  11   2 -27    7.96    5.27
  -1 -13 -27   15.19    5.95
  14  -1 -27   15.46    6.49
 -14   1  27   18.73    5.98
  -4 -13 -27    4.66    6.33
  17  -4 -27   10.38    6.42
 -17   4  27    5.58    5.48
 -14  -2 -27   -0.52    5.30
  -2  16 -27    8.32    5.40
 -14   1 -27   -3.28    4.76
   1  13 -27   -3.32    4.16
  14  -1  27    8.06    5.74
 -14   4 -27   -4.71    4.53
   4  10 -27    0.24    4.59
  14  -4  27   -5.51    5.16
   7   7 -27   -6.57    4.75
 -14   7 -27   -3.49    7.57
  14  -7  27    1.65    5.05
  10   4 -27    1.74    4.39
  13   1 -27  -13.03    5.48
   1 -14 -27   10.29    6.19
 -13  -1  27  -11.97    5.32
  -2 -14 -27    8.25    6.29
  16  -2 -27  -12.95    5.76
 -16   2  27   -1.62    5.52
 -15   0 -27   -3.22    5.40
   0  15 -27   -2.11    5.17
  15   0  27    0.55    6.40
 -15   3 -27   23.32    5.54
   3  12 -27   24.66    5.84
  15  -3  27   26.93    6.08
   6   9 -27    4.85    4.99
 -15   6 -27    5.76    4.97
  15  -6  27    2.89    5.39
   9   6 -27   -1.12    5.13
   3 -15 -27    9.42    9.68
  12   3 -27    7.12    4.91
  15   0 -27   12.81    6.73
   0 -15 -27    7.44    6.39
 -15   0  27   -3.55    6.01
 -16  -1 -27   12.99    6.39
  16   1  27    8.10    6.57
   2  14 -27   -1.26    5.30
 -16   2 -27   -0.24    5.45
  16  -2  27  -10.50    6.00
   5  11 -27    7.03    4.75
 -16   5 -27   24.39    5.42
  16  -5  27   13.91    6.25
   8   8 -27   -7.12    5.10
  16  -8  27    3.28    5.53
  11   5 -27   16.05    6.22
   2 -16 -27   -8.45    6.03
  14   2 -27    1.43    6.19
 -14  -2  27   -2.58    6.09
  -1 -16 -27    1.05    7.11
 -17   1 -27   27.41    6.83
  17  -1  27   24.05    7.20
 -17   4 -27    0.77    5.68
   4  13 -27    4.63    5.11
  17  -4  27   -5.97    6.00
   7  10 -27   30.13    6.43
 -17   7 -27    2.33    5.44
  17  -7  27   17.14    6.32
  10   7 -27   -0.01    5.78
  17 -10  27   11.88    8.49
  13   4 -27   22.62    6.69
   1 -17 -27    7.91    7.09
 -18   6 -27    6.09    5.75
  18  -6  27    5.84    6.60
   9   9 -27   -2.29    6.50
  18  -9  27   -1.43    6.60
 -19   8 -27  -15.66    5.58
  19  -8  27    8.84    7.12
  19 -11  27   10.78    7.19
   6  -2 -28  116.88   10.26
   9  -5 -28   -3.06    4.61
   2   3 -28   -4.31    3.37
   5   0 -28   -2.23    3.68
   8  -3 -28   -7.09    4.14
  -8   3  28    2.50    4.30
  -6  -5 -28    3.24    4.44
  11  -6 -28    6.21    5.31
 -11   6  28    1.41    4.62
  -2   8 -28   86.34    6.75
   1   5 -28    4.05    3.53
   4   2 -28  123.08    7.71
   7  -1 -28   10.98    4.28
  -7   1  28    3.66    4.12
  10  -4 -28   70.00    7.36
 -10   4  28   77.96    7.55
  -7  -6 -28   -1.21    4.78
  13  -7 -28   -5.30    5.80
 -13   7  28    8.41    5.12
  -3  10 -28   -4.94    3.79
  -7  -3 -28   -5.08    4.54
   0   7 -28   -3.42    3.52
   3   4 -28    2.09    3.52
   6   1 -28    7.63    4.12
   9  -2 -28   12.58    4.85
  -9   2  28    1.14    4.16
  -5  -7 -28    5.50    5.18
  12  -5 -28   -3.96    5.39
 -12   5  28    7.10    4.79
  -8  -7 -28    1.33    5.33
  -7  15 -28   -2.96    6.35
 -15   8  28    2.55    5.31
  -8  -4 -28   76.43    8.46
  -4  12 -28   82.62    7.67
  -1   9 -28   -2.73    3.83
   2   6 -28  113.38    7.56
   5   3 -28    9.15    4.85
   8   0 -28   74.97    7.61
  11  -3 -28   -8.28    4.99
  -3  -8 -28   -0.01    7.52
 -11   3  28   -3.14    4.83
  14  -6 -28   84.94    9.64
  -6  -8 -28   79.44    8.30
 -14   6  28   61.62    7.21
  -8  17 -28    2.11    5.69
  -9  -8 -28   -7.89    5.66
 -17   9  28  -15.83    5.84
  -9  -5 -28    6.11    5.26
  -5  14 -28    3.91    4.73
 -14   9  28   -0.28    4.82
  -9  -2 -28    4.27    7.49
  -2  11 -28    3.41    4.32
   1   8 -28    1.69    3.84
   4   5 -28    1.55    4.10
   7   2 -28   -2.61    4.07
  10  -1 -28   -7.38    4.74
 -10   1  28    3.02    4.80
  -4  -9 -28   -2.45    5.13
  13  -4 -28    9.52    5.32
 -13   4  28    4.81    5.34
  16  -7 -28    6.29    6.32
  -7  -9 -28   13.58    6.11
 -16   7  28   -1.45    5.65
 -10  -6 -28   37.08    6.85
  -6  16 -28   49.68    6.69
 -16  10  28   70.96    8.58
 -10  -3 -28    3.45    5.09
  -3  13 -28   -4.87    4.58
   0  10 -28   92.59    7.37
 -10   0 -28   77.08   10.08
  10   0  28   83.60   10.96
   3   7 -28   -8.99    3.96
   6   4 -28   91.26    7.72
   9   1 -28    0.05    4.82
  12  -2 -28   68.70    8.65
  -2 -10 -28   70.23    7.50
 -12   2  28   62.47    7.14
  -5 -10 -28   -1.45    5.55
  15  -5 -28   -2.79    6.50
 -15   5  28    6.75    4.91
  -8 -10 -28   91.70   10.21
 -11  -7 -28    0.11    6.12
  -4  15 -28   -4.27    5.00
 -11  -4 -28   -4.26    5.23
 -11  -1 -28   -8.65    4.88
  -1  12 -28    9.05    4.71
   2   9 -28    8.61    4.38
 -11   2 -28   -0.93    6.40
  11  -2  28   -5.08    5.50
   5   6 -28    1.40    4.47
   8   3 -28   -3.71    4.65
  11   0 -28    9.39    5.28
 -11   0  28    9.72    4.60
  14  -3 -28    2.07    6.17
  -3 -11 -28    1.61    5.70
 -14   3  28   -1.26    5.01
  17  -6 -28   16.34    8.21
  -6 -11 -28    9.85    6.42
 -17   6  28   -2.35    6.37
 -12  -5 -28    0.88    6.12
  -5  17 -28    5.23    5.50
 -12  -2 -28   52.51    6.76
  -2  14 -28   59.96    7.13
 -12   1 -28   -0.76    4.89
   1  11 -28   -3.34    4.64
  12  -1  28    0.09    5.56
   4   8 -28   70.51    7.62
   7   5 -28   -6.74    4.44
  10   2 -28   91.89    8.78
  -1 -12 -28   -0.86    5.71
  13  -1 -28    3.36    5.93
 -13   1  28   -4.37    5.28
  -4 -12 -28   33.20    7.14
  16  -4 -28   34.93    8.13
 -16   4  28   41.57    7.02
  -3  16 -28   -2.49    5.47
 -13  -3 -28    4.65    5.74
 -13   0 -28  -12.46    4.95
   0  13 -28   -4.11    5.01
  13   0  28    6.25    5.89
 -13   3 -28   -0.94    5.05
   3  10 -28   -0.42    3.99
  13  -3  28    2.98    5.40
   6   7 -28    7.83    5.02
   9   4 -28   -6.25    4.39
  12   1 -28   -7.94    5.40
 -12  -1  28   -4.37    5.33
  15  -2 -28   -8.23    6.73
  -2 -13 -28    4.48    6.00
 -15   2  28   -0.98    5.82
 -14  -1 -28   -3.28    5.69
  -1  15 -28    8.41    5.40
  14   1  28   -9.59    6.21
 -14   2 -28   55.72    6.95
   2  12 -28   42.81    6.43
  14  -2  28   43.82    7.19
   5   9 -28    0.42    5.19
  14  -5  28   -3.80    5.51
   8   6 -28   51.17    6.72
  11   3 -28    7.57    5.73
  14   0 -28   51.31    7.18
   0 -14 -28   46.31    7.81
 -14   0  28   53.67    7.10
  -3 -14 -28    0.54    6.73
 -15   1 -28    6.87    5.69
   1  14 -28    6.41    5.74
  15  -1  28  -17.93    6.34
   4  11 -28   -2.62    5.44
 -15   4 -28   -0.28    5.55
  15  -4  28   -5.38    5.74
   7   8 -28   -5.70    5.03
  10   5 -28    5.07    5.17
  13   2 -28  -13.47    6.00
  -1 -15 -28    3.28    7.15
   3  13 -28    0.62    5.63
 -16   3 -28   -4.23    5.41
  16  -3  28    5.64    6.89
 -16   6 -28   31.48    6.26
   6  10 -28   27.28    6.54
  16  -6  28   41.07    7.20
   9   7 -28    9.53    5.30
  12   4 -28   70.27    8.73
   1 -16 -28   11.85    7.32
 -17   5 -28    1.04    5.91
  17  -5  28    5.68    6.68
   8   9 -28    8.00    6.31
  17  -8  28   -9.96    9.48
 -18   7 -28    7.01    6.22
  18  -7  28   -1.46    6.85
   2   4 -29   -0.79    5.26
   5   1 -29    1.36    4.06
   8  -2 -29    5.74    5.17
  -8   2  29    1.89    4.73
  11  -5 -29    5.95    5.57
 -11   5  29   -6.08    4.74
   4   3 -29   -0.42    5.92
   7   0 -29    1.12    4.55
  10  -3 -29   25.75    5.91
 -10   3  29   12.36    5.36
  13  -6 -29   -4.32    6.32
  -6  -7 -29    0.10    5.24
 -13   6  29    3.15    5.48
  -8  -6 -29   -8.46    5.20
 -14   8  29    6.32    6.19
  -3  11 -29   -0.12    4.41
   0   8 -29    8.18    4.50
   3   5 -29    2.07    4.15
   6   2 -29    7.80    4.51
   9  -1 -29   -3.51    4.69
  -9   1  29   -2.85    4.91
  12  -4 -29  -10.09    5.71
 -12   4  29    8.21    5.39
  -7  -8 -29   -3.33    5.77
 -15   7  29  -13.46    5.69
  -9  -7 -29   23.66    6.73
 -16   9  29   26.03    6.73
  -4  13 -29    3.25    4.94
  -9  -4 -29    4.45    5.36
  -1  10 -29    4.78    4.48
   2   7 -29    6.18    4.41
   5   4 -29   10.64    4.62
   8   1 -29   13.55    5.47
  11  -2 -29   21.77    6.08
 -11   2  29    8.38    5.21
  -5  -9 -29    8.65    5.99
  14  -5 -29   29.45    7.31
 -14   5  29   17.06    5.85
  -8  -9 -29   -5.09    6.41
  -5  15 -29   15.61    5.43
 -10  -5 -29    8.66    6.04
  -2  12 -29    1.77    4.69
 -10  -2 -29   -8.94    5.04
   1   9 -29    4.60    4.49
   4   6 -29   -1.56    4.43
   7   3 -29    2.97    4.86
  10   0 -29    8.99    5.39
 -10   0  29   -4.05    4.26
  13  -3 -29    4.79    6.71
 -13   3  29   -6.09    5.55
  -6 -10 -29    1.33    6.16
  16  -6 -29   12.09    7.71
 -16   6  29   14.68    6.57
  -3  14 -29    9.22    5.60
 -11  -3 -29   18.11    5.99
   0  11 -29   -1.32    4.88
   3   8 -29   24.27    5.60
   6   5 -29    6.43    4.74
   9   2 -29   10.30    5.59
  12  -1 -29    9.42    5.96
 -12   1  29   -4.32    5.40
  -4 -11 -29   -4.39    6.09
  15  -4 -29   -7.65    7.21
 -15   4  29   11.30    6.23
  -4  16 -29   -2.75    6.73
 -12  -4 -29   -3.22    6.04
 -12  -1 -29   -2.34    5.74
  -1  13 -29   -8.73    5.21
   2  10 -29   -0.08    4.88
   5   7 -29   -2.16    4.60
   8   4 -29   -1.12    5.35
  11   1 -29    3.56    5.73
 -11  -1  29    0.56    5.44
  14  -2 -29   -0.20    6.63
 -14   2  29   -5.20    6.16
  -2  15 -29   -5.66    5.58
 -13  -2 -29    3.30    5.70
   1  12 -29    4.95    5.42
 -13   1 -29   17.94    6.23
  13  -1  29   15.97    6.51
   4   9 -29   -2.72    4.47
   7   6 -29    8.39    5.43
  10   3 -29   11.05    5.38
  13   0 -29    4.44    5.72
 -13   0  29   11.19    6.30
  -3 -13 -29   24.42    7.49
 -14   0 -29    3.80    5.76
   0  14 -29   -1.15    6.24
  14   0  29   -3.66    6.62
   3  11 -29    7.84    5.29
  14  -3  29    7.55    6.70
   6   8 -29   -1.00    5.12
   9   5 -29   -5.50    5.07
  12   2 -29   10.06    6.56
 -15   2 -29    6.03    6.00
   2  13 -29    0.46    8.31
  15  -2  29   -3.40    6.62
   5  10 -29    8.01    6.01
   8   7 -29   -1.82    5.69
  11   4 -29    7.37    6.44
 -16   4 -29   -3.89    5.83
  16  -4  29    9.47    7.14
   7   9 -29    2.78    8.36
   5   2 -30   10.94    8.01
   8  -1 -30   13.21    5.48
  11  -4 -30   -9.57    6.17
 -11   4  30   -1.61    9.05
   1   7 -30    7.43    5.42
   4   4 -30   92.73    7.90
   7   1 -30  -12.32    4.87
  10  -2 -30   67.06    7.81
 -10   2  30   65.82    8.25
  13  -5 -30    7.56    6.84
 -13   5  30   -4.65    5.67
  -9  -6 -30    3.08    6.89
   0   9 -30    4.86    4.65
   3   6 -30    1.98    4.60
   6   3 -30   -1.50    4.88
   9   0 -30   -0.31    5.32
  -9   0  30   -0.09    5.28
  12  -3 -30    4.40    6.25
 -12   3  30   -3.11    5.60
  15  -6 -30   -8.54    7.66
 -15   6  30    6.09    6.44
  -1  11 -30   -4.69    4.92
   2   8 -30   62.92    7.07
   5   5 -30    1.35    4.97
   8   2 -30   96.85    9.08
  11  -1 -30    7.08    5.96
 -11   1  30   -8.74    5.53
  14  -4 -30   38.26    8.32
 -14   4  30   39.71    7.54
  -2  13 -30    6.96    5.48
   1  10 -30   -1.17    4.92
   4   7 -30   -0.31    4.40
   7   4 -30   -7.63    5.38
  10   1 -30   -0.90    5.70
 -10  -1  30   -3.52    5.62
  13  -2 -30   -2.43    6.91
 -13   2  30    5.46    6.31
   0  12 -30   54.02    6.89
   3   9 -30   -2.56    5.50
   6   6 -30   60.89    7.34
   9   3 -30   11.23    6.16
  12   0 -30   39.80    7.96
 -12   0  30   46.99    7.87
   2  11 -30    9.43    5.85
   5   8 -30    8.40    5.51
   8   5 -30   -7.35    5.85
  11   2 -30   -3.90    6.14
 -11  -2  30    0.88    5.96
   4  10 -30   50.03    7.60
   7   7 -30    9.93    6.19
  10   4 -30   46.62    7.74
   4   5 -31   10.41    7.95
   7   2 -31    2.12    5.84
  10  -1 -31    0.65    6.27
 -10   1  31   18.06    6.11
  13  -4 -31   -0.42    7.87
 -13   4  31   -0.61    7.29
   3   7 -31    0.64    5.36
   6   4 -31   -3.39    5.39
   9   1 -31   16.95    6.21
  -9  -1  31   -8.76    5.69
  12  -2 -31   10.55    7.16
 -12   2  31    7.66    6.67
  -1  12 -31   18.86    8.65
   2   9 -31    1.10    5.60
   5   6 -31   12.72    5.81
   8   3 -31   -4.88    5.87
  11   0 -31    3.62    6.80
 -11   0  31   12.66    6.71
   1  11 -31    2.15    5.71
   4   8 -31    7.30    5.56
   7   5 -31   -7.59    5.88
  10   2 -31   14.53    6.76
 -10  -2  31   -1.71    6.21
   3  10 -31    3.42    6.46
   6   7 -31    7.03    6.19
   9   4 -31   14.65    6.86
   6   5 -32   -7.14    6.18
   9   2 -32   -2.73    6.62
  -9  -2  32   -3.42    6.65
   5   7 -32   17.66    6.66
   8   4 -32   34.43    8.60
   0   0   0    0.00    0.00
;
_shelx_hkl_checksum              3567
loop_
_space_group_symop_operation_xyz
'x, y, z'
'-y, x-y, z'
'-x+y, -x, z'
'x+2/3, y+1/3, z+1/3'
'-y+2/3, x-y+1/3, z+1/3'
'-x+y+2/3, -x+1/3, z+1/3'
'x+1/3, y+2/3, z+2/3'
'-y+1/3, x-y+2/3, z+2/3'
'-x+y+1/3, -x+2/3, z+2/3'
'-x, -y, -z'
'y, -x+y, -z'
'x-y, x, -z'
'-x+2/3, -y+1/3, -z+1/3'
'y+2/3, -x+y+1/3, -z+1/3'
'x-y+2/3, x+1/3, -z+1/3'
'-x+1/3, -y+2/3, -z+2/3'
'y+1/3, -x+y+2/3, -z+2/3'
'x-y+1/3, x+2/3, -z+2/3'
loop_
_atom_site_label
_atom_site_type_symbol
_atom_site_fract_x
_atom_site_fract_y
_atom_site_fract_z
_atom_site_U_iso_or_equiv
_atom_site_adp_type
_atom_site_occupancy
_atom_site_site_symmetry_order
_atom_site_calc_flag
_atom_site_refinement_flags_posn
_atom_site_refinement_flags_adp
_atom_site_refinement_flags_occupancy
_atom_site_disorder_assembly
_atom_site_disorder_group
Lu1 Lu 0.0000 0.0000 0.25235(3) 0.01097(19) Uani 1 3 d S T P . .
Lu2 Lu -0.17290(2) 0.15728(2) -0.08522(2) 0.00522(11) Uani 1 1 d . . . . .
B1 B -0.2200(7) 0.0252(7) 0.0499(5) 0.010(2) Uani 1 1 d . . . . .
B2 B 0.0162(7) 0.1832(7) 0.1644(6) 0.009(2) Uani 1 1 d . . . . .
B3 B 0.3172(8) 0.5264(8) 0.2921(6) 0.014(2) Uani 1 1 d . . . . .
B4 B -0.0578(7) 0.1489(7) 0.0517(5) 0.008(2) Uani 1 1 d . U . . .
B5 B 0.2934(7) 0.3981(7) 0.2174(5) 0.009(2) Uani 1 1 d . . . . .
B6 B 0.1504(7) 0.1405(7) 0.3345(5) 0.011(2) Uani 1 1 d . U . . .
B7 B 0.1593(8) 0.2376(7) 0.2348(6) 0.013(2) Uani 1 1 d . . . . .
B8 B -0.3240(7) 0.0263(7) 0.1390(5) 0.009(2) Uani 1 1 d . U . . .
O1 O -0.2437(4) 0.0801(4) 0.0082(3) 0.0090(14) Uani 1 1 d . U . . .
O2 O 0.2442(4) 0.4216(4) 0.1692(3) 0.0092(13) Uani 1 1 d . U . . .
O3 O -0.2868(4) -0.0154(4) 0.1038(3) 0.0038(12) Uani 1 1 d . U . . .
O4 O 0.2456(4) 0.1864(4) 0.3472(3) 0.0092(14) Uani 1 1 d . . . . .
O5 O 0.1248(4) 0.1577(4) 0.2685(3) 0.0138(15) Uani 1 1 d . U . . .
O6 O 0.3638(4) 0.3891(4) 0.1855(3) 0.0107(14) Uani 1 1 d . . . . .
O7 O 0.3496(4) 0.4783(4) 0.2595(3) 0.0086(14) Uani 1 1 d . U . . .
O8 O 0.3738(4) 0.5958(4) 0.3333(3) 0.0129(15) Uani 1 1 d . U . . .
O9 O -0.0213(4) 0.0866(4) 0.1789(3) 0.0093(14) Uani 1 1 d . . . . .
O10 O 0.1149(4) 0.2370(4) 0.1782(3) 0.0081(14) Uani 1 1 d . . . . .
O11 O 0.2298(4) 0.5019(4) 0.2838(3) 0.0165(15) Uani 1 1 d . . . . .
O12 O -0.1301(4) 0.0779(4) 0.0778(3) 0.0107(14) Uani 1 1 d . U . . .
O13 O -0.0300(4) 0.2202(4) 0.2031(3) 0.0113(14) Uani 1 1 d . . . . .
O14 O 0.0157(4) 0.1987(4) 0.0923(3) 0.0068(13) Uani 1 1 d . U . . .
O15 O -0.2292(4) -0.0535(4) 0.0129(3) 0.0065(13) Uani 1 1 d . . . . .
O16 O 0.2344(4) 0.3144(4) 0.2553(3) 0.0121(15) Uani 1 1 d . . . . .
O2W O 0.0000 0.0000 0.5000 0.054(7) Uani 1 6 d S T P . .
O1W O 0.0000 0.0000 0.0000 0.18(2) Uiso 1 6 d S . P . .
loop_
_atom_site_aniso_label
_atom_site_aniso_U_11
_atom_site_aniso_U_22
_atom_site_aniso_U_33
_atom_site_aniso_U_23
_atom_site_aniso_U_13
_atom_site_aniso_U_12
Lu1 0.0114(3) 0.0114(3) 0.0100(5) 0.000 0.000 0.00572(13)
Lu2 0.0061(2) 0.0056(2) 0.00417(19) -0.00043(18) -0.00041(18) 0.00309(18)
B1 0.009(5) 0.010(5) 0.008(6) 0.002(4) 0.000(4) 0.003(4)
B2 0.005(5) 0.005(5) 0.013(6) 0.001(4) 0.003(4) 0.000(4)
B3 0.015(6) 0.020(6) 0.009(6) -0.001(5) -0.002(5) 0.010(5)
B4 0.008(2) 0.008(2) 0.008(2) 0.0002(10) 0.0001(10) 0.0039(14)
B5 0.009(5) 0.010(5) 0.009(6) -0.006(4) -0.004(4) 0.005(4)
B6 0.015(4) 0.009(4) 0.008(4) -0.002(3) 0.001(3) 0.006(3)
B7 0.014(6) 0.016(6) 0.010(6) 0.003(5) 0.001(5) 0.008(5)
B8 0.009(2) 0.009(2) 0.009(2) 0.0004(10) -0.0004(10) 0.0045(14)
O1 0.0092(16) 0.0094(16) 0.0088(17) 0.0009(10) -0.0005(10) 0.0049(11)
O2 0.011(3) 0.009(3) 0.007(3) -0.004(2) -0.006(2) 0.005(2)
O3 0.005(3) 0.003(3) 0.004(3) 0.002(2) 0.002(2) 0.002(2)
O4 0.009(3) 0.011(3) 0.009(3) 0.001(3) -0.003(3) 0.005(3)
O5 0.015(3) 0.016(3) 0.009(3) 0.002(2) -0.005(2) 0.006(2)
O6 0.012(3) 0.017(3) 0.008(4) -0.003(3) -0.001(3) 0.010(3)
O7 0.009(3) 0.012(3) 0.006(3) -0.007(2) -0.002(2) 0.006(2)
O8 0.0126(17) 0.0131(17) 0.0125(17) -0.0004(10) 0.0007(10) 0.0061(11)
O9 0.009(3) 0.005(3) 0.012(4) 0.003(3) 0.001(3) 0.002(3)
O10 0.009(3) 0.013(3) 0.002(3) 0.002(3) -0.001(3) 0.005(3)
O11 0.013(4) 0.022(4) 0.017(4) -0.010(3) -0.006(3) 0.010(3)
O12 0.0104(16) 0.0105(16) 0.0098(17) 0.0004(10) -0.0008(10) 0.0041(11)
O13 0.011(3) 0.014(3) 0.010(4) 0.001(3) 0.006(3) 0.007(3)
O14 0.0066(16) 0.0070(16) 0.0060(16) -0.0001(10) -0.0003(10) 0.0029(11)
O15 0.011(3) 0.007(3) 0.002(3) 0.000(3) -0.001(3) 0.005(3)
O16 0.006(3) 0.015(3) 0.007(4) 0.004(3) -0.002(3) 0.000(3)
O2W 0.070(11) 0.070(11) 0.023(13) 0.000 0.000 0.035(5)
loop_
_atom_type_symbol
_atom_type_description
_atom_type_scat_dispersion_real
_atom_type_scat_dispersion_imag
_atom_type_scat_source
Lu Lu -0.4720 5.8584 'International Tables Vol C Tables 4.2.6.8 and 6.1.1.4'
B B 0.0013 0.0007 'International Tables Vol C Tables 4.2.6.8 and 6.1.1.4'
O O 0.0106 0.0060 'International Tables Vol C Tables 4.2.6.8 and 6.1.1.4'
loop_
_geom_angle_atom_site_label_1
_geom_angle_atom_site_label_2
_geom_angle_atom_site_label_3
_geom_angle
_geom_angle_site_symmetry_1
_geom_angle_site_symmetry_3
O9 Lu1 O9 81.0(2) . 2
O9 Lu1 O9 81.0(2) . 3
O9 Lu1 O9 81.0(2) 2 3
O9 Lu1 O8 86.5(2) . 16
O9 Lu1 O8 130.1(2) 2 16
O9 Lu1 O8 144.1(2) 3 16
O9 Lu1 O8 144.1(2) . 17_445
O9 Lu1 O8 86.5(2) 2 17_445
O9 Lu1 O8 130.1(2) 3 17_445
O8 Lu1 O8 76.1(2) 16 17_445
O9 Lu1 O8 130.1(2) . 18_545
O9 Lu1 O8 144.1(2) 2 18_545
O9 Lu1 O8 86.5(2) 3 18_545
O8 Lu1 O8 76.1(2) 16 18_545
O8 Lu1 O8 76.1(2) 17_445 18_545
O9 Lu1 O5 73.0(2) . .
O9 Lu1 O5 146.2(2) 2 .
O9 Lu1 O5 73.9(2) 3 .
O8 Lu1 O5 70.2(2) 16 .
O8 Lu1 O5 127.1(2) 17_445 .
O8 Lu1 O5 57.1(2) 18_545 .
O9 Lu1 O5 73.9(2) . 2
O9 Lu1 O5 73.0(2) 2 2
O9 Lu1 O5 146.2(2) 3 2
O8 Lu1 O5 57.1(2) 16 2
O8 Lu1 O5 70.2(2) 17_445 2
O8 Lu1 O5 127.1(2) 18_545 2
O5 Lu1 O5 118.28(7) . 2
O9 Lu1 O5 146.2(2) . 3
O9 Lu1 O5 73.9(2) 2 3
O9 Lu1 O5 73.0(2) 3 3
O8 Lu1 O5 127.1(2) 16 3
O8 Lu1 O5 57.1(2) 17_445 3
O8 Lu1 O5 70.2(2) 18_545 3
O5 Lu1 O5 118.28(7) . 3
O5 Lu1 O5 118.28(7) 2 3
O9 Lu1 B6 86.2(3) . 2
O9 Lu1 B6 101.4(3) 2 2
O9 Lu1 B6 166.5(3) 3 2
O8 Lu1 B6 29.3(3) 16 2
O8 Lu1 B6 63.3(3) 17_445 2
O8 Lu1 B6 98.5(3) 18_545 2
O5 Lu1 B6 98.2(3) . 2
O5 Lu1 B6 29.6(3) 2 2
O5 Lu1 B6 120.4(3) 3 2
O9 Lu1 B6 101.4(3) . .
O9 Lu1 B6 166.5(3) 2 .
O9 Lu1 B6 86.2(3) 3 .
O8 Lu1 B6 63.3(3) 16 .
O8 Lu1 B6 98.5(3) 17_445 .
O8 Lu1 B6 29.3(3) 18_545 .
O5 Lu1 B6 29.6(3) . .
O5 Lu1 B6 120.4(3) 2 .
O5 Lu1 B6 98.2(3) 3 .
B6 Lu1 B6 92.0(3) 2 .
O9 Lu1 B6 166.5(3) . 3
O9 Lu1 B6 86.2(3) 2 3
O9 Lu1 B6 101.4(3) 3 3
O8 Lu1 B6 98.5(3) 16 3
O8 Lu1 B6 29.3(3) 17_445 3
O8 Lu1 B6 63.3(3) 18_545 3
O5 Lu1 B6 120.4(3) . 3
O5 Lu1 B6 98.2(3) 2 3
O5 Lu1 B6 29.6(3) 3 3
B6 Lu1 B6 92.0(3) 2 3
B6 Lu1 B6 92.0(3) . 3
O1 Lu2 O2 144.6(2) . 12
O1 Lu2 O4 78.2(2) . 14_455
O2 Lu2 O4 87.8(2) 12 14_455
O1 Lu2 O14 73.2(2) . 12
O2 Lu2 O14 128.0(2) 12 12
O4 Lu2 O14 144.1(2) 14_455 12
O1 Lu2 O10 131.6(2) . 12
O2 Lu2 O10 74.8(2) 12 12
O4 Lu2 O10 146.0(2) 14_455 12
O14 Lu2 O10 58.5(2) 12 12
O1 Lu2 O7 69.0(2) . 7_444
O2 Lu2 O7 76.2(2) 12 7_444
O4 Lu2 O7 76.1(2) 14_455 7_444
O14 Lu2 O7 112.1(2) 12 7_444
O10 Lu2 O7 125.4(2) 12 7_444
O1 Lu2 O6 89.5(2) . 7_444
O2 Lu2 O6 75.7(2) 12 7_444
O4 Lu2 O6 131.7(2) 14_455 7_444
O14 Lu2 O6 69.9(2) 12 7_444
O10 Lu2 O6 72.5(2) 12 7_444
O7 Lu2 O6 56.0(2) 7_444 7_444
O1 Lu2 O15 74.8(2) . 11
O2 Lu2 O15 132.2(2) 12 11
O4 Lu2 O15 73.8(2) 14_455 11
O14 Lu2 O15 78.0(2) 12 11
O10 Lu2 O15 96.5(2) 12 11
O7 Lu2 O15 136.6(2) 7_444 11
O6 Lu2 O15 147.2(2) 7_444 11
O1 Lu2 O3 130.2(2) . 11
O2 Lu2 O3 75.4(2) 12 11
O4 Lu2 O3 75.5(2) 14_455 11
O14 Lu2 O3 107.35(19) 12 11
O10 Lu2 O3 72.0(2) 12 11
O7 Lu2 O3 140.1(2) 7_444 11
O6 Lu2 O3 138.8(2) 7_444 11
O15 Lu2 O3 57.6(2) 11 11
O1 Lu2 B2 102.0(3) . 12
O2 Lu2 B2 98.6(3) 12 12
O4 Lu2 B2 167.3(3) 14_455 12
O14 Lu2 B2 30.1(3) 12 12
O10 Lu2 B2 30.1(3) 12 12
O7 Lu2 B2 116.1(2) 7_444 12
O6 Lu2 B2 60.9(2) 7_444 12
O15 Lu2 B2 93.9(3) 11 12
O3 Lu2 B2 95.4(2) 11 12
O1 Lu2 B1 103.2(3) . 11
O2 Lu2 B1 104.3(3) 12 11
O4 Lu2 B1 74.9(2) 14_455 11
O14 Lu2 B1 90.8(2) 12 11
O10 Lu2 B1 81.3(3) 12 11
O7 Lu2 B1 150.9(2) 7_444 11
O6 Lu2 B1 152.9(2) 7_444 11
O15 Lu2 B1 28.8(3) 11 11
O3 Lu2 B1 29.0(2) 11 11
B2 Lu2 B1 92.8(3) 12 11
O1 Lu2 B5 74.7(3) . 7_444
O2 Lu2 B5 77.9(3) 12 7_444
O4 Lu2 B5 104.9(2) 14_455 7_444
O14 Lu2 B5 88.2(2) 12 7_444
O10 Lu2 B5 99.7(3) 12 7_444
O7 Lu2 B5 28.8(2) 7_444 7_444
O6 Lu2 B5 27.7(2) 7_444 7_444
O15 Lu2 B5 149.0(3) 11 7_444
O3 Lu2 B5 153.2(2) 11 7_444
B2 Lu2 B5 87.3(3) 12 7_444
B1 Lu2 B5 177.8(3) 11 7_444
O12 B1 O1 111.9(8) . .
O12 B1 O3 109.4(8) . .
O1 B1 O3 109.4(8) . .
O12 B1 O15 111.2(8) . .
O1 B1 O15 110.5(8) . .
O3 B1 O15 104.1(7) . .
O12 B1 Lu2 118.4(6) . 12
O1 B1 Lu2 129.7(6) . 12
O3 B1 Lu2 52.9(4) . 12
O15 B1 Lu2 51.7(4) . 12
O9 B2 O13 110.5(8) . .
O9 B2 O10 112.3(8) . .
O13 B2 O10 108.8(8) . .
O9 B2 O14 111.0(8) . .
O13 B2 O14 113.5(8) . .
O10 B2 O14 100.5(7) . .
O9 B2 Lu2 141.2(6) . 11
O13 B2 Lu2 108.3(6) . 11
O10 B2 Lu2 52.0(4) . 11
O14 B2 Lu2 52.1(4) . 11
O11 B3 O8 122.4(9) . .
O11 B3 O7 118.2(9) . .
O8 B3 O7 119.4(9) . .
O12 B4 O15 123.4(9) . 11
O12 B4 O14 117.8(9) . .
O15 B4 O14 118.8(8) 11 .
O6 B5 O2 110.6(8) . .
O6 B5 O16 109.4(8) . .
O2 B5 O16 113.7(7) . .
O6 B5 O7 99.7(7) . .
O2 B5 O7 109.0(7) . .
O16 B5 O7 113.7(8) . .
O6 B5 Lu2 50.4(4) . 4
O2 B5 Lu2 130.2(6) . 4
O16 B5 Lu2 116.1(6) . 4
O7 B5 Lu2 50.3(4) . 4
O4 B6 O11 111.1(8) . 16
O4 B6 O5 114.9(8) . .
O11 B6 O5 107.2(8) 16 .
O4 B6 O8 111.4(8) . 18_545
O11 B6 O8 110.0(8) 16 18_545
O5 B6 O8 101.8(7) . 18_545
O4 B6 Lu1 145.4(7) . .
O11 B6 Lu1 103.3(6) 16 .
O5 B6 Lu1 55.7(4) . .
O8 B6 Lu1 50.2(4) 18_545 .
O16 B7 O5 122.4(9) . .
O16 B7 O10 120.9(9) . .
O5 B7 O10 116.7(9) . .
O13 B8 O3 124.5(9) 13_455 .
O13 B8 O6 118.2(8) 13_455 2
O3 B8 O6 117.3(8) . 2
B1 O1 Lu2 127.9(5) . .
B5 O2 Lu2 125.1(5) . 11
B8 O3 B1 126.3(7) . .
B8 O3 Lu2 133.7(6) . 12
B1 O3 Lu2 98.1(5) . 12
B6 O4 Lu2 133.8(6) . 15
B7 O5 B6 128.8(8) . .
B7 O5 Lu1 136.3(6) . .
B6 O5 Lu1 94.8(5) . .
B8 O6 B5 125.3(7) 3 .
B8 O6 Lu2 131.8(6) 3 4
B5 O6 Lu2 101.9(5) . 4
B3 O7 B5 124.2(8) . .
B3 O7 Lu2 134.9(6) . 4
B5 O7 Lu2 100.8(5) . 4
B3 O8 B6 131.1(8) . 17
B3 O8 Lu1 127.7(6) . 16
B6 O8 Lu1 100.4(5) 17 16
B2 O9 Lu1 138.2(6) . .
B7 O10 B2 127.8(8) . .
B7 O10 Lu2 133.4(6) . 11
B2 O10 Lu2 97.9(5) . 11
B3 O11 B6 120.8(8) . 16
B4 O12 B1 128.4(8) . .
B8 O13 B2 120.1(7) 13_455 .
B4 O14 B2 124.2(7) . .
B4 O14 Lu2 137.5(6) . 11
B2 O14 Lu2 97.8(5) . 11
B4 O15 B1 128.8(7) 12 .
B4 O15 Lu2 129.6(5) 12 12
B1 O15 Lu2 99.5(5) . 12
B7 O16 B5 128.7(8) . .
loop_
_geom_bond_atom_site_label_1
_geom_bond_atom_site_label_2
_geom_bond_distance
_geom_bond_site_symmetry_2
Lu1 O9 2.255(6) .
Lu1 O9 2.255(6) 2
Lu1 O9 2.255(6) 3
Lu1 O8 2.342(6) 16
Lu1 O8 2.342(6) 17_445
Lu1 O8 2.342(6) 18_545
Lu1 O5 2.483(6) .
Lu1 O5 2.483(6) 2
Lu1 O5 2.483(6) 3
Lu1 B6 2.996(11) 2
Lu1 B6 2.996(11) .
Lu1 B6 2.996(11) 3
Lu2 O1 2.282(6) .
Lu2 O2 2.287(6) 12
Lu2 O4 2.323(6) 14_455
Lu2 O14 2.341(6) 12
Lu2 O10 2.339(6) 12
Lu2 O7 2.375(6) 7_444
Lu2 O6 2.387(6) 7_444
Lu2 O15 2.403(6) 11
Lu2 O3 2.435(5) 11
Lu2 B2 2.940(10) 12
Lu2 B1 3.022(10) 11
Lu2 B5 3.031(10) 7_444
B1 O12 1.451(12) .
B1 O1 1.464(12) .
B1 O3 1.479(12) .
B1 O15 1.477(12) .
B1 Lu2 3.022(10) 12
B2 O9 1.470(11) .
B2 O13 1.463(12) .
B2 O10 1.487(12) .
B2 O14 1.488(13) .
B2 Lu2 2.940(10) 11
B3 O11 1.345(13) .
B3 O8 1.376(13) .
B3 O7 1.368(13) .
B4 O12 1.333(12) .
B4 O15 1.379(12) 11
B4 O14 1.382(12) .
B5 O6 1.439(12) .
B5 O2 1.471(12) .
B5 O16 1.486(12) .
B5 O7 1.488(12) .
B5 Lu2 3.031(10) 4
B6 O4 1.431(12) .
B6 O11 1.451(13) 16
B6 O5 1.484(13) .
B6 O8 1.492(12) 18_545
B7 O16 1.363(13) .
B7 O5 1.369(13) .
B7 O10 1.374(13) .
B8 O13 1.354(12) 13_455
B8 O3 1.369(12) .
B8 O6 1.388(12) 2
O2 Lu2 2.287(6) 11
O3 Lu2 2.435(5) 12
O4 Lu2 2.323(6) 15
O6 B8 1.388(12) 3
O6 Lu2 2.387(6) 4
O7 Lu2 2.375(6) 4
O8 B6 1.492(12) 17
O8 Lu1 2.342(6) 16
O10 Lu2 2.339(6) 11
O11 B6 1.451(13) 16
O13 B8 1.354(12) 13_455
O14 Lu2 2.341(6) 11
O15 B4 1.379(12) 12
O15 Lu2 2.403(6) 12
loop_
_geom_torsion_atom_site_label_1
_geom_torsion_atom_site_label_2
_geom_torsion_atom_site_label_3
_geom_torsion_atom_site_label_4
_geom_torsion
_geom_torsion_site_symmetry_1
_geom_torsion_site_symmetry_2
_geom_torsion_site_symmetry_3
_geom_torsion_site_symmetry_4
O12 B1 O1 Lu2 61.0(10) . . . .
O3 B1 O1 Lu2 -177.6(5) . . . .
O15 B1 O1 Lu2 -63.5(9) . . . .
Lu2 B1 O1 Lu2 -120.1(6) 12 . . .
O6 B5 O2 Lu2 65.5(9) . . . 11
O16 B5 O2 Lu2 -58.0(10) . . . 11
O7 B5 O2 Lu2 174.1(5) . . . 11
Lu2 B5 O2 Lu2 120.5(6) 4 . . 11
O13 B8 O3 B1 -1.3(15) 13_455 . . .
O6 B8 O3 B1 176.8(8) 2 . . .
O13 B8 O3 Lu2 -162.1(6) 13_455 . . 12
O6 B8 O3 Lu2 16.0(13) 2 . . 12
O12 B1 O3 B8 82.4(11) . . . .
O1 B1 O3 B8 -40.5(12) . . . .
O15 B1 O3 B8 -158.7(8) . . . .
Lu2 B1 O3 B8 -166.1(9) 12 . . .
O12 B1 O3 Lu2 -111.5(7) . . . 12
O1 B1 O3 Lu2 125.6(6) . . . 12
O15 B1 O3 Lu2 7.4(7) . . . 12
O11 B6 O4 Lu2 81.5(10) 16 . . 15
O5 B6 O4 Lu2 -156.7(5) . . . 15
O8 B6 O4 Lu2 -41.6(12) 18_545 . . 15
Lu1 B6 O4 Lu2 -91.7(12) . . . 15
O16 B7 O5 B6 9.1(16) . . . .
O10 B7 O5 B6 -171.3(8) . . . .
O16 B7 O5 Lu1 -176.0(6) . . . .
O10 B7 O5 Lu1 3.6(15) . . . .
O4 B6 O5 B7 -42.1(14) . . . .
O11 B6 O5 B7 81.8(11) 16 . . .
O8 B6 O5 B7 -162.7(9) 18_545 . . .
Lu1 B6 O5 B7 176.5(10) . . . .
O4 B6 O5 Lu1 141.4(7) . . . .
O11 B6 O5 Lu1 -94.7(7) 16 . . .
O8 B6 O5 Lu1 20.9(7) 18_545 . . .
O2 B5 O6 B8 -64.7(11) . . . 3
O16 B5 O6 B8 61.2(11) . . . 3
O7 B5 O6 B8 -179.3(8) . . . 3
Lu2 B5 O6 B8 169.6(10) 4 . . 3
O2 B5 O6 Lu2 125.7(6) . . . 4
O16 B5 O6 Lu2 -108.3(6) . . . 4
O7 B5 O6 Lu2 11.1(7) . . . 4
O11 B3 O7 B5 -2.5(14) . . . .
O8 B3 O7 B5 175.6(8) . . . .
O11 B3 O7 Lu2 175.9(6) . . . 4
O8 B3 O7 Lu2 -6.0(15) . . . 4
O6 B5 O7 B3 167.7(8) . . . .
O2 B5 O7 B3 51.9(12) . . . .
O16 B5 O7 B3 -76.0(11) . . . .
Lu2 B5 O7 B3 178.8(10) 4 . . .
O6 B5 O7 Lu2 -11.1(7) . . . 4
O2 B5 O7 Lu2 -127.0(6) . . . 4
O16 B5 O7 Lu2 105.1(7) . . . 4
O11 B3 O8 B6 -153.4(10) . . . 17
O7 B3 O8 B6 28.5(15) . . . 17
O11 B3 O8 Lu1 14.3(14) . . . 16
O7 B3 O8 Lu1 -163.7(6) . . . 16
O13 B2 O9 Lu1 -86.9(10) . . . .
O10 B2 O9 Lu1 34.7(12) . . . .
O14 B2 O9 Lu1 146.2(6) . . . .
Lu2 B2 O9 Lu1 91.2(12) 11 . . .
O16 B7 O10 B2 -146.8(9) . . . .
O5 B7 O10 B2 33.6(14) . . . .
O16 B7 O10 Lu2 20.6(14) . . . 11
O5 B7 O10 Lu2 -159.0(6) . . . 11
O9 B2 O10 B7 -50.8(12) . . . .
O13 B2 O10 B7 71.8(11) . . . .
O14 B2 O10 B7 -168.8(8) . . . .
Lu2 B2 O10 B7 170.8(10) 11 . . .
O9 B2 O10 Lu2 138.5(7) . . . 11
O13 B2 O10 Lu2 -99.0(7) . . . 11
O14 B2 O10 Lu2 20.5(6) . . . 11
O8 B3 O11 B6 -20.0(15) . . . 16
O7 B3 O11 B6 158.0(9) . . . 16
O15 B4 O12 B1 -10.8(15) 11 . . .
O14 B4 O12 B1 168.0(8) . . . .
O1 B1 O12 B4 -31.9(13) . . . .
O3 B1 O12 B4 -153.3(8) . . . .
O15 B1 O12 B4 92.3(11) . . . .
Lu2 B1 O12 B4 149.2(8) 12 . . .
O9 B2 O13 B8 -176.1(8) . . . 13_455
O10 B2 O13 B8 60.2(11) . . . 13_455
O14 B2 O13 B8 -50.7(11) . . . 13_455
Lu2 B2 O13 B8 5.1(10) 11 . . 13_455
O12 B4 O14 B2 -5.8(13) . . . .
O15 B4 O14 B2 173.1(8) 11 . . .
O12 B4 O14 Lu2 -176.1(5) . . . 11
O15 B4 O14 Lu2 2.8(14) 11 . . 11
O9 B2 O14 B4 47.2(11) . . . .
O13 B2 O14 B4 -77.9(10) . . . .
O10 B2 O14 B4 166.1(7) . . . .
Lu2 B2 O14 B4 -173.4(9) 11 . . .
O9 B2 O14 Lu2 -139.4(6) . . . 11
O13 B2 O14 Lu2 95.5(7) . . . 11
O10 B2 O14 Lu2 -20.4(6) . . . 11
O12 B1 O15 B4 -85.3(11) . . . 12
O1 B1 O15 B4 39.6(12) . . . 12
O3 B1 O15 B4 157.1(8) . . . 12
Lu2 B1 O15 B4 164.6(10) 12 . . 12
O12 B1 O15 Lu2 110.1(7) . . . 12
O1 B1 O15 Lu2 -124.9(6) . . . 12
O3 B1 O15 Lu2 -7.5(7) . . . 12
O5 B7 O16 B5 162.8(9) . . . .
O10 B7 O16 B5 -16.8(15) . . . .
O6 B5 O16 B7 -88.9(11) . . . .
O2 B5 O16 B7 35.2(13) . . . .
O7 B5 O16 B7 160.7(9) . . . .
Lu2 B5 O16 B7 -143.5(8) 4 . . .
