#------------------------------------------------------------------------------
#$Date: 2018-01-11 12:53:52 +0200 (Thu, 11 Jan 2018) $
#$Revision: 205069 $
#$URL: file:///home/coder/svn-repositories/cod/cif/1/54/86/1548623.cif $
#------------------------------------------------------------------------------
#
# This file is available in the Crystallography Open Database (COD),
# http://www.crystallography.net/
#
# All data on this site have been placed in the public domain by the
# contributors.
#
data_1548623
loop_
_publ_author_name
'Gruene, T.'
'Teng, Li.'
'Van Genderen, E.'
'Pinar, A. B.'
'Van Bokhoven, J. A.'
_publ_section_title
;
 Characterization at the level of individual crystals: single crystal MFI
 type zeolite grains
;
_journal_name_full               'Chemistry - A European Journal'
_journal_paper_doi               10.1002/chem.201704213
_journal_year                    2017
_chemical_formula_sum            'O24 Si12'
_chemical_formula_weight         721.20
_space_group_crystal_system      orthorhombic
_space_group_IT_number           62
_space_group_name_Hall           '-P 2ac 2n'
_space_group_name_H-M_alt        'P n m a'
_symmetry_space_group_name_Hall  '-P 2ac 2n'
_symmetry_space_group_name_H-M   'P n m a'
_atom_sites_solution_hydrogens   .
_audit_creation_method           SHELXL-2016/6
_cell_angle_alpha                90
_cell_angle_beta                 90
_cell_angle_gamma                90
_cell_formula_units_Z            8
_cell_length_a                   20.03(4)
_cell_length_b                   20.08(2)
_cell_length_c                   13.775(13)
_cell_measurement_temperature    293(2)
_cell_volume                     5540(13)
_computing_structure_refinement  'SHELXL-2016/6 (Sheldrick, 2016)'
_computing_structure_solution    'SHELXT 2014/5 (Sheldrick, 2014)'
_diffrn_ambient_temperature      293(2)
_diffrn_measured_fraction_theta_full 0.590
_diffrn_measured_fraction_theta_max 0.590
_diffrn_radiation_wavelength     0.02508
_diffrn_reflns_av_R_equivalents  0.2069
_diffrn_reflns_av_unetI/netI     0.1783
_diffrn_reflns_Laue_measured_fraction_full 0.590
_diffrn_reflns_Laue_measured_fraction_max 0.590
_diffrn_reflns_limit_h_max       14
_diffrn_reflns_limit_h_min       -14
_diffrn_reflns_limit_k_max       18
_diffrn_reflns_limit_k_min       -18
_diffrn_reflns_limit_l_max       12
_diffrn_reflns_limit_l_min       -12
_diffrn_reflns_number            5229
_diffrn_reflns_point_group_measured_fraction_full 0.590
_diffrn_reflns_point_group_measured_fraction_max 0.590
_diffrn_reflns_theta_full        0.677
_diffrn_reflns_theta_max         0.677
_diffrn_reflns_theta_min         0.063
_exptl_absorpt_coefficient_mu    0.276
_exptl_crystal_density_diffrn    1.730
_exptl_crystal_F_000             940
_refine_diff_density_max         0.187
_refine_diff_density_min         -0.243
_refine_diff_density_rms         0.056
_refine_ls_extinction_coef       .
_refine_ls_extinction_method     none
_refine_ls_goodness_of_fit_ref   1.456
_refine_ls_hydrogen_treatment    undef
_refine_ls_matrix_type           full
_refine_ls_number_parameters     149
_refine_ls_number_reflns         1485
_refine_ls_number_restraints     48
_refine_ls_restrained_S_all      1.435
_refine_ls_R_factor_all          0.2932
_refine_ls_R_factor_gt           0.2072
_refine_ls_shift/su_max          0.000
_refine_ls_shift/su_mean         0.000
_refine_ls_structure_factor_coef Fsqd
_refine_ls_weighting_details
'w=1/[\s^2^(Fo^2^)+(0.2000P)^2^] where P=(Fo^2^+2Fc^2^)/3'
_refine_ls_weighting_scheme      calc
_refine_ls_wR_factor_gt          0.4694
_refine_ls_wR_factor_ref         0.5124
_reflns_Friedel_coverage         0.000
_reflns_Friedel_fraction_full    .
_reflns_Friedel_fraction_max     .
_reflns_number_gt                728
_reflns_number_total             1485
_reflns_threshold_expression     'I > 2\s(I)'
_cod_data_source_file            zsm5_ChemEurJ.cif
_cod_data_source_block           z1b
_cod_original_cell_volume        5539(15)
_cod_database_code               1548623
_shelx_shelxl_version_number     2016/6
_shelx_space_group_comment
;
The symmetry employed for this shelxl refinement is uniquely defined
by the following loop, which should always be used as a source of
symmetry information in preference to the above space-group names.
They are only intended as comments.
;
_shelx_res_file
;
TITL 12_a.res in Pnma
    z1b.res
    created by SHELXL-2016/6 at 11:17:14 on 31-Oct-2017
REM Old TITL 12 in P222
REM SHELXT solution in Pnma
REM R1 0.298,  Rweak 0.030,  Alpha 0.176,  Orientation a'=b, b'=a, c'=-c
REM Formula found by SHELXT:  O48 Si25
CELL  0.02508  20.0260  20.0800  13.7750   90.000   90.000   90.000
ZERR    8.000   0.0440   0.0230   0.0130    0.000    0.000    0.000
LATT  1
SYMM 1/2-X, -Y, 1/2+Z
SYMM -X, 1/2+Y, -Z
SYMM 1/2+X, 1/2-Y, 1/2-Z
SFAC O  0.237  0.799  0.649  3.654  0.800 10.924  0.261 29.964  0.035 =
   0.0 0.0 18.200 0.660 16.00
SFAC Si  0.665  1.394  1.312  8.299  2.609 27.621  1.135 78.294  0.106 =
  0.0 0.0 123.000 1.110 28.100
UNIT 192 96
ACTA
L.S. 20
RIGU
XNPD 0.001
ISOR $O

LIST 4
FMAP 2
EQIV $1   x-1/2, y, -z+3/2
EQIV $2   -x+1/2, -y+2, z-1/2
EQIV $3   x, -y+3/2, z
EQIV $4   -x+1/2, -y+2, z+1/2
EQIV $5   x+1/2, y, -z+3/2

DFIX 1.609 0.01 Si1  O1 Si1 O21_$5 Si1 O16 Si1 O15
DFIX 1.609 0.01 Si2  O2 Si2 O13 Si2 O6 Si2 O1
DFIX 1.609 0.01 Si3  O20_$4 Si3 O19_$4 Si3 O2 Si3 O3
DFIX 1.609 0.01 Si4  O4 Si4 O16_$4 Si4 O3 Si4 O17_$4
DFIX 1.609 0.01 Si5  O4 Si5 O5 Si5 O14 Si5 O21
DFIX 1.609 0.01 Si6  O19 Si6 O6 Si6 O5 Si6 O18
DFIX 1.609 0.01 Si7  O23 Si7 O17 Si7 O7 Si7 O22_$5
DFIX 1.609 0.01 Si8  O13 Si8 O8 Si8 O12 Si8 O7
DFIX 1.609 0.01 Si9  O18_$4 Si9 O8 Si9 O25 Si9 O9
DFIX 1.609 0.01 Si10 O15_$4 Si10 O26 Si10 O10 Si10 O9
DFIX 1.609 0.01 Si11 O10 Si11 O14 Si11 O11 Si11 O22
DFIX 1.609 0.01 Si12 O20 Si12 O24 Si12 O11 Si12 O12

PLAN 20
WGHT    0.200000
FVAR       0.49649
SI1   2    0.422126    1.056130    0.662852    11.00000    0.01745
SI2   2    0.307577    1.029277    0.810827    11.00000    0.01630
SI3   2    0.280947    1.062451    1.029933    11.00000    0.01087
SI4   2    0.120494    1.064373    1.026954    11.00000    0.00938
SI5   2    0.072662    1.027894    0.816060    11.00000    0.00354
SI6   2    0.186104    1.058838    0.669628    11.00000    0.01340
SI7   2    0.422209    0.828694    0.673790    11.00000    0.01455
SI8   2    0.307986    0.870265    0.815283    11.00000    0.01338
SI9   2    0.275813    0.827332    1.030294    11.00000    0.00466
SI10  2    0.118348    0.827105    1.029279    11.00000    0.00733
SI11  2    0.070835    0.868906    0.816182    11.00000    0.01469
SI12  2    0.186856    0.827363    0.679964    11.00000    0.02628
O1    1    0.371420    1.056823    0.753021    11.00000    0.05577
O2    1    0.307661    1.058865    0.919539    11.00000    0.05115
O3    1    0.200725    1.060644    1.026122    11.00000    0.05890
O4    1    0.094679    1.063503    0.915881    11.00000    0.03059
O5    1    0.115226    1.053340    0.724028    11.00000    0.05287
O6    1    0.242030    1.053182    0.753148    11.00000    0.05347
O7    1    0.375858    0.845340    0.765495    11.00000    0.06746
O8    1    0.308029    0.845784    0.926518    11.00000    0.05724
O9    1    0.197038    0.844012    1.030187    11.00000    0.03475
O10   1    0.090979    0.838483    0.920289    11.00000    0.06628
O11   1    0.114783    0.843209    0.725987    11.00000    0.04429
O12   1    0.240103    0.851370    0.759766    11.00000    0.05998
O13   1    0.306821    0.949836    0.819014    11.00000    0.04997
O14   1    0.080500    0.948289    0.826321    11.00000    0.04438
O15   1    0.419702    1.126533    0.607109    11.00000    0.03326
O16   1    0.410434    0.998050    0.584296    11.00000    0.03874
O17   1    0.400332    0.866247    0.575857    11.00000    0.03865
O18   1    0.189811    1.130248    0.616081    11.00000    0.04510
O19   1    0.190541    1.000106    0.590164    11.00000    0.04323
O20   1    0.194428    0.869765    0.581435    11.00000    0.03195
O21   1   -0.003877    1.047105    0.793720    11.00000    0.02870
O22   1   -0.005242    0.851329    0.790653    11.00000    0.04642
O23   1    0.423573    0.750000    0.651856    10.50000    0.02364
O24   1    0.192907    0.750000    0.652220    10.50000    0.01353
O25   1    0.283927    0.750000    1.059096    10.50000    0.03171
O26   1    0.112301    0.750000    1.059605    10.50000    0.02258
HKLF 4




REM  12_a.res in Pnma
REM R1 =  0.2072 for     728 Fo > 4sig(Fo)  and  0.2932 for all    1485 data
REM    149 parameters refined using     48 restraints

END

WGHT      0.2000      0.0000

REM Highest difference peak  0.187,  deepest hole -0.243,  1-sigma level  0.056
Q1    1   0.0454  0.7500  1.3282  10.50000  0.05    0.19
Q2    1   0.1943  1.1783  0.7469  11.00000  0.05    0.18
Q3    1   0.2706  0.7500  1.3527  10.50000  0.05    0.18
Q4    1  -0.0147  1.1988  0.5911  11.00000  0.05    0.18
Q5    1   0.1303  1.1971  0.7543  11.00000  0.05    0.17
Q6    1   0.4642  0.7859  0.4595  11.00000  0.05    0.17
Q7    1   0.0859  1.1822  0.7573  11.00000  0.05    0.17
Q8    1   0.0696  1.1867  0.7723  11.00000  0.05    0.17
Q9    1   0.4067  1.1889  0.7546  11.00000  0.05    0.17
Q10   1   0.4815  1.1954  0.7485  11.00000  0.05    0.17
Q11   1   0.3349  1.2074  0.8232  11.00000  0.05    0.17
Q12   1   0.0261  1.1909  0.7116  11.00000  0.05    0.16
Q13   1   0.2573  1.1897  0.7688  11.00000  0.05    0.16
Q14   1   0.2620  1.2218  0.8434  11.00000  0.05    0.16
Q15   1   0.3189  0.7500  1.1815  10.50000  0.05    0.16
Q16   1   0.4200  1.2137  0.8346  11.00000  0.05    0.15
Q17   1   0.0954  0.8049  1.0942  11.00000  0.05    0.15
Q18   1   0.1791  1.1921  0.6316  11.00000  0.05    0.15
Q19   1   0.1482  0.7908  0.4372  11.00000  0.05    0.14
Q20   1   0.1943  1.2045  0.8350  11.00000  0.05    0.14
;
_shelx_res_checksum              47456
_shelx_hkl_file
;
  -1   0   4 2568.15  400.89
   1   0  -4 2528.43  394.49
  -1   0   5  294.76   46.51
   1   0  -5  366.25   57.63
  -1   0   6  213.81   33.82
  -1   0   7    1.65    4.24
   1   0  -7   16.37    4.99
  -1   0   8 1215.02  189.85
   1   0  -8  735.14  114.93
  -1   0   9  109.06   17.63
   1   0  -9  107.03   17.25
  -1   0  10  349.26   54.87
   1   0 -10  533.27   83.55
  -1   0  11   95.69   15.78
   1   0 -11  115.37   18.58
   1   0 -12   23.89    5.56
  -2   0   8  115.57   19.28
  -2   0   9  128.01   21.03
   2   0  -9  171.32   27.53
  -2   0  10   31.97    7.88
   2   0 -10   46.73    8.98
  -2   0  11   -1.19    5.03
   2   0 -11    0.07    5.34
  -2   0  12   -3.29    4.68
   2   0 -12   14.30    5.60
  -3   0  11   92.47   16.55
  -3   0  12   47.97   10.59
   4  -1 -12   16.50    7.59
  -4   1  12    2.58    7.83
  -4   1  11   21.38    9.40
  -4   1  10  -12.02    8.89
   3  -1 -12    5.21    7.32
  -3   1  12    1.54    6.93
   3  -1 -11    2.74    6.71
  -3   1  11   -2.47    7.88
   3  -1 -10   -2.25    7.02
  -3   1  10   18.58    9.40
   3  -1  -9   -8.85    6.00
  -3   1   9    2.38    7.52
   3  -1  -8   -8.19    7.24
  -3   1   8   -8.98    8.16
  -3   1   7   -5.30    8.38
   2  -1 -12   16.39    6.60
  -2   1  12    7.10    6.20
   2  -1 -11   13.44    5.82
  -2   1  11    9.95    6.40
   2  -1 -10   -4.10    5.96
  -2   1  10    1.92    6.62
   2  -1  -9   25.13    7.41
  -2   1   9   14.39    6.51
   2  -1  -8   -6.24    7.24
  -2   1   8   11.05    6.46
   2  -1  -7  663.88  104.29
  -2   1   7  559.08   87.99
   2  -1  -6   28.84    9.40
  -2   1   6   16.70    8.43
   2  -1  -5   16.17    9.40
  -2   1   5   16.55    8.54
   2  -1  -4   24.38   10.44
  -2   1   4    5.74    9.00
   1  -1 -12   -0.93    4.39
  -1   1  12   11.38    6.00
   1  -1 -11   27.34    6.49
  -1   1  11   15.14    6.40
   1  -1 -10  133.50   21.71
  -1   1  10   89.09   15.40
   1  -1  -9   -6.53    5.03
  -1   1   9    5.41    5.12
   1  -1  -8    6.71    5.25
  -1   1   8   -1.88    5.30
   1  -1  -7   10.90    6.29
  -1   1   7    9.66    6.51
   1  -1  -6    2.27    5.93
  -1   1   6   -3.29    5.87
   1  -1  -5   13.52    6.82
  -1   1   5   28.77    7.92
   1  -1  -4  171.19   27.91
  -1   1   4  201.33   32.50
   1  -1  -3  249.98   39.96
  -1   1   3  241.81   38.68
   1  -1  -2  127.35   22.64
  -1   1   2  129.78   22.90
   1  -1  -1  433.76   69.15
  -1   1   1  394.49   62.97
   0  -1  -2   -8.41    7.41
   0   1   2   -8.03    6.97
   0  -1  -1 1338.13  209.18
   0   1   1 1422.63  222.40
   0  -1   1  985.56  154.13
   0   1  -1 1116.61  174.59
   0  -1   2  -32.76    9.07
   0   1  -2  -25.73    7.90
   0  -1   3  894.22  139.73
   0  -1   4  -23.98    5.18
   0   1  -4  -12.82    4.66
  -2  -1  11   13.57    5.71
  -2  -1  12   14.03    5.47
   5  -2 -12    4.59    8.12
  -5   2  12    7.99    9.02
   4  -2 -12    3.44    7.28
  -4   2  12    0.95    8.03
   4  -2 -11    9.18    8.01
  -4   2  11    1.77    9.18
   4  -2 -10   -7.19    7.88
  -4   2  10   13.68    9.62
   4  -2  -9   52.69   11.61
  -4   2   9   28.26   10.39
   4  -2  -8    6.31    8.01
  -4   2   8    4.81    8.03
   4  -2  -7  215.51   35.32
  -4   2   7  364.26   58.25
  -3   2  12    6.13    7.02
   3  -2 -11    8.54    7.72
  -3   2  11   29.94    9.47
   3  -2 -10    6.64    7.66
  -3   2  10    3.64    9.11
   3  -2  -8    3.93    7.48
  -3   2   8   18.33    8.96
   3  -2  -7   80.00   15.95
  -3   2   7   66.87   14.05
   3  -2  -6   26.89   12.20
  -3   2   6   22.46   11.58
   3  -2  -5   70.84   15.73
  -3   2   5  119.14   22.17
   3  -2  -3  583.79   92.40
  -3   2   3  494.65   78.96
   2  -2 -12    5.10    6.82
   2  -2 -11    4.32    6.40
  -2   2  11    8.45    7.63
   2  -2 -10   15.09    6.44
  -2   2  10    6.55    7.61
   2  -2  -9    8.71    5.91
  -2   2   9   11.16    7.70
   2  -2  -8   21.97    7.52
  -2   2   8   25.97    8.43
   2  -2  -6   14.34    8.69
  -2   2   6   10.50    7.92
  -2   2   5   21.64    9.13
   2  -2  -4    5.47   11.25
  -2   2   4   17.50   10.88
   2  -2  -3  -13.24   11.98
  -2   2   3    7.50   11.52
   2  -2  -2  315.06   51.58
  -2   2   2  236.74   41.02
   2  -2  -1  -17.25   14.80
  -2   2   1   -8.63   14.58
   2  -2   0  160.44   30.47
  -2   2   0  199.94   37.00
   2  -2   1    5.54   16.37
  -2   2  -1    1.24   17.41
   1  -2 -12   -0.42    5.43
  -1   2  12    8.80    6.22
   1  -2 -11   11.80    5.87
  -1   2  11   16.70    7.50
   1  -2 -10   45.45    9.62
  -1   2  10   74.26   13.92
   1  -2  -9    0.93    5.30
  -1   2   9    6.84    6.35
   1  -2  -8   -0.02    6.29
  -1   2   8   18.97    7.06
   1  -2  -6  221.29   35.63
  -1   2   6  122.89   20.94
   1  -2  -5   49.75   11.47
  -1   2   5   15.91    9.11
   1  -2  -4  444.13   70.23
  -1   2   4  443.03   69.98
   1  -2  -3  168.83   28.37
  -1   2   3  191.27   31.88
   1  -2  -2   80.20   17.12
  -1   2   2   58.09   15.25
   1  -2  -1  211.14   35.65
  -1   2   1  209.95   35.94
   1  -2   1   56.53   22.15
  -1   2  -1   68.06   20.21
   1  -2   2  304.69   49.42
  -1   2  -2  287.92   46.71
   1  -2   3  210.13   34.40
   1  -2   4  456.27   72.04
  -1   2  -4  378.82   59.92
  -1   2  -5   16.08    7.74
   0  -2  -4   57.87   12.29
   0   2   3  -19.31    9.66
   0  -2  -2  668.29  105.22
   0   2   2  700.28  110.18
   0  -2  -1  -21.05   11.30
   0   2   1  -23.52   12.07
   0  -2   0 1236.86  194.42
   0   2   0 1681.65  263.21
   0  -2   2  676.01  106.30
   0   2  -2  719.04  112.83
   0  -2   3   16.61    8.47
   0  -2   4  220.85   35.35
   0   2  -4  289.69   45.89
   0  -2   5    0.79    5.69
   0   2  -5   -2.07    5.58
   0  -2   6   33.25    7.41
   0   2  -6   21.62    6.35
   0  -2   7   -5.38    4.85
   0   2  -7   -7.26    5.52
   0  -2   8   74.79   12.62
   0   2  -8  115.30   18.60
   0   2  -9   -1.43    3.40
   6  -3 -12   -8.91    8.78
  -6   3  12   15.75    9.84
   6  -3 -11   -3.73    9.29
  -6   3  11   -9.58   10.28
  -6   3  10  499.51   80.09
  -6   3   9    7.61   10.63
   5  -3 -12   15.02    8.85
  -5   3  12   -8.78    8.30
   5  -3 -11    8.23    9.64
  -5   3  11   16.06   10.06
   5  -3  -9   -7.68    9.44
  -5   3   9   -5.32    9.40
   5  -3  -8   20.19   10.55
  -5   3   8   15.60    9.91
   5  -3  -7   -0.90    9.55
  -5   3   7   12.47   10.33
  -5   3   6  439.72   70.58
   4  -3 -12  -10.86    8.08
   4  -3 -11    6.57    9.09
   4  -3 -10    4.19    8.30
   4  -3  -9   -1.19    8.21
   4  -3  -8    5.16    8.49
   4  -3  -7   13.99    9.80
  -4   3   7   15.73    9.71
   4  -3  -6  818.98  129.14
  -4   3   6  621.08   98.36
   4  -3  -5   -6.55   12.11
  -4   3   5   14.39   12.38
   4  -3  -4  378.60   61.29
  -4   3   4  304.69   50.04
   4  -3  -3  -62.06   17.03
  -4   3   3  -45.80   15.31
   4  -3  -2  959.08  151.33
  -4   3   2 1270.39  199.63
   3  -3 -12    1.21    6.38
  -3   3  12    6.35    7.81
   3  -3 -11   19.31    8.41
  -3   3  11   -0.71    8.34
   3  -3 -10    3.20    7.15
  -3   3  10   -5.27    7.63
   3  -3  -9    1.01    7.02
  -3   3   9   -0.77    7.02
   3  -3  -8   -1.57    8.76
   3  -3  -7    6.82    8.78
   3  -3  -6   15.02   10.61
   3  -3  -5   50.55   14.52
   3  -3  -4   85.10   18.22
   3  -3  -3  111.53   22.39
   3  -3  -2  385.44   62.79
  -3   3   2  306.90   50.33
   3  -3  -1   94.23   22.75
  -3   3   1  115.74   23.85
   3  -3   0    3.73   16.41
  -3   3   0   50.41   18.05
   3  -3   1   92.82   20.23
  -3   3  -1  134.96   26.92
   2  -3 -12    7.92    6.44
  -2   3  12   11.25    6.80
   2  -3 -10   10.83    6.86
  -2   3  10    3.18    7.72
   2  -3  -9    8.41    6.84
  -2   3   9   -0.49    7.72
   2  -3  -8    8.63    6.95
  -2   3   8   16.13    7.83
   2  -3  -7   77.86   15.18
  -2   3   7   93.57   17.56
   2  -3  -5   78.99   16.22
  -2   3   5   78.79   15.64
   2  -3  -4   94.54   18.22
   2  -3  -2  253.28   42.43
   2  -3  -1  -19.42   17.65
   2  -3   1   -8.30   15.36
   2  -3   2  242.03   40.60
   2  -3   3  134.83   24.25
   2  -3   4   91.14   17.69
  -2   3  -4   75.70   16.61
   2  -3   5   66.06   13.92
  -2   3  -5   58.49   13.59
   1  -3 -12    3.75    6.46
  -1   3  12   -1.50    6.44
   1  -3 -10   18.56    7.46
  -1   3  10   32.10    9.18
   1  -3  -8   18.42    7.19
  -1   3   8   17.63    7.57
   1  -3  -7  150.45   25.17
  -1   3   7  178.40   29.39
   1  -3  -6  119.03   21.14
  -1   3   6  114.44   20.72
   1  -3  -5   42.43   10.94
  -1   3   5   79.47   15.73
   1  -3  -4   98.42   18.78
  -1   3   4   89.05   17.10
   1  -3  -3 3230.04  504.36
  -1   3   3 4926.69  768.90
   1  -3  -2   36.45   14.78
  -1   3   2   56.31   17.21
   1  -3  -1  723.45  114.51
  -1   3   1  569.45   90.28
   1  -3   0    8.08   12.36
  -1   3   0   11.69   11.03
   1  -3   1  581.58   92.42
   1  -3   2   50.92   13.88
   1  -3   3 3814.71  595.48
   1  -3   4   71.97   14.65
   1  -3   5   37.29   10.04
   1  -3   6   95.31   16.86
   1  -3   7  143.90   23.85
  -1   3  -9    2.21    5.80
   0  -3  -7  657.92  103.50
   0  -3  -6   49.09   12.13
   0  -3  -5 1129.63  176.99
   0   3   5 1466.76  229.46
   0  -3  -4   -3.35    9.69
   0   3   4    2.49    9.27
   0  -3  -3  486.49   77.00
   0   3   3  707.34  111.57
   0  -3  -1  497.96   79.47
   0   3   1  546.06   86.69
   0  -3   0   -6.86   12.13
   0   3   0    3.77   12.11
   0  -3   1  802.21  126.42
   0   3  -1  610.71   96.79
   0  -3   2   10.48   10.10
   0   3  -2   -5.89   11.01
   0  -3   3  647.11  101.78
   0  -3   4   -1.54    7.55
   0  -3   5 1297.75  202.91
   0  -3   6    2.05    6.75
   0  -3   7  663.00  103.94
   0  -3   8    6.93    5.18
   0  -3   9   45.41    9.07
   0  -3  10    0.31    5.05
   0  -3  11   96.17   16.17
   0   3 -12    1.72    3.46
  -1  -3   8   14.58    5.60
  -1  -3   9   73.85   12.53
  -1  -3  10    7.13    4.57
  -1  -3  11   23.01    5.76
  -1  -3  12   10.83    4.50
   7  -4 -11    6.73   10.44
  -7   4  11   11.45   11.25
   7  -4 -10   27.67   11.69
  -7   4  10   23.89   12.55
  -7   4   9    0.38   11.08
  -7   4   8   25.86   11.98
   6  -4 -11   21.91   10.88
  -6   4  11   11.21   10.61
   6  -4 -10    6.82   10.41
  -6   4  10    9.53   11.21
   6  -4  -9   13.79   10.08
  -6   4   9   17.89   10.81
   6  -4  -8   -9.47   10.44
  -6   4   8    6.99   10.90
   6  -4  -7   -9.51   10.68
  -6   4   7  -16.30   11.89
   6  -4  -6    8.98   12.07
  -6   4   6   -1.32   12.36
  -6   4   5  -10.74   13.41
   5  -4 -12    7.50    9.09
  -5   4  12   -1.52   10.02
   5  -4 -11   32.26   10.94
  -5   4  11   27.49   11.14
   5  -4 -10    2.69    9.69
  -5   4  10   -3.57   11.89
   5  -4  -9   14.72    9.33
  -5   4   9    4.21   10.28
   5  -4  -8   -8.60    9.31
  -5   4   8    8.91    9.93
   5  -4  -7   -3.18   10.39
  -5   4   7   11.05   11.38
   5  -4  -6   -8.65   10.74
  -5   4   6   -8.03   10.92
   5  -4  -5   52.86   15.09
  -5   4   5   13.72   13.61
   5  -4  -3  178.27   31.42
  -5   4   3  155.15   29.63
   5  -4  -2   -3.51   12.66
  -5   4   2   29.50   15.97
   4  -4 -12   10.22    7.85
  -4   4  12    6.40    8.12
   4  -4 -11   58.75   14.80
  -4   4  11   34.31   10.33
   4  -4 -10    8.67    9.20
  -4   4  10    6.49    9.20
   4  -4  -9   12.40    9.31
   4  -4  -8  -19.95    9.77
  -4   4   8   -3.38    9.64
   4  -4  -7   32.70   11.30
  -4   4   7   15.93   10.68
   4  -4  -6  -11.32   11.58
  -4   4   6    7.61   12.09
   4  -4  -5   -6.07   12.38
  -4   4   5   22.44   13.81
   4  -4  -4   11.52   13.35
  -4   4   4  -15.95   13.50
   4  -4  -3   11.67   13.19
  -4   4   3   20.21   14.10
   4  -4  -2   26.67   15.86
  -4   4   2    5.03   15.78
   4  -4  -1  167.48   31.62
  -4   4   1  140.59   29.45
   4  -4   0   27.60   16.77
  -4   4   0   10.81   16.02
   4  -4   1    3.29   14.36
  -4   4  -1    0.90   16.35
   4  -4   2   -3.79   13.30
  -4   4  -2  -14.65   15.93
   3  -4 -12    3.29    7.32
   3  -4 -11    1.04    7.92
  -3   4  11   14.69    8.54
   3  -4 -10  -13.90    8.12
  -3   4  10   12.29    8.78
   3  -4  -9   32.61    9.73
  -3   4   9    3.46    7.96
   3  -4  -8   -9.84    8.49
  -3   4   8  -15.33    8.89
   3  -4  -7   38.48   11.12
  -3   4   7   42.60   10.94
   3  -4  -6   13.79   11.14
  -3   4   6    9.58   10.61
  -3   4   4   18.11   11.67
   3  -4  -3  130.11   25.22
  -3   4   3   97.36   20.78
   3  -4  -2   21.22   15.47
  -3   4   2   -2.71   15.38
   3  -4  -1   38.46   17.43
  -3   4   1   12.33   17.19
   3  -4   0   -0.95   15.58
  -3   4   0   26.37   17.89
   3  -4   1   20.06   14.54
  -3   4  -1   12.07   17.08
   3  -4   2  -29.96   13.97
  -3   4  -2  -44.21   19.33
   3  -4   3  141.09   25.64
   3  -4   4   19.86   11.25
  -3   4  -4   24.91   13.55
   3  -4   5   12.13   10.48
  -3   4  -5   16.70   12.33
  -3   4  -6   16.30   10.72
   2  -4 -11    2.87    7.68
   2  -4 -10   -3.40    7.15
   2  -4  -9    9.07    7.68
   2  -4  -8    4.74    7.59
   2  -4  -7   11.63    8.89
  -2   4   7   18.64    8.96
   2  -4  -6   24.62   11.30
  -2   4   6   22.09   10.46
   2  -4  -5    3.02   10.17
  -2   4   5  -18.27   11.47
   2  -4  -4   25.53   11.91
  -2   4   4   25.42   11.89
   2  -4  -3   -5.82   12.73
  -2   4   3   13.77   12.13
   2  -4  -2   47.19   14.76
  -2   4   2   57.98   15.22
   2  -4  -1   42.29   14.94
  -2   4   1   46.13   15.89
   2  -4   0   91.45   20.92
  -2   4   0  115.30   23.74
   2  -4   1   -8.67   11.72
  -2   4  -1   34.90   15.97
   2  -4   2   54.14   15.25
  -2   4  -2   84.92   19.39
   2  -4   3   11.01   12.33
   2  -4   5   25.06   10.50
  -2   4  -5   -3.24   10.39
   2  -4   6    4.32    8.32
  -2   4  -6   10.37   10.17
   2  -4   7   10.57    7.13
  -2   4  -7   35.76   10.26
   2  -4   8   -1.68    7.17
  -2   4  -8    7.35    8.52
  -2   4  -9   -0.44    7.96
  -2   4 -10    7.19    7.26
   1  -4 -12   34.95    9.47
   1  -4 -11    1.04    7.39
   1  -4 -10   35.26    9.31
   1  -4  -9   14.05    7.55
   1  -4  -8   -0.02    7.37
   1  -4  -7    6.31    8.10
   1  -4  -6   27.36    9.75
   1  -4  -5   14.54    9.31
   1  -4  -4  -20.94   10.22
  -1   4   4    6.31    8.52
   1  -4  -3  -19.57   11.83
  -1   4   3  -10.17   11.32
   1  -4  -2  115.01   23.94
  -1   4   2   76.67   16.81
   1  -4  -1   90.70   21.27
  -1   4   1   68.02   17.43
   1  -4   0   11.98   13.35
  -1   4   0    1.74   13.19
   1  -4   1   78.39   17.50
  -1   4  -1   91.56   19.72
   1  -4   2   67.91   16.57
  -1   4  -2   48.41   15.29
   1  -4   3  -11.49   10.61
   1  -4   4    8.85    9.77
  -1   4  -4    8.41   10.24
   1  -4   5   14.87    9.09
  -1   4  -5   14.45    8.89
   1  -4   7  -22.86    9.27
  -1   4  -7    0.40    8.21
   1  -4   8    7.24    7.28
  -1   4  -8   22.35    8.01
   1  -4   9    2.01    5.71
  -1   4  -9   -5.12    6.93
   1  -4  10   41.37    9.27
  -1   4 -10   22.57    7.21
   1  -4  11    8.32    6.49
  -1   4 -11    2.80    5.82
   1  -4  12   23.59    7.26
  -1   4 -12   42.49    9.07
   0  -4 -11    1.24    7.52
   0  -4 -10   21.36    8.05
   0  -4  -9    3.60    7.55
   0  -4  -8   22.06    8.52
   0  -4  -7    2.03    7.96
   0  -4  -6   33.69   10.28
   0  -4  -5   19.61    9.75
   0  -4  -4  422.07   67.34
   0   4   4  275.79   44.48
   0  -4  -3  -17.36   13.11
   0   4   3    4.26   11.10
   0  -4  -2   32.43   13.28
   0   4   2   25.84   11.67
   0  -4  -1   12.55   13.94
   0   4   1   10.79   12.18
   0  -4   0 1119.04  175.69
   0   4   0 1331.29  208.72
   0  -4   1  -17.45   13.48
   0   4  -1   19.88   11.98
   0  -4   2   23.83   13.19
   0   4  -2    4.99   12.05
   0  -4   3   -0.75   10.15
   0  -4   4  345.51   55.38
   0   4  -4  438.84   69.68
   0  -4   5   10.30    8.60
   0   4  -5  -10.13    7.88
   0  -4   6   13.97    9.16
   0   4  -6   35.90    9.16
   0  -4   7    2.52    7.50
   0   4  -7   -2.47    7.32
   0  -4   8   11.01    6.38
   0   4  -8    9.91    6.00
   0  -4   9    0.88    5.96
   0   4  -9   12.49    6.13
   0  -4  10   20.45    6.84
   0   4 -10   31.77    7.74
   0  -4  11    5.74    6.24
   0   4 -11    6.22    6.18
   0  -4  12    2.63    5.96
   0   4 -12    9.95    5.67
  -1  -4   6  692.34  108.86
  -1  -4   7   -4.81    7.72
  -1  -4   8    6.91    6.33
  -1  -4   9    5.36    5.89
   1   4  -9    0.77    4.88
  -1  -4  10   34.71    8.19
   1   4 -10   32.79    7.15
  -1  -4  11   10.74    5.52
   1   4 -11    5.05    4.92
  -1  -4  12   15.64    5.32
   1   4 -12   28.17    6.22
   8  -5 -11   -2.76   10.39
  -8   5  11   25.35   11.91
   8  -5 -10   22.68   12.69
  -8   5  10   16.83   12.91
  -8   5   9  238.94   40.75
  -8   5   8   37.95   13.33
   7  -5 -11   17.83   10.48
  -7   5  11   -3.68   10.22
   7  -5 -10   32.92   13.08
  -7   5  10   14.01   11.58
   7  -5  -9    4.94   11.12
  -7   5   9   17.52   12.07
   7  -5  -8  218.78   37.26
  -7   5   8  185.95   32.61
   7  -5  -7   27.03   11.76
  -7   5   7   16.19   11.91
   7  -5  -6   21.31   13.17
  -7   5   6   50.94   15.71
  -7   5   4   -1.06   13.52
   6  -5 -11   69.83   16.15
  -6   5  11   81.83   17.96
   6  -5 -10   19.00   11.74
  -6   5  10   44.99   14.47
   6  -5  -9   -4.63   10.37
  -6   5   9    1.46   11.08
   6  -5  -8    0.40   10.30
  -6   5   8    6.13   10.90
   6  -5  -7   46.20   13.11
  -6   5   7   39.52   12.82
   6  -5  -6   18.09   12.60
  -6   5   6   30.84   12.95
   6  -5  -5  -17.30   13.04
  -6   5   5  -26.83   14.14
   6  -5  -4   51.27   15.75
  -6   5   4   68.40   18.53
   6  -5  -3   -0.42   13.22
  -6   5   3    4.15   14.67
   6  -5  -2  305.79   49.95
  -6   5   2  509.22   82.27
   6  -5  -1   87.61   19.72
  -6   5   1  179.04   32.92
   5  -5 -11    9.40   10.52
   5  -5  -9   12.38   10.17
  -5   5   9    3.02   10.46
   5  -5  -8   -3.82   10.68
  -5   5   8   -6.46   10.59
   5  -5  -7    7.26   10.94
  -5   5   7    9.16   11.94
   5  -5  -6   -2.52   10.92
  -5   5   6  -12.09   12.27
   5  -5  -5  147.40   27.78
  -5   5   5  231.00   39.69
   5  -5  -4   91.21   19.70
  -5   5   4   69.12   18.51
   5  -5  -3   26.76   13.64
  -5   5   3   11.69   15.09
   5  -5  -2 1336.14  209.93
  -5   5   2 1333.71  209.80
   5  -5  -1   16.48   14.98
  -5   5   1  -12.82   15.05
   5  -5   0   15.95   15.47
  -5   5   0   25.22   17.85
   5  -5   1    7.19   13.79
  -5   5  -1   -0.44   15.71
   5  -5   2 1479.55  232.32
  -5   5  -2 1041.82  164.28
  -5   5  -3  -18.60   15.16
   4  -5 -12   28.77    9.55
  -4   5  12   31.53   10.77
   4  -5 -11   43.07   11.54
  -4   5  11   39.82   11.65
   4  -5 -10   60.12   13.81
  -4   5  10   84.59   17.30
   4  -5  -9    3.95    8.52
  -4   5   9  -14.21    9.18
   4  -5  -8   12.51    9.44
  -4   5   8   45.01   11.94
  -4   5   7   13.90   10.57
   4  -5  -6  195.32   33.38
  -4   5   6  261.67   43.82
   4  -5  -5   32.90   13.33
  -4   5   5   15.25   14.34
   4  -5  -3   39.38   14.39
  -4   5   3   23.23   15.80
   4  -5  -2  110.62   22.53
  -4   5   2  105.33   23.21
   4  -5  -1  112.32   23.85
  -4   5   1  114.15   25.70
   4  -5   0  194.02   34.11
  -4   5   0  330.06   55.20
   4  -5   1  132.78   25.77
  -4   5  -1  190.01   34.59
   4  -5   2  178.80   32.08
  -4   5  -2  184.71   33.03
   4  -5   3    0.66   12.47
  -4   5  -3   51.74   15.91
   4  -5   4    8.91   12.18
  -4   5  -4   -4.32   12.86
   4  -5   5   18.60   12.25
  -4   5  -5    8.94   13.26
   4  -5   6  226.37   37.66
  -4   5  -6  366.03   59.28
  -4   5  -7   -5.65   10.79
   3  -5 -12   16.61    8.91
  -3   5  12   29.83   10.39
   3  -5 -11   41.59   11.21
  -3   5  11   57.28   13.37
   3  -5 -10   72.92   14.74
  -3   5  10   32.68   11.45
   3  -5  -9   -6.84    8.19
  -3   5   9    8.10    9.02
   3  -5  -8   16.79    9.11
  -3   5   8    9.73    9.09
   3  -5  -7   -6.82    9.07
  -3   5   7   18.58   10.33
   3  -5  -6  848.11  133.66
  -3   5   6 1004.97  157.99
   3  -5  -5  121.55   22.77
  -3   5   5  111.68   21.56
   3  -5  -4  589.97   93.66
  -3   5   4  725.21  114.73
   3  -5  -3   -3.35   12.05
  -3   5   3    7.06   12.75
   3  -5  -2 1941.33  304.03
  -3   5   2 1902.72  298.07
   3  -5  -1   94.36   21.75
  -3   5   1   85.54   21.36
   3  -5   0    5.03   14.14
  -3   5   0   -3.73   16.08
   3  -5   1   46.75   17.10
  -3   5  -1   77.95   21.25
   3  -5   2 2137.03  334.48
  -3   5  -2 1826.60  286.16
   3  -5   3   19.95   13.02
   3  -5   4  663.44  105.15
  -3   5  -4  781.03  123.53
   3  -5   5  107.87   20.74
  -3   5  -5   73.34   16.86
   3  -5   6  868.62  136.70
  -3   5  -6 1026.16  161.24
   3  -5   7   -2.18    8.71
  -3   5  -7   -6.44   10.17
   3  -5   8   16.04    8.25
  -3   5  -8    4.41    9.73
   3  -5   9    0.44    7.92
  -3   5  -9   -8.67    8.56
  -3   5 -10   71.48   14.65
  -3   5 -11   35.79   10.17
   2  -5 -12    5.67    8.19
  -2   5  12    4.88    7.92
  -2   5  10   37.42   10.68
   2  -5  -9   45.38   11.32
  -2   5   9   64.71   13.30
   2  -5  -8   34.99   10.68
   2  -5  -7  409.93   65.48
  -2   5   7  275.13   44.83
   2  -5  -6   16.55   11.91
  -2   5   6   51.94   13.72
   2  -5  -4  161.61   28.88
  -2   5   4  205.76   35.26
   2  -5  -3  124.08   23.87
  -2   5   3   76.85   17.10
   2  -5  -2  254.39   42.78
  -2   5   2  373.75   61.25
   2  -5  -1   -3.20   14.80
  -2   5   1    2.52   13.99
   2  -5   0  608.28   96.95
  -2   5   0  536.57   86.02
   2  -5   1   25.92   14.56
  -2   5  -1   -1.32   13.68
   2  -5   2  263.65   44.04
  -2   5  -2  353.23   57.98
   2  -5   3   42.87   13.11
   2  -5   4  132.82   23.92
  -2   5  -4  130.11   23.74
   2  -5   5   51.08   13.64
  -2   5  -5   26.50   11.72
   2  -5   6   26.06   10.06
  -2   5  -6   12.80   10.59
   2  -5   7  290.79   46.97
  -2   5  -7  287.70   46.58
   2  -5   8    2.82    7.50
  -2   5  -8   -4.21    8.98
   2  -5   9   35.48    9.62
  -2   5  -9   37.44   10.79
   2  -5  11  100.01   17.96
  -2   5 -11  107.03   19.06
   2  -5  12   19.57    7.55
  -2   5 -12   22.09    7.81
   1  -5 -12    6.53    8.19
  -1   5  12   -1.88    7.99
   1  -5 -10  164.50   27.84
  -1   5  10  179.81   30.23
   1  -5  -9   98.29   17.96
  -1   5   9   98.67   17.83
   1  -5  -8   31.48   10.24
  -1   5   8   14.16    8.85
   1  -5  -6  -17.80   10.97
  -1   5   6    9.22    9.84
   1  -5  -5  108.42   20.58
  -1   5   5   77.57   17.50
   1  -5  -4  380.15   61.31
  -1   5   4  310.43   50.52
   1  -5  -3 1841.39  288.36
  -1   5   3 1769.02  276.89
   1  -5  -2  502.82   80.40
  -1   5   2  632.55  100.67
   1  -5  -1 4644.28  725.21
  -1   5   1 2802.01  437.95
   1  -5   0   -6.91   14.67
  -1   5   0   17.12   16.83
   1  -5   1 5292.94  826.48
  -1   5  -1 6124.72  956.22
   1  -5   2  401.11   64.89
  -1   5  -2  543.19   87.04
   1  -5   3 2043.93  319.69
   1  -5   4  373.53   59.92
  -1   5  -4  302.04   49.13
   1  -5   5   90.72   17.61
  -1   5  -5   89.00   18.07
   1  -5   6   17.03    8.78
  -1   5  -6   -1.92    9.64
   1  -5   7    1.41    7.28
  -1   5  -7    8.03    8.12
   1  -5   8   24.05    8.16
  -1   5  -8   17.63    8.32
   1  -5   9   57.67   11.69
  -1   5  -9   71.68   13.94
   1  -5  10  103.72   18.38
  -1   5 -10  103.72   18.33
   1  -5  11   25.02    8.27
  -1   5 -11   26.85    8.69
   1  -5  12    3.86    6.24
  -1   5 -12   -9.82    7.08
   0  -5 -12    4.28    8.36
   0  -5 -11  547.61   86.84
   0  -5 -10   -2.45    8.10
   0  -5  -9 1348.06  211.34
   0  -5  -8    0.33    8.45
   0   5   8   -0.35    8.69
   0  -5  -7   57.83   13.26
   0   5   7   52.69   12.69
   0  -5  -6    3.77   10.41
   0   5   6   21.09   10.48
   0  -5  -5  289.69   47.30
   0   5   5  347.27   56.31
   0  -5  -4   50.94   14.63
   0   5   4   18.25   11.65
   0  -5  -3 2982.93  466.19
   0   5   3 2903.50  453.84
   0  -5  -2   -6.00   12.53
   0   5   2  -11.72   14.16
   0  -5  -1 9540.09 1488.60
   0   5   1 9222.38 1439.18
   0  -5   0   16.77   14.10
   0   5   0   15.69   15.27
   0  -5   1 9999.00 1560.08
   0   5  -1 9685.70 1511.10
   0  -5   3 3210.18  501.27
   0  -5   4   -1.19   10.24
   0   5  -4    2.74   10.13
   0  -5   5  352.13   56.44
   0   5  -5  325.21   52.22
   0  -5   6  -17.85    9.07
   0   5  -6  -11.27    8.74
   0  -5   7   91.43   16.70
   0   5  -7   57.12   11.78
   0  -5   8   25.46    8.36
   0   5  -8   36.23    9.16
   0  -5   9 1863.67  291.23
   0   5  -9 1804.54  281.97
   0  -5  10    8.60    7.04
   0   5 -10   13.08    7.44
   0  -5  11  526.87   83.02
   0   5 -11  386.10   61.14
   0  -5  12   10.79    6.29
   0   5 -12    4.52    6.35
  -1  -5   4  333.81   53.79
  -1  -5   5  123.91   22.24
  -1  -5   6  -23.65    9.20
   1   5  -6    1.83    8.71
  -1  -5   7    9.07    7.61
   1   5  -7   -4.61    7.15
  -1  -5   8   21.40    7.99
   1   5  -8   30.27    8.56
  -1  -5  10   82.49   15.00
   1   5 -10  158.41   25.86
  -1  -5  11   35.04    8.96
   1   5 -11   20.19    6.51
  -1  -5  12    3.99    5.67
   1   5 -12    4.48    5.05
 -10   6  10    0.15   12.07
   9  -6 -10    7.41   11.85
  -9   6  10   12.53   12.31
   9  -6  -9   -9.73   11.94
  -9   6   9    3.75   13.19
  -9   6   8   40.44   14.58
  -9   6   7   10.35   12.91
   8  -6 -10   41.39   14.45
  -8   6  10   39.52   14.05
   8  -6  -9    9.09   12.25
  -8   6   9   27.34   13.59
   8  -6  -8   87.77   19.11
  -8   6   8   73.67   18.16
   8  -6  -7   -6.53   11.58
  -8   6   7   30.60   13.52
   8  -6  -6   -9.02    9.82
  -8   6   6  -14.41   11.89
   8  -6  -5  -22.11   12.00
  -8   6   5  -12.02   11.45
  -8   6   4   -1.94   11.61
   7  -6 -11   -0.79   10.72
  -7   6  11    1.77   10.72
   7  -6 -10  -13.39   12.16
  -7   6  10   -0.51   12.33
   7  -6  -9   16.77   12.27
  -7   6   9   -4.59   12.49
   7  -6  -8   15.51   11.87
  -7   6   8    7.06   11.27
   7  -6  -7   15.49   11.19
  -7   6   7   -9.35   12.49
   7  -6  -6   10.63   10.77
  -7   6   6  -11.74   12.00
   7  -6  -5   -3.53   11.72
  -7   6   5   14.19   12.88
   7  -6  -4    1.39   12.44
  -7   6   4   33.89   13.30
   7  -6  -3   -6.11   12.36
  -7   6   3   -1.35   12.77
  -7   6   2   -2.67   14.91
   7  -6  -1   11.25   13.83
  -7   6   1   13.13   16.15
  -7   6   0   17.23   16.22
   6  -6 -11    8.52   11.01
  -6   6  11   10.33   10.68
   6  -6 -10   -6.51   11.45
  -6   6  10   13.61   11.85
   6  -6  -9    7.15   11.19
  -6   6   9    6.13   11.78
   6  -6  -8    2.65   10.94
  -6   6   8   -7.24   11.63
   6  -6  -7   -3.24   10.86
  -6   6   7   19.15   12.07
   6  -6  -6   -2.07   11.98
  -6   6   6    1.48   12.66
   6  -6  -5   18.14   12.51
  -6   6   5   -9.16   13.44
   6  -6  -4   17.43   13.39
  -6   6   4  -20.92   15.02
   6  -6  -3   11.41   12.86
  -6   6   3   29.67   15.36
   6  -6  -2   14.58   11.10
  -6   6   2  -16.86   16.00
   6  -6  -1   -0.18   14.21
  -6   6   1    6.38   16.66
   6  -6   0   33.49   14.69
  -6   6   0    3.02   16.30
   6  -6   1    7.61   14.32
  -6   6  -1  -17.21   16.08
   6  -6   2    5.82   13.66
  -6   6  -2  -20.85   15.53
   6  -6   3   -8.32   13.33
  -6   6  -3   41.35   17.21
  -6   6  -4  -11.67   15.53
   5  -6 -11   83.97   16.79
  -5   6  11   45.34   12.88
  -5   6  10    3.95   10.55
   5  -6  -9    0.15   10.30
  -5   6   9    5.12   10.39
   5  -6  -8   -7.19   10.37
   5  -6  -7   50.19   13.70
  -5   6   7   27.29   12.25
   5  -6  -6   -9.09   11.56
  -5   6   6  -22.31   11.63
   5  -6  -5   -0.95   12.00
  -5   6   5   11.56   13.75
   5  -6  -4   11.47   13.33
  -5   6   4   28.55   15.64
   5  -6  -3   59.66   16.83
  -5   6   3   46.58   15.84
   5  -6  -2   -3.60   13.22
  -5   6   2    8.05   15.66
   5  -6  -1   93.11   20.63
  -5   6   1  122.78   25.95
   5  -6   0   -9.38   13.99
  -5   6   0  -22.46   17.58
   5  -6   1  136.55   25.95
  -5   6  -1  154.49   30.65
   5  -6   2   -5.41   12.84
  -5   6  -2   -6.66   15.20
   5  -6   3   29.50   13.06
  -5   6  -3   39.69   16.64
   5  -6   4    6.22   12.29
  -5   6  -4   18.44   13.13
   5  -6   5   24.27   12.02
  -5   6  -5   12.77   13.17
   5  -6   6   -2.76   10.08
  -5   6  -6   21.25   12.07
  -5   6  -7   13.94   11.16
  -5   6  -8   -5.74   11.05
   4  -6 -11    1.41   10.26
  -4   6  11  -23.30   10.92
   4  -6 -10   27.58   10.77
  -4   6  10    4.10   10.94
   4  -6  -9    1.13    8.89
  -4   6   9   25.66   10.66
   4  -6  -8   -4.61    8.96
  -4   6   8    5.14    9.53
   4  -6  -7   39.74   11.83
  -4   6   7   38.59   11.89
   4  -6  -6   19.37   10.26
  -4   6   6  -12.91   10.52
   4  -6  -5   32.92   12.64
  -4   6   5   44.59   13.41
   4  -6  -4    3.51   11.47
  -4   6   4  -14.43   13.06
   4  -6  -3   23.01   13.33
  -4   6   3   36.89   14.45
   4  -6  -2   -1.13   13.17
  -4   6   2  -14.43   15.66
   4  -6  -1   32.34   14.91
  -4   6   1   12.36   15.31
   4  -6   0   -7.48   14.65
  -4   6   0   19.42   17.08
   4  -6   1    5.87   13.57
  -4   6  -1  -20.85   15.33
   4  -6   2   30.34   15.18
  -4   6  -2   19.02   14.56
   4  -6   3   30.16   14.05
  -4   6  -3   22.22   14.52
   4  -6   4   -8.78   11.87
  -4   6  -4    4.70   12.93
   4  -6   5  166.00   30.05
  -4   6  -5  138.89   27.51
   4  -6   6    3.42   10.55
  -4   6  -6   -6.09   11.14
   4  -6   7   30.84   11.16
  -4   6  -7   33.78   12.27
   4  -6   8  -13.50    8.54
  -4   6  -8  -21.00   10.90
   4  -6   9   -4.66    8.87
  -4   6  -9   20.06    9.27
  -4   6 -10    3.53    8.01
  -4   6 -11   16.26    8.76
   3  -6 -12    4.63    8.83
  -3   6  12   -3.51    9.00
   3  -6 -11   26.70   11.01
  -3   6  11   28.11   11.27
   3  -6 -10   -9.80    9.33
  -3   6  10   -9.18    9.88
   3  -6  -9   17.36    9.62
  -3   6   9    5.01    9.75
   3  -6  -8   -7.96    9.91
  -3   6   8   -3.02    9.60
   3  -6  -7   80.02   16.72
  -3   6   7   98.95   19.46
   3  -6  -6  102.42   19.68
  -3   6   6   81.61   17.45
   3  -6  -5   27.73   13.70
  -3   6   5   44.83   14.87
   3  -6  -4   25.02   12.07
  -3   6   4   10.35   13.04
   3  -6  -3  212.78   36.12
  -3   6   3  126.47   24.98
   3  -6  -2   -4.43   11.72
  -3   6   2  -22.53   13.59
   3  -6  -1  193.93   33.67
  -3   6   1  140.63   27.53
   3  -6   0   15.36   13.66
  -3   6   0   30.76   15.00
   3  -6   1   80.35   18.44
  -3   6  -1   34.95   14.56
   3  -6   2  -12.93   14.03
  -3   6  -2   -4.68   14.27
   3  -6   3  121.74   23.23
   3  -6   4   -7.21   11.58
  -3   6  -4   -4.88   12.05
   3  -6   5   33.20   13.22
  -3   6  -5   35.92   14.47
   3  -6   6   -1.28   10.46
  -3   6  -6   11.83   11.98
   3  -6   7  112.21   20.78
  -3   6  -7   72.98   16.37
   3  -6   8   33.60   11.58
  -3   6  -8   44.57   13.52
   3  -6   9   14.03    8.87
  -3   6  -9    7.68    9.88
   3  -6  10    9.55    9.07
  -3   6 -10   11.08    7.55
   3  -6  11    5.07    8.74
  -3   6 -11   19.50    9.29
   3  -6  12    0.38    6.73
  -3   6 -12   -8.19    7.61
   2  -6 -12    1.61    8.41
  -2   6  12   13.06    8.67
   2  -6 -11   17.43    9.62
  -2   6  11   12.82    9.73
   2  -6 -10   -1.15    8.96
  -2   6  10    8.67    9.40
   2  -6  -9   -4.61    8.45
  -2   6   9   -3.13    8.78
  -2   6   8    3.53    9.13
   2  -6  -7    3.73    9.62
  -2   6   7    2.10    9.47
   2  -6  -6  104.47   20.01
  -2   6   6  201.68   34.13
   2  -6  -5  -20.06   12.47
  -2   6   5  -14.94   13.30
   2  -6  -4    5.89   11.63
  -2   6   4   26.32   13.52
   2  -6  -3  -24.00   12.02
  -2   6   3    9.93   13.72
   2  -6  -2   26.14   12.60
  -2   6   2   19.50   13.77
   2  -6  -1    4.21   13.04
  -2   6   1   29.63   16.81
   2  -6   0   21.71   12.93
  -2   6   0   18.80   14.47
   2  -6   1  -25.22   14.43
  -2   6  -1    4.15   13.97
   2  -6   2   33.71   14.27
  -2   6  -2   19.06   13.61
   2  -6   3   14.74   11.58
   2  -6   4   16.53   13.04
  -2   6  -4    4.77   11.63
   2  -6   5   -0.51   10.52
  -2   6  -5   20.94   11.76
   2  -6   6  156.65   26.98
  -2   6  -6  114.26   21.00
   2  -6   7   23.81    9.49
  -2   6  -7    7.28    9.53
   2  -6   8   63.83   13.59
  -2   6  -8   26.83    9.09
   2  -6   9   -9.02    8.47
  -2   6  -9    8.14    8.12
   2  -6  10   15.97    8.67
  -2   6 -10   -7.32    8.87
   2  -6  11   11.05    8.12
  -2   6 -11   17.10    8.76
   2  -6  12   22.73    7.74
  -2   6 -12   10.33    7.24
   1  -6 -12   10.77    8.85
  -1   6  12   22.92    9.18
   1  -6 -11    8.38    9.44
  -1   6  11   24.27    9.99
   1  -6  -9    2.21    8.49
  -1   6   9    2.01    8.80
   1  -6  -8   -3.68    9.64
  -1   6   8   -3.31    8.91
   1  -6  -7   17.65    9.64
  -1   6   7    7.66    9.58
   1  -6  -6    8.58   10.24
  -1   6   6   14.08   10.30
   1  -6  -5   14.61   12.27
  -1   6   5    9.62   11.36
   1  -6  -4   75.08   16.94
  -1   6   4   90.55   18.82
   1  -6  -3   46.53   14.05
  -1   6   3   41.66   14.54
   1  -6  -2   68.79   17.03
  -1   6   2   63.06   16.50
   1  -6  -1   96.72   21.56
  -1   6   1   49.33   17.41
   1  -6   0   29.65   14.12
  -1   6   0   21.51   13.66
   1  -6   1   34.20   16.81
  -1   6  -1   22.46   13.30
   1  -6   3   30.49   12.47
   1  -6   4   91.83   19.26
  -1   6  -4  132.93   24.75
   1  -6   5   25.06   11.56
  -1   6  -5    9.88   10.97
   1  -6   6   16.86    9.53
  -1   6  -6    9.02    9.60
   1  -6   7    0.75    7.85
  -1   6  -7   10.79    9.40
   1  -6   8    9.49    7.77
  -1   6  -8   41.04   12.02
   1  -6   9   -0.04    7.30
  -1   6  -9   13.37    7.74
   1  -6  10   12.22    8.19
  -1   6 -10    8.65    8.91
   1  -6  11    7.92    7.66
  -1   6 -11   26.50    9.20
   1  -6  12    3.60    6.66
  -1   6 -12   24.56    8.41
   0  -6 -12   37.88   11.03
   0  -6 -11    8.10    9.44
   0  -6 -10   95.22   18.29
   0   6  10   75.17   15.47
   0  -6  -9    4.46    8.65
   0   6   9   18.09    9.64
   0  -6  -8  111.37   20.72
   0   6   8  127.83   22.92
   0  -6  -7   33.38   10.99
   0   6   7    6.97    9.58
   0  -6  -6  215.42   36.23
   0   6   6  288.14   47.10
   0  -6  -5   -6.44   12.33
   0   6   5  -25.75   12.16
   0  -6  -4  166.42   29.32
   0   6   4  139.48   25.55
   0  -6  -3    0.64   11.03
   0   6   3   10.48   12.58
   0  -6  -2  119.14   23.21
   0   6   2  154.46   27.98
   0  -6  -1    1.01   14.89
   0   6   1   -7.39   14.61
   0  -6   0 2173.88  340.21
   0   6   0 2250.44  352.13
   0  -6   1    4.15   15.89
   0   6  -1   11.80   13.22
   0  -6   2  215.34   37.15
   0   6  -2  148.88   27.45
   0  -6   3   -7.55   11.49
   0  -6   4   94.21   19.11
   0   6  -4   89.36   18.16
   0  -6   5   -3.84   10.72
   0   6  -5   -4.10    9.75
   0  -6   6  248.21   40.60
   0   6  -6  270.27   43.75
   0  -6   7  -16.11    8.67
   0   6  -7   -1.30    7.83
   0  -6   8   86.29   16.02
   0   6  -8  107.49   19.15
   0  -6  11    8.12    7.61
   0   6 -11    4.26    7.72
   0  -6  12    7.04    6.33
   0   6 -12    7.24    6.84
  -1  -6   2   28.95   13.68
  -1  -6   3   -0.24   11.56
  -1  -6   4  120.69   22.92
   1   6  -4   77.53   17.36
  -1  -6   5   11.01   11.08
   1   6  -5   25.17   11.01
  -1  -6   6   13.22    9.66
   1   6  -6    1.54    8.34
  -1  -6   7   -4.24    8.36
   1   6  -7   -2.58    8.10
  -1  -6   9   17.72    7.88
   1   6  -9   12.91    7.77
  -1  -6  10   17.08    8.16
   1   6 -10   38.37    9.42
  -1  -6  12   29.67    8.08
   1   6 -12   44.46    9.16
  10  -7  -9  -16.72   13.46
 -10   7   9   11.43   13.99
  10  -7  -8   -6.55   13.61
 -10   7   8   -6.33   12.27
 -10   7   7    5.74   12.40
   9  -7 -10    5.74   12.18
  -9   7  10   10.30   12.69
   9  -7  -9    9.95   13.37
  -9   7   9    7.19   13.28
   9  -7  -8   11.38   13.13
  -9   7   8    4.83   13.26
   9  -7  -7   39.27   14.50
  -9   7   7   42.71   14.76
   9  -7  -6   -5.56   12.05
  -9   7   6  -17.34   11.30
   9  -7  -5  197.99   34.48
  -9   7   5  232.10   39.82
   9  -7  -4    9.95   12.18
  -9   7   4   19.97   13.04
  -9   7   3  120.66   24.16
   8  -7 -10   15.80   12.40
  -8   7  10   19.72   12.93
   8  -7  -9   19.08   12.91
  -8   7   9   40.31   15.78
   8  -7  -8    3.79   13.94
  -8   7   8  -22.68   13.92
   8  -7  -7   16.64   12.66
  -8   7   7   44.30   15.05
   8  -7  -6  -17.67   12.36
  -8   7   6  -11.32   10.79
   8  -7  -5   95.00   20.41
  -8   7   5   37.82   14.03
   8  -7  -4    8.43   12.82
  -8   7   4   21.89   13.30
   8  -7  -3    3.42   12.51
  -8   7   3   19.81   13.57
  -8   7   2  -28.26   14.25
   8  -7  -1   66.01   16.99
  -8   7   1   53.97   16.46
   8  -7   0   24.60   13.86
  -8   7   0    9.77   16.77
  -8   7  -1   16.00   16.33
  -7   7  11    4.28   12.07
   7  -7 -10   23.87   13.35
  -7   7  10   26.01   13.55
   7  -7  -9    1.43   11.89
  -7   7   9   20.58   13.33
   7  -7  -8    9.53   11.94
  -7   7   8    0.00   12.40
   7  -7  -7   -1.13   11.94
  -7   7   7  -21.73   12.31
   7  -7  -6   11.41   10.90
  -7   7   6   -6.73   12.31
   7  -7  -5  101.87   21.03
  -7   7   5   98.98   20.54
   7  -7  -4   32.41   14.05
  -7   7   4   -3.77   12.88
   7  -7  -3   25.88   12.91
  -7   7   3   -4.74   12.64
  -7   7   2    6.29   14.34
   7  -7  -1   94.78   20.81
  -7   7   1   97.03   21.86
   7  -7   0    6.71   15.78
  -7   7   0    8.65   15.36
   7  -7   1  119.07   24.75
  -7   7  -1   85.74   21.82
   7  -7   2   -3.62   13.88
  -7   7  -2   27.91   16.33
   7  -7   3   34.24   14.85
  -7   7  -3   24.67   15.75
  -7   7  -4   18.33   13.41
   6  -7 -11   -6.49   10.46
  -6   7  11  -16.90   10.02
   6  -7 -10  -15.51   12.13
   6  -7  -9    6.22   11.67
  -6   7   9    4.90   13.06
   6  -7  -8   17.65   11.96
  -6   7   8    4.88   11.78
   6  -7  -7   51.12   14.80
  -6   7   7   40.31   14.65
   6  -7  -6    3.57   10.52
  -6   7   6   30.23   13.28
   6  -7  -5    4.77   11.54
  -6   7   5  -12.86   13.06
   6  -7  -3   30.93   13.70
  -6   7   3    4.30   13.66
   6  -7  -2   34.44   13.15
  -6   7   2   65.11   19.50
   6  -7  -1    8.65   13.26
  -6   7   1   36.74   17.83
   6  -7   0   28.66   15.07
  -6   7   0    6.75   16.64
   6  -7   1    4.66   13.30
  -6   7  -1  -25.70   14.96
   6  -7   2   82.43   20.21
  -6   7  -2   44.19   17.05
   6  -7   3    0.66   14.47
  -6   7  -3   27.09   16.17
   6  -7   4    6.75   12.66
  -6   7  -4    5.03   14.96
   6  -7   5   -2.74   11.05
  -6   7  -5   -9.42   13.33
   6  -7   6    7.24   10.06
  -6   7  -6   10.63   13.37
   6  -7   7    4.70   10.28
  -6   7  -7   44.94   14.54
  -6   7  -8   26.30   10.48
   5  -7 -11   -1.61    9.64
  -5   7  11   -5.45    9.99
   5  -7 -10   22.46   11.65
  -5   7  10   21.22   11.72
   5  -7  -9   -1.96    9.86
  -5   7   9   17.87   11.58
   5  -7  -8   57.34   14.23
  -5   7   8   51.96   13.52
   5  -7  -7    2.91   10.24
  -5   7   7   13.92   11.23
  -5   7   6   10.77   11.45
   5  -7  -5   13.88   11.96
  -5   7   5    6.91   14.12
   5  -7  -4  204.26   36.07
  -5   7   4  214.83   37.51
   5  -7  -3   30.93   14.30
  -5   7   3   28.15   16.19
   5  -7  -2   38.28   15.33
  -5   7   2   21.58   16.92
   5  -7  -1   24.40   14.52
  -5   7   1   13.26   17.14
   5  -7   0  -21.95   14.52
  -5   7   0    0.24   15.31
   5  -7   1   36.62   15.40
  -5   7  -1   19.11   16.55
   5  -7   2   20.25   14.50
  -5   7  -2   51.74   18.33
   5  -7   3   20.67   14.76
  -5   7  -3   24.62   16.81
   5  -7   4   -3.09   13.59
  -5   7  -4   18.64   15.51
   5  -7   5   20.19   11.58
  -5   7  -5   25.33   13.30
   5  -7   6   15.36   10.37
  -5   7  -6   16.75   12.84
   5  -7   7   12.13   10.99
  -5   7  -7   12.44   12.20
   5  -7   8   48.49   12.88
  -5   7  -8   47.94   13.59
   5  -7   9    8.74   10.61
  -5   7  -9    1.68    9.20
   5  -7  10   -7.15    9.62
  -5   7 -10   16.22    9.64
  -5   7 -11    2.47    8.69
   4  -7 -11   11.61   10.26
  -4   7  11   -6.00    9.86
   4  -7 -10   65.17   15.58
  -4   7  10  121.52   22.73
   4  -7  -9   13.26   10.10
  -4   7   9    7.57   10.50
   4  -7  -7   17.36   10.63
  -4   7   7    0.55   10.59
   4  -7  -5  -12.51   10.24
  -4   7   5  -14.47   11.87
   4  -7  -3   -8.78   11.54
  -4   7   3   -0.79   13.33
   4  -7  -2  475.02   76.40
  -4   7   2  537.68   86.20
   4  -7  -1   41.70   14.41
  -4   7   1   18.11   15.78
   4  -7   0  567.90   90.86
  -4   7   0  614.68   98.71
   4  -7   1  -12.22   13.68
  -4   7  -1   -0.73   17.92
   4  -7   2  439.94   71.22
  -4   7  -2  442.59   71.90
   4  -7   3   12.13   12.29
  -4   7  -3    3.09   14.30
   4  -7   4   16.92   12.64
  -4   7  -4    5.36   12.44
   4  -7   5   11.08   11.61
  -4   7  -5    4.46   12.84
   4  -7   6   69.54   15.86
  -4   7  -6  100.96   20.30
   4  -7   7    4.88   10.28
  -4   7  -7   19.46   11.54
   4  -7   8  181.51   31.02
  -4   7  -8  175.45   30.34
   4  -7   9    3.84    9.73
  -4   7  -9    2.38    9.27
   4  -7  10  117.68   21.73
  -4   7 -10  108.90   19.99
   4  -7  11    6.93    9.02
  -4   7 -11    7.92    8.63
   3  -7 -11   12.11   10.04
  -3   7  11    9.88   10.24
   3  -7 -10   40.68   12.91
  -3   7  10    3.04   10.72
   3  -7  -9    6.64    9.42
  -3   7   9   -0.66   10.37
   3  -7  -8   -0.90    8.85
  -3   7   8    1.54   10.06
   3  -7  -7  -14.91    9.60
  -3   7   7   -7.61   10.28
   3  -7  -6   33.25   12.38
  -3   7   6   20.25   11.30
   3  -7  -5   -0.51   10.22
  -3   7   5   13.83   12.18
   3  -7  -4  138.20   25.35
  -3   7   4   81.19   19.39
   3  -7  -3   10.39   12.55
  -3   7   3   12.20   14.05
   3  -7  -2   94.76   19.50
  -3   7   2   61.36   16.92
   3  -7  -1   19.75   12.33
  -3   7   1   11.21   14.50
   3  -7   0  -12.84   12.36
  -3   7   0   -4.59   15.29
   3  -7   1    8.45   12.47
  -3   7  -1   20.06   15.40
   3  -7   2   57.63   16.26
  -3   7  -2   93.30   20.19
   3  -7   3   38.50   14.58
   3  -7   4   89.49   18.58
  -3   7  -4   83.99   17.69
   3  -7   5   28.06   12.22
  -3   7  -5    3.77   11.80
   3  -7   6  -13.33   11.63
  -3   7  -6    5.32   10.24
   3  -7   7   -1.08    9.00
  -3   7  -7   28.64   11.30
   3  -7   8  -17.21    8.65
  -3   7  -8  -10.24   10.06
   3  -7   9   -4.10    9.20
  -3   7  -9   -7.77    8.60
   3  -7  10   29.50   10.94
  -3   7 -10    7.08    8.43
   3  -7  11    7.88    8.87
  -3   7 -11   10.57    8.34
   2  -7 -11    7.85   10.19
  -2   7  11   -3.42    9.60
   2  -7 -10   -0.42    9.82
  -2   7  10   26.83   10.97
   2  -7  -9   14.45    9.47
  -2   7   9   12.82    9.66
   2  -7  -8   11.85    8.94
  -2   7   8   20.72    9.60
   2  -7  -7   33.78   11.01
  -2   7   7    3.38    8.89
   2  -7  -6    0.09   10.99
  -2   7   6   14.47   10.72
   2  -7  -5    0.62   10.26
  -2   7   5   25.13   14.67
   2  -7  -4   16.94   12.38
  -2   7   4   20.30   14.21
   2  -7  -3    8.85   11.52
  -2   7   3   15.25   13.64
   2  -7  -2   30.31   13.11
  -2   7   2   67.20   17.43
   2  -7  -1   16.68   12.22
  -2   7   1   11.49   14.19
   2  -7   0   35.52   13.90
  -2   7   0   50.00   16.99
   2  -7   1    1.65   13.41
  -2   7  -1   25.26   14.27
   2  -7   2   18.86   13.30
  -2   7  -2   32.32   14.30
   2  -7   3   -3.51   12.29
   2  -7   4   12.33   11.49
  -2   7  -4   20.06   12.09
   2  -7   5    3.95   11.67
  -2   7  -5   37.22   14.67
   2  -7   6   -9.88    9.99
  -2   7  -6   12.00   10.35
   2  -7   7   13.35    9.73
  -2   7  -7    3.09    9.49
   2  -7   8    7.77    7.48
  -2   7  -8   10.63    9.13
   2  -7   9   17.72    8.80
  -2   7  -9   23.67    9.13
   2  -7  10    1.08    9.11
  -2   7 -10    0.09    7.79
   2  -7  11    4.43    9.64
  -2   7 -11    4.85    9.27
   1  -7 -11   49.44   13.52
  -1   7  11   48.91   13.04
   1  -7 -10    9.02   10.33
  -1   7  10   10.74   10.50
   1  -7  -9   10.94    9.58
  -1   7   9   41.02   11.78
   1  -7  -8    9.24    9.31
  -1   7   8    0.31    8.74
   1  -7  -7   52.58   13.13
  -1   7   7   60.81   13.83
   1  -7  -6   20.67   10.19
  -1   7   6   35.81   12.27
   1  -7  -4   51.52   15.55
  -1   7   4   43.91   15.36
   1  -7  -3  465.09   74.64
  -1   7   3  411.92   66.59
   1  -7  -2    5.38   13.17
  -1   7   2   22.68   12.33
   1  -7   0   38.81   15.33
  -1   7   0   -8.05   12.75
   1  -7   1   34.20   15.31
  -1   7  -1   33.09   13.55
   1  -7   2  277.55   46.24
  -1   7  -2  141.93   26.54
   1  -7   3  580.92   92.51
   1  -7   4   67.27   15.69
  -1   7  -4   56.39   15.02
   1  -7   5   88.58   18.53
  -1   7  -5   46.42   14.52
   1  -7   6   20.92   10.94
  -1   7  -6   39.01   12.73
   1  -7   7  103.54   19.55
  -1   7  -7   49.44   12.62
   1  -7   8   -3.00    7.74
  -1   7  -8   -3.00    8.71
   1  -7   9    8.34    8.41
  -1   7  -9   13.59    9.35
   1  -7  10   16.35    9.29
  -1   7 -10   -7.77    7.81
   1  -7  11   53.61   12.22
  -1   7 -11   64.20   13.94
   0  -7 -12    2.25    9.77
   0  -7 -11   11.74   10.24
   0   7  11   22.39   10.50
   0  -7 -10   14.80   10.24
   0   7  10    6.07   10.41
   0  -7  -9   13.22    9.77
   0   7   9    2.93    9.27
   0  -7  -8    8.87    9.11
   0   7   8    1.28    8.71
   0  -7  -7   75.94   16.02
   0   7   7   82.96   16.61
   0  -7  -6   -8.34    9.35
   0   7   6   -6.29   10.86
   0  -7  -5   16.22   12.18
   0   7   5   21.51   11.27
   0  -7  -4  -12.07   13.17
   0   7   4  -12.60   13.52
   0  -7  -3  102.97   20.58
   0   7   3   76.49   17.94
   0  -7  -2   13.44   13.39
   0   7   2   10.06   11.63
   0  -7  -1 1189.86  187.18
   0   7   1 1108.01  174.43
   0  -7   0  -15.64   14.43
   0   7   0  -15.73   13.64
   0  -7   1  933.05  147.32
   0   7  -1  806.19  127.39
   0  -7   2   94.39   20.47
   0   7  -2   96.53   20.78
   0  -7   3   87.66   18.64
   0  -7   4   -5.54   11.21
   0   7  -4   -9.73   10.24
   0  -7   5   25.73   11.98
   0   7  -5   24.42   11.19
   0  -7   6   31.09   11.91
   0   7  -6   36.69   11.41
   0  -7   7  115.41   21.00
   0   7  -7   98.47   18.36
   0  -7   8   -2.54    8.19
   0   7  -8    8.32    7.79
   0  -7   9    8.63    8.58
   0   7  -9   14.52    8.23
   0  -7  10    6.24    9.20
   0   7 -10    0.77    6.69
   0  -7  11   40.86   10.61
   0   7 -11    9.27    7.52
   0  -7  12   -2.05    7.21
   0   7 -12   -3.62    6.22
  -1  -7   0   21.86   14.16
  -1  -7   1   33.73   15.22
   1   7  -1    2.27   11.98
  -1  -7   3  694.55  110.05
  -1  -7   4   56.94   14.96
   1   7  -4   76.69   16.64
  -1  -7   5  126.44   23.56
   1   7  -5   81.55   17.30
  -1  -7   6   25.66   11.45
   1   7  -6   29.83   10.88
  -1  -7   7   72.08   15.38
   1   7  -7  118.32   21.20
  -1  -7   8   11.89    8.87
   1   7  -8   22.17    9.05
  -1  -7   9   53.61   12.53
   1   7  -9   98.07   17.98
  -1  -7  10   18.58    8.96
   1   7 -10   10.26    7.08
  -1  -7  11   30.71    9.27
   1   7 -11   53.97   11.63
  -1  -7  12   11.72    8.03
   1   7 -12   11.47    6.80
  11  -8  -8   24.87   14.03
 -11   8   8   14.89   12.18
 -11   8   7   14.39   13.77
 -11   8   6   62.99   17.96
  10  -8  -9    4.92   13.06
 -10   8   9    1.21   12.42
  10  -8  -8   10.26   13.41
 -10   8   8   56.48   16.19
  10  -8  -7    9.31   13.70
 -10   8   7   13.26   13.26
  10  -8  -6  109.61   23.65
 -10   8   6  101.36   21.69
  10  -8  -5   -9.18   12.91
 -10   8   5    0.40   11.78
  10  -8  -4   42.65   15.11
 -10   8   4   21.82   14.01
 -10   8   3   -5.43   14.25
 -10   8   2    2.07   12.42
   9  -8  -9   11.91   13.72
  -9   8   9    3.13   14.03
   9  -8  -8   45.76   16.46
  -9   8   8   96.50   20.58
   9  -8  -7   30.98   15.16
  -9   8   7   25.02   12.73
   9  -8  -6   79.80   18.69
  -9   8   6   98.89   21.25
   9  -8  -5  -10.08   13.77
  -9   8   5  -11.56   13.26
   9  -8  -4  996.15  157.66
  -9   8   4  810.60  129.05
   9  -8  -3   32.45   14.50
  -9   8   3   20.19   13.94
  -9   8   2   34.75   14.72
   9  -8  -1   -1.19   13.22
  -9   8   1   13.33   13.50
   9  -8   0  593.72   95.25
  -9   8   0  597.91   96.31
  -9   8  -1   34.64   16.33
   8  -8 -10    3.42   12.13
  -8   8  10    3.27   12.64
   8  -8  -9   17.45   13.50
  -8   8   9   19.99   13.26
   8  -8  -8   36.54   14.96
  -8   8   8   61.82   17.43
   8  -8  -7   31.57   13.83
  -8   8   7   34.48   13.81
   8  -8  -6  102.06   21.47
  -8   8   6  120.33   23.43
   8  -8  -5  121.44   23.45
  -8   8   5  139.11   26.14
   8  -8  -4  151.60   28.17
  -8   8   4  147.36   27.49
   8  -8  -3  111.11   22.61
  -8   8   3   78.79   18.84
  -8   8   2   35.68   14.25
   8  -8  -1   22.50   13.88
  -8   8   1   -8.83   14.12
   8  -8   0  618.65   99.15
  -8   8   0  551.36   88.89
   8  -8   1    2.32   13.28
  -8   8  -1   24.05   16.72
   8  -8   2    5.25   12.33
  -8   8  -2    3.27   14.96
   8  -8   3  122.72   24.34
  -8   8  -3  103.81   23.30
   8  -8   4   87.02   19.13
  -8   8  -4   98.38   20.83
  -8   8  -5  157.66   29.96
   7  -8 -10  120.88   23.61
  -7   8  10  104.56   21.82
   7  -8  -9   18.86   12.86
  -7   8   9   18.05   13.72
   7  -8  -8    8.38   13.64
  -7   8   8    1.81   14.14
   7  -8  -7    0.24   11.58
  -7   8   7   27.18   13.86
   7  -8  -6    2.21   11.61
  -7   8   6   10.55   11.25
   7  -8  -5   20.01   12.91
  -7   8   5   52.40   15.05
   7  -8  -4  221.29   38.50
  -7   8   4  160.18   29.63
   7  -8  -3  200.58   35.21
  -7   8   3  171.21   31.20
  -7   8   2   26.43   14.45
   7  -8  -1  112.70   23.03
  -7   8   1  104.16   22.53
   7  -8   0   30.80   14.54
  -7   8   0    6.82   16.46
   7  -8   1  128.96   25.24
  -7   8  -1   93.37   21.29
   7  -8   2   21.67   13.55
  -7   8  -2   -6.99   16.08
   7  -8   3  244.24   41.88
  -7   8  -3  135.31   27.07
   7  -8   4  219.68   37.62
  -7   8  -4  201.08   35.96
   7  -8   5   44.50   14.58
  -7   8  -5   65.31   17.41
   7  -8   6  -11.23   11.34
  -7   8  -6    2.38   13.24
   7  -8   7  -14.41   11.43
  -7   8  -7   -4.94   11.74
  -7   8  -8    8.49   10.72
  -7   8  -9   34.84   12.77
   6  -8 -10   27.95   11.98
  -6   8  10   21.82   11.67
  -6   8   9  118.24   23.19
   6  -8  -8   21.31   13.06
  -6   8   8   39.96   13.88
   6  -8  -7  420.74   68.42
   6  -8  -6   -8.91   11.52
  -6   8   6    6.29   11.34
   6  -8  -5   43.75   14.47
  -6   8   5   62.15   16.00
   6  -8  -4   50.99   15.16
  -6   8   4   38.19   15.16
   6  -8  -3  123.18   24.62
  -6   8   3   96.79   20.81
   6  -8  -2   16.37   11.58
  -6   8   2   13.00   13.81
   6  -8  -1   -3.20   12.29
  -6   8   1    4.15   15.31
   6  -8   0   50.13   17.89
  -6   8   0   62.48   18.78
   6  -8   1  -11.23   15.07
  -6   8  -1  -14.43   15.47
   6  -8   2   21.69   14.39
  -6   8  -2   15.84   15.78
   6  -8   3  125.45   24.89
  -6   8  -3  111.29   24.14
   6  -8   4   38.54   13.79
  -6   8  -4   30.95   14.65
   6  -8   5   45.71   14.41
  -6   8  -5   12.77   12.95
   6  -8   6   -7.48   11.58
  -6   8  -6    1.37   12.07
   6  -8   7  309.10   50.81
  -6   8  -7  357.86   58.53
   6  -8   8   12.60   11.47
  -6   8  -8   -7.24    9.40
   6  -8   9  149.01   27.25
  -6   8  -9  154.93   27.91
   6  -8  10    7.19   11.76
  -6   8 -10   21.22   10.26
  -6   8 -11   51.30   13.79
   5  -8 -11    1.50    9.80
  -5   8  11   14.56   10.19
   5  -8 -10   12.64   11.56
  -5   8  10   26.08   12.55
   5  -8  -9   56.64   14.80
  -5   8   9   93.19   19.59
   5  -8  -8   10.41   10.39
  -5   8   8   22.44   11.96
   5  -8  -7  160.64   28.86
  -5   8   7  156.58   28.44
   5  -8  -6   -6.73    8.74
  -5   8   6   13.13   10.99
   5  -8  -5  266.30   44.19
  -5   8   5  317.93   52.31
   5  -8  -4   37.51   13.24
  -5   8   4   -0.64   13.46
   5  -8  -3   47.88   13.94
  -5   8   3   63.83   17.10
   5  -8  -1   86.93   20.21
  -5   8   1   46.77   17.32
   5  -8   0  -16.97   15.25
  -5   8   0   30.29   18.33
   5  -8   1   38.19   16.81
  -5   8  -1    9.73   15.64
   5  -8   2   26.12   15.66
  -5   8  -2   45.74   17.96
   5  -8   3   99.37   22.13
  -5   8  -3   95.40   22.11
   5  -8   4    3.40   12.42
  -5   8  -4   16.15   14.54
   5  -8   5  379.04   61.51
  -5   8  -5  441.26   71.44
   5  -8   6   27.09   11.72
  -5   8  -6  -16.19   12.29
   5  -8   7  165.78   29.28
  -5   8  -7  215.05   37.09
   5  -8   8  -10.59    9.99
  -5   8  -8   -2.49    9.24
   5  -8   9  106.28   20.67
  -5   8  -9   78.43   16.90
   5  -8  10    9.88   11.56
  -5   8 -10   13.17    9.95
   5  -8  11   14.05   10.24
  -5   8 -11    3.53    7.94
   4  -8 -11    8.03   10.28
  -4   8  11   -2.45   10.52
   4  -8 -10    3.38   10.99
  -4   8  10   40.46   13.68
   4  -8  -9   13.79   11.03
  -4   8   9   33.18   13.17
   4  -8  -8    4.61   10.13
  -4   8   8    2.78   10.55
   4  -8  -7  951.14  150.18
  -4   8   7  988.65  156.01
   4  -8  -6   26.43   10.83
  -4   8   6   19.95   11.94
   4  -8  -5  334.70   54.65
  -4   8   5  367.13   59.95
   4  -8  -4   -2.01   12.77
  -4   8   4   43.91   14.96
   4  -8  -3  660.79  105.09
  -4   8   3  860.68  136.35
   4  -8  -2   15.73   12.93
  -4   8   2   55.93   19.53
   4  -8  -1  155.72   28.40
  -4   8   1  217.59   38.08
   4  -8   0   36.85   14.27
  -4   8   0   37.33   16.77
   4  -8   1  273.58   46.11
  -4   8  -1  283.07   47.37
   4  -8   2   39.91   16.11
  -4   8  -2   42.12   16.30
   4  -8   3 1060.79  167.44
  -4   8  -3  700.94  111.51
   4  -8   4   12.53   14.32
  -4   8  -4   23.65   14.56
   4  -8   5  254.61   42.56
  -4   8  -5  298.29   49.58
   4  -8   6   16.48   10.46
  -4   8  -6   17.56   13.11
   4  -8   7 1022.63  161.15
  -4   8  -7 1003.87  158.30
   4  -8   8   -9.77    9.33
  -4   8  -8    8.58    8.56
   4  -8   9   36.12   12.31
  -4   8  -9   29.96   10.63
   4  -8  10    5.30   10.44
  -4   8 -10    8.80    9.35
   4  -8  11   17.50   10.02
  -4   8 -11    7.08    8.43
   3  -8 -11  -18.60    9.88
  -3   8  11   -3.44   10.15
   3  -8 -10   60.01   14.96
  -3   8  10   35.04   12.88
   3  -8  -9   10.66   10.61
  -3   8   9   22.17   12.38
   3  -8  -8   11.49   10.46
  -3   8   8    4.74   10.15
   3  -8  -7   -4.52   10.94
  -3   8   7   -6.22   11.74
   3  -8  -6   24.16   11.65
  -3   8   6    2.89   11.56
   3  -8  -5   63.01   15.14
  -3   8   5  102.62   20.70
   3  -8  -4  549.15   87.81
  -3   8   4  474.58   76.40
   3  -8  -3   87.44   18.78
  -3   8   3  149.74   28.55
   3  -8  -2    5.14   12.27
  -3   8   2  -26.06   15.38
   3  -8  -1   50.04   15.42
  -3   8   1   82.96   20.34
   3  -8   0   17.05   13.22
  -3   8   0    5.65   14.36
   3  -8   1   55.44   16.15
  -3   8  -1   57.70   17.14
   3  -8   2    7.06   13.50
  -3   8  -2    5.56   14.89
   3  -8   3   94.63   20.52
   3  -8   4  342.20   55.91
  -3   8  -4  324.55   53.39
   3  -8   5   66.65   15.60
  -3   8  -5   80.07   17.45
   3  -8   6   -3.60   10.46
  -3   8  -6   15.44   11.47
   3  -8   7   30.38   11.49
  -3   8  -7   21.34   11.32
   3  -8   8   11.36   10.83
  -3   8  -8   34.57   11.72
   3  -8   9   -1.13   10.99
  -3   8  -9   15.71    9.97
   3  -8  10   21.38   10.81
  -3   8 -10   11.61    9.82
   3  -8  11    3.62    9.20
  -3   8 -11    8.08    9.51
   2  -8 -11   20.85   10.70
  -2   8  11    1.08    9.49
   2  -8 -10   15.89   10.92
  -2   8  10   12.82   10.59
   2  -8  -9   80.84   17.14
  -2   8   9   94.81   19.42
   2  -8  -8   74.26   16.06
  -2   8   8   65.88   14.52
   2  -8  -7   37.51   13.24
  -2   8   7   48.87   13.97
   2  -8  -5    3.57    9.95
  -2   8   5   10.88   10.79
   2  -8  -4  244.02   40.97
  -2   8   4  220.85   37.68
   2  -8  -3   10.48   11.78
  -2   8   3   14.69   13.37
   2  -8  -2  615.12   97.92
  -2   8   2  364.92   59.99
   2  -8  -1   -4.08   12.16
  -2   8   1   -2.45   14.91
   2  -8   0  250.64   42.43
  -2   8   0  296.75   49.97
   2  -8   1    1.52   12.05
  -2   8  -1   13.26   14.61
   2  -8   2  129.27   25.31
  -2   8  -2  171.65   31.22
   2  -8   3    6.73   12.20
   2  -8   4  252.62   42.56
  -2   8  -4  376.62   61.25
   2  -8   5   -5.16   10.92
  -2   8  -5    2.12   11.47
   2  -8   6   59.92   14.76
  -2   8  -6   52.71   13.77
   2  -8   7   60.14   13.77
  -2   8  -7   69.68   15.29
   2  -8   8   -8.67    9.00
  -2   8  -8   -0.64    9.05
   2  -8   9  103.76   19.46
  -2   8  -9   80.46   16.30
   2  -8  10   17.69   10.19
  -2   8 -10    5.25    9.22
   2  -8  11   21.58    9.55
  -2   8 -11    4.08    8.91
   1  -8 -11   -2.54    9.33
  -1   8  11   -7.28    9.80
   1  -8  -9   -1.65    9.71
  -1   8   9   -1.15   10.59
   1  -8  -7   67.20   15.80
  -1   8   7   63.87   15.14
   1  -8  -6  802.44  126.97
  -1   8   6  771.11  122.01
   1  -8  -5   49.55   13.75
  -1   8   5   49.64   13.88
   1  -8  -4  720.14  114.18
  -1   8   4  860.02  135.95
   1  -8  -3   26.03   13.48
  -1   8   3    0.79   11.85
   1  -8  -2  237.84   40.42
  -1   8   2  205.08   35.50
   1  -8  -1   40.46   15.07
  -1   8   1   43.97   16.41
   1  -8   1   84.63   19.59
  -1   8  -1   66.26   17.85
   1  -8   2   71.09   17.58
  -1   8  -2   98.78   20.25
   1  -8   3   34.33   14.69
   1  -8   4  860.24  135.86
  -1   8  -4 1065.43  167.61
   1  -8   5   42.29   13.30
  -1   8  -5   51.41   14.14
   1  -8   6  580.26   92.20
  -1   8  -6  677.34  107.23
   1  -8   7   83.35   16.68
  -1   8  -7   35.68   11.25
   1  -8   8 1025.05  161.13
  -1   8  -8  835.09  131.61
   1  -8   9  -11.89    9.02
  -1   8  -9   12.91    9.38
   1  -8  10   57.32   13.72
  -1   8 -10   54.30   12.77
   1  -8  11   10.37    8.85
  -1   8 -11    7.85    8.56
   0  -8 -11    1.65    9.53
   0   8  11   -1.83    9.82
   0  -8 -10   70.23   15.91
   0   8  10   86.64   18.00
   0  -8  -9   -4.88    9.77
   0   8   9  -13.46   10.81
   0  -8  -8   21.20   10.39
   0   8   8   19.15   10.10
   0  -8  -7  -24.27   11.38
   0   8   7  -17.34   10.74
   0  -8  -6  617.99   98.40
   0   8   6  529.74   84.61
   0  -8  -5    3.73   10.55
   0   8   5   -8.23   10.55
   0  -8  -4 1780.05  279.10
   0   8   4 1565.60  245.78
   0  -8  -3    6.82   12.40
   0   8   3   16.46   12.22
   0  -8  -2  120.97   23.56
   0   8   2   96.35   19.99
   0  -8  -1  -29.52   13.24
   0   8   1   -4.83   14.50
   0  -8   1  -18.67   13.55
   0   8  -1   17.08   13.66
   0  -8   2  126.75   24.36
   0   8  -2  111.48   21.89
   0  -8   3  -15.62   15.80
   0  -8   4 1455.72  228.35
   0   8  -4 1776.08  278.22
   0  -8   5    0.53   11.38
   0   8  -5   -3.93   10.46
   0  -8   6  607.62   96.44
   0   8  -6  668.95  105.77
   0  -8   7   13.75    9.71
   0   8  -7    6.57    8.71
   0  -8   8   26.85    9.33
   0   8  -8   20.03    8.89
   0  -8   9   18.71    9.77
   0   8  -9  -13.06    8.08
   0  -8  10   56.68   13.50
   0   8 -10   73.38   14.36
   0  -8  11    3.62    9.27
   0   8 -11   11.98    7.83
  -1  -8  -2  133.97   25.31
  -1  -8  -1   86.58   19.50
   1   8   1   69.98   18.64
  -1  -8   0   32.45   15.14
   1   8   0   70.49   19.31
  -1  -8   1  103.83   21.78
   1   8  -1   78.48   18.82
  -1  -8   2   82.19   18.64
   1   8  -2   84.48   18.86
  -1  -8   3   20.89   14.41
  -1  -8   4  623.06   99.02
   1   8  -4  618.87   98.25
  -1  -8   5   59.35   15.05
   1   8  -5   55.47   14.30
  -1  -8   6  770.00  121.68
   1   8  -6  594.38   94.23
  -1  -8   7   72.59   15.44
   1   8  -7   62.70   13.86
  -1  -8   8  728.52  114.95
   1   8  -8  903.48  142.20
  -1  -8   9    8.89    9.29
   1   8  -9   10.24    8.23
  -1  -8  10   75.30   15.82
   1   8 -10   58.09   12.49
  -1  -8  11   18.44    9.33
   1   8 -11    0.04    7.41
  -2  -8  11   52.80   12.40
  12  -9  -7   -6.13   12.80
 -12   9   7   -4.46   13.17
 -12   9   6   20.65   14.54
 -12   9   5   24.60   15.20
  11  -9  -8    9.40   12.86
 -11   9   8   17.69   13.39
  11  -9  -7   14.25   14.03
 -11   9   7   16.79   14.10
  11  -9  -5   -8.19   13.13
 -11   9   5   23.01   14.03
  11  -9  -4    9.58   12.91
 -11   9   4    0.07   14.12
  11  -9  -3   17.01   13.17
 -11   9   3   -9.02   14.74
 -11   9   2   24.47   14.12
  10  -9  -9   16.83   14.80
 -10   9   9   28.84   13.64
  10  -9  -8   -6.53   13.17
 -10   9   8   -2.10   12.38
  10  -9  -7    7.61   13.44
 -10   9   7   15.18   13.57
  10  -9  -6   47.10   16.37
 -10   9   6    9.29   14.12
  10  -9  -5   22.75   14.69
 -10   9   5   30.14   14.56
  10  -9  -4   -7.08   13.35
 -10   9   4  -28.66   13.59
  10  -9  -3   11.80   13.46
 -10   9   3  -14.94   14.36
 -10   9   2    8.21   14.52
  10  -9  -1  -15.49   11.89
 -10   9   1   -2.47   12.44
  10  -9   0    3.73   13.77
 -10   9   0   18.82   13.59
  10  -9   1  -17.39   12.77
 -10   9  -1    6.84   11.05
 -10   9  -2    4.32   10.17
   9  -9  -9   -2.18   13.39
  -9   9   9  -16.90   12.02
   9  -9  -8  -12.62   12.86
  -9   9   8   -6.09   12.38
   9  -9  -7   10.06   13.55
  -9   9   7  -12.80   12.25
   9  -9  -6   -6.55   14.03
  -9   9   6   -4.74   12.33
   9  -9  -5   -4.30   12.97
  -9   9   5   14.08   12.36
   9  -9  -4   12.47   12.97
  -9   9   4   20.03   13.81
  -9   9   2   19.37   14.03
   9  -9  -1   14.10   13.77
  -9   9   1   39.27   15.31
   9  -9   0    4.94   12.51
  -9   9   0   12.58   13.04
   9  -9   1   17.03   12.31
  -9   9  -1   11.85   12.51
   9  -9   2    9.58   13.70
  -9   9  -2   -2.27   11.89
   9  -9   3   12.09   12.91
  -9   9  -3    1.99   11.01
   9  -9   4    8.85   12.71
  -9   9  -5   18.42   11.47
  -9   9  -6   -7.79   10.77
   8  -9  -9   17.61   13.46
  -8   9   9   -6.53   13.48
   8  -9  -8  -19.79   13.22
  -8   9   8   -9.84   12.55
   8  -9  -7   21.34   14.39
  -8   9   7   13.26   12.31
   8  -9  -6   39.56   15.09
  -8   9   6   14.50   13.02
   8  -9  -5  -36.10   15.78
  -8   9   5  -57.65   15.31
   8  -9  -4   -4.85   12.09
  -8   9   4  -20.56   12.77
   8  -9  -3   44.24   15.05
  -8   9   3   13.57   13.97
  -8   9   2  -15.02   12.60
   8  -9  -1   44.04   15.82
  -8   9   1   43.00   15.42
   8  -9   0   12.69   13.08
  -8   9   0   -7.57   13.92
   8  -9   1   24.69   13.11
  -8   9  -1   17.87   15.33
   8  -9   2   17.10   14.25
  -8   9  -2  -15.60   14.05
   8  -9   3   55.44   15.62
  -8   9  -3   41.37   16.39
   8  -9   4  -20.30   12.29
  -8   9  -4   19.15   14.05
   8  -9   5   10.68   12.20
  -8   9  -5   13.22   11.23
   8  -9   6   12.42   12.31
  -8   9  -6    5.71    9.99
   8  -9   7    8.12   12.49
  -8   9  -7   -3.62   11.19
   8  -9   8    9.64   11.76
  -8   9  -8    7.59   11.38
  -8   9  -9    9.02   10.59
  -8   9 -10    7.88   10.44
   7  -9 -10   14.89   12.51
  -7   9  10    2.85   11.85
   7  -9  -9   15.58   13.02
   7  -9  -8   -9.02   13.30
  -7   9   8   36.93   14.98
   7  -9  -7  -12.40   12.64
  -7   9   7   -7.74   11.41
   7  -9  -6    2.07   12.05
  -7   9   6   11.27   11.23
   7  -9  -4  -13.70   12.75
  -7   9   4   11.43   13.15
   7  -9  -3  -14.45   12.75
  -7   9   3   -5.23   13.15
  -7   9   2    9.09   12.16
   7  -9  -1   -3.64   12.97
  -7   9   1   -7.74   13.94
   7  -9   0    0.64   13.30
  -7   9   0   11.76   13.61
   7  -9   1   -3.82   12.84
  -7   9  -1   16.75   16.06
   7  -9   2  -11.49   12.95
  -7   9  -2   24.64   14.76
   7  -9   3    6.60   12.33
  -7   9  -3  -19.06   14.52
   7  -9   4   -3.20   12.05
  -7   9  -4    7.92   13.81
   7  -9   5   11.41   11.52
  -7   9  -5    2.21   14.14
   7  -9   6  -25.68   12.82
  -7   9  -6   -7.46   12.73
   7  -9   7   14.91   13.06
  -7   9  -7   -4.74   10.79
   7  -9   8   11.21   12.66
  -7   9  -8   13.30   10.59
   7  -9   9    1.04   11.96
  -7   9  -9    6.05   10.68
   7  -9  10    1.94   11.52
  -7   9 -10   -5.27    9.62
   6  -9 -10    0.07   10.94
  -6   9  10    6.18   11.08
   6  -9  -9   -4.26   11.38
  -6   9   9    9.11   12.00
   6  -9  -8    7.19   12.38
  -6   9   8   27.31   13.30
   6  -9  -7   -1.15   10.52
  -6   9   7   -7.37   11.30
   6  -9  -6  -14.32   10.68
  -6   9   6   -2.49   10.41
   6  -9  -5    3.91   11.83
  -6   9   5   10.66   11.58
   6  -9  -4    0.95   12.11
  -6   9   4   -0.64   12.00
   6  -9  -3   -0.09   12.73
  -6   9   3  -17.80   13.15
   6  -9  -2    9.27   10.41
  -6   9   2  -14.83   13.48
   6  -9  -1  -18.36   12.86
  -6   9   1   -7.08   13.72
   6  -9   0   12.33   14.01
  -6   9   0   -1.50   16.83
   6  -9   1  -16.13   12.40
  -6   9  -1  -16.77   15.09
   6  -9   2    0.51   12.42
  -6   9  -2   -8.96   16.04
   6  -9   3    7.17   13.28
  -6   9  -3    2.52   14.32
   6  -9   4   -0.90   12.22
  -6   9  -4   -5.01   14.39
   6  -9   5   29.12   13.50
  -6   9  -5   -1.68   12.55
   6  -9   6   11.43   11.91
  -6   9  -6   -1.43   13.22
   6  -9   7   -7.19   11.83
  -6   9  -7    4.70   11.19
   6  -9   8   10.46   11.89
  -6   9  -8    5.58   10.63
   6  -9   9    0.51   11.43
  -6   9  -9    2.36   11.10
   6  -9  10   11.12   10.99
  -6   9 -10   15.60    9.55
   5  -9 -10   23.50   11.65
  -5   9  10   42.38   14.03
   5  -9  -9    9.91   11.74
  -5   9   9   -7.77   12.33
   5  -9  -8    1.92   11.12
  -5   9   8    1.04   12.31
   5  -9  -7   19.28   11.47
  -5   9   7    4.70   11.94
   5  -9  -6   -4.72   10.26
  -5   9   6   -4.85   10.39
   5  -9  -5   -4.74   10.59
  -5   9   5   16.97   11.94
   5  -9  -4   63.25   16.11
  -5   9   4   76.47   18.20
   5  -9  -3    5.63   11.56
  -5   9   3   10.63   12.77
   5  -9  -2   29.10   13.41
  -5   9   2   29.37   14.30
   5  -9  -1   13.59   11.69
  -5   9   1   -9.38   12.88
   5  -9   0   16.28   12.64
  -5   9   0    5.18   13.15
   5  -9   1   -7.04   14.21
  -5   9  -1    7.08   12.36
   5  -9   2    8.41   13.61
  -5   9  -2   28.51   16.66
   5  -9   3   17.83   13.13
  -5   9  -3  -16.94   14.14
   5  -9   4   76.85   17.61
  -5   9  -4   66.21   17.34
   5  -9   5  -16.83   11.74
  -5   9  -5   -0.66   12.40
   5  -9   6   -5.91   11.61
  -5   9  -6  -10.28   12.09
   5  -9   7    0.53   10.19
  -5   9  -7   -6.99   11.36
   5  -9   8   18.73   11.76
  -5   9  -8  -16.92   10.48
   5  -9   9   -1.15   11.16
  -5   9  -9   19.66   11.80
   5  -9  10   25.77   12.62
  -5   9 -10   14.78    9.91
   4  -9 -11    7.26   10.37
  -4   9  11    1.94   10.39
   4  -9 -10   24.29   12.02
  -4   9  10    0.49   11.01
   4  -9  -9  -13.94   11.27
  -4   9   9   12.16   12.42
   4  -9  -8    2.03   10.92
  -4   9   8   -3.71   11.87
   4  -9  -7   -4.13   12.20
  -4   9   7    4.79   11.87
   4  -9  -6    3.82   10.22
  -4   9   6   15.86   11.85
   4  -9  -5   -3.40   10.70
  -4   9   5    2.12   11.08
   4  -9  -4   45.16   14.32
  -4   9   4   21.29   14.25
   4  -9  -3    1.19   12.47
  -4   9   3    7.63   12.84
   4  -9  -2   -1.32   11.94
  -4   9   2  -20.47   13.37
   4  -9  -1    6.57   11.23
  -4   9   1    6.99   13.83
   4  -9   0    0.20   14.16
  -4   9   0   -0.04   14.85
   4  -9   1   12.31   14.27
  -4   9  -1    5.52   13.66
   4  -9   2   35.30   15.14
  -4   9  -2   61.69   17.74
   4  -9   3   22.66   13.41
  -4   9  -3    2.07   12.20
   4  -9   4   44.48   14.30
  -4   9  -4   20.32   12.86
   4  -9   5   -0.22   10.41
  -4   9  -5   23.01   12.40
   4  -9   6   32.85   12.58
  -4   9  -6    8.71   10.61
   4  -9   7   23.17   10.94
  -4   9  -7    6.35   10.63
   4  -9   8    2.05   10.50
  -4   9  -8   -0.24    9.97
   4  -9   9  -15.78   10.83
  -4   9  -9   -2.47   11.23
   4  -9  10   12.80   11.91
  -4   9 -10    6.69    9.09
  -4   9 -11  -15.84    8.41
   3  -9 -11    1.04    9.27
  -3   9  11   -0.90    9.42
   3  -9 -10   -3.38   11.10
  -3   9  10   -4.10   10.10
   3  -9  -9   -0.84   11.05
   3  -9  -8   13.99   11.38
  -3   9   8   -1.83   11.38
   3  -9  -6   12.29    9.80
  -3   9   6   13.79   12.58
   3  -9  -5   16.68   10.94
  -3   9   5   -1.13   11.10
   3  -9  -4   14.96   12.36
  -3   9   4   10.30   13.08
   3  -9  -3   10.77   12.82
  -3   9   3   44.04   14.80
   3  -9  -2   20.19   14.39
  -3   9   2   -6.02   13.11
   3  -9  -1   16.77   12.60
  -3   9   1   19.64   14.32
   3  -9   0   -5.23   13.41
  -3   9   0    1.52   16.75
   3  -9   1   12.44   13.37
  -3   9  -1   10.06   14.05
   3  -9   2   -7.32   13.44
  -3   9  -2   30.56   14.85
   3  -9   3    6.62   13.72
   3  -9   4   -8.63   11.96
  -3   9  -4    6.66   13.04
   3  -9   5   -7.55    9.91
  -3   9  -5   15.18   12.20
   3  -9   6   15.91   10.77
  -3   9  -6   34.57   12.82
   3  -9   7    5.80   10.17
  -3   9  -7    7.77   10.79
   3  -9   8   11.08    9.91
  -3   9  -8    7.88    9.84
   3  -9   9   23.41   10.99
  -3   9  -9   -5.82   10.24
   3  -9  11   -5.85    9.20
  -3   9 -11   26.76    9.49
   2  -9 -11   -5.05    9.66
  -2   9  11    7.39    9.69
   2  -9 -10  -17.03   10.90
  -2   9  10   -4.39   11.05
   2  -9  -9    2.67   10.48
  -2   9   9  -11.03   11.16
   2  -9  -8    9.22   10.33
  -2   9   8   27.89   11.47
   2  -9  -7   60.41   15.53
  -2   9   7   29.54   11.67
   2  -9  -6  -11.83    9.66
  -2   9   6    3.27   10.30
   2  -9  -5   10.22   11.10
  -2   9   5  -10.24   10.94
   2  -9  -4  265.42   44.85
  -2   9   4  196.91   34.26
   2  -9  -3   -3.04   13.04
  -2   9   3  -48.67   14.83
   2  -9  -2    7.85   14.16
  -2   9   2   16.94   12.75
   2  -9  -1   -7.37   12.47
  -2   9   1    6.09   13.99
   2  -9   0   31.95   15.18
  -2   9   0   29.19   17.25
   2  -9   1    7.44   13.19
  -2   9  -1   20.58   14.30
   2  -9   2   16.81   14.43
  -2   9  -2    7.48   14.03
   2  -9   3   18.49   14.85
   2  -9   4   -7.90   12.18
  -2   9  -4   -3.91   12.16
   2  -9   5   -9.09   10.44
  -2   9  -5    7.99   11.38
   2  -9   6   11.10   10.02
  -2   9  -6   -3.97   11.54
   2  -9   7   14.10   10.77
  -2   9  -7   29.37   11.56
   2  -9   8   -0.79    9.73
  -2   9  -8    0.00    9.55
   2  -9   9   15.40   10.92
  -2   9  -9  -11.65    9.31
   2  -9  10    6.86   10.02
  -2   9 -10   -1.65    9.60
   2  -9  11    6.95    9.13
  -2   9 -11   26.03    9.71
   1  -9 -11    0.84    9.62
  -1   9  11   15.36   10.02
   1  -9 -10   12.91   10.92
  -1   9  10    1.21   10.88
   1  -9  -9    6.24   10.59
  -1   9   9   26.56   11.89
   1  -9  -8    0.13    9.77
  -1   9   8   10.48   10.52
   1  -9  -7   30.73   12.07
  -1   9   7   35.32   11.87
   1  -9  -6   11.80    9.99
  -1   9   6   12.11   10.61
   1  -9  -5   10.77   11.16
  -1   9   5    2.78   10.39
   1  -9  -4   11.63   13.61
  -1   9   4  -13.55   10.61
   1  -9  -3   25.35   13.52
  -1   9   3   31.84   13.70
   1  -9  -2   -3.55   13.57
  -1   9   2    4.61   13.86
   1  -9  -1   48.63   15.78
  -1   9   1   45.12   15.75
   1  -9   0   27.91   15.53
  -1   9   0   45.38   16.64
   1  -9   1   80.02   19.77
  -1   9  -1   73.43   17.94
   1  -9   2  -28.79   15.42
  -1   9  -2   16.41   13.50
   1  -9   3  105.24   22.39
   1  -9   4   10.48   12.95
  -1   9  -4   -0.18   11.32
   1  -9   5   27.29   12.38
  -1   9  -5   -1.92   10.22
   1  -9   6    5.67   10.68
  -1   9  -6    3.88   10.39
   1  -9   7   73.60   16.41
  -1   9  -7   42.56   12.77
   1  -9   8   14.34   10.83
  -1   9  -8    1.26    9.60
   1  -9   9    3.82   10.17
  -1   9  -9   -4.06    9.49
   1  -9  10    5.63   10.61
  -1   9 -10   19.22   10.33
   1  -9  11   -2.29    9.05
  -1   9 -11   11.30    8.74
   0  -9 -11   83.20   17.30
   0   9  11   81.41   17.08
   0  -9 -10    2.65   10.52
   0   9  10   15.22   11.19
   0  -9  -9   14.85   10.97
   0   9   9  -18.97   11.16
   0  -9  -8   -7.77    9.93
   0   9   8    2.89   10.02
   0  -9  -7   46.00   13.86
   0   9   7   25.79   11.43
   0  -9  -6    4.99    9.91
   0   9   6   -1.94    9.86
   0  -9  -5   52.51   14.30
   0   9   5   39.69   12.69
   0  -9  -4    7.50   13.79
   0   9   4  -10.37   10.37
   0  -9  -3   -4.32   12.84
   0   9   3   15.89   12.77
   0  -9  -2   -2.49   13.52
   0   9   2   -3.55   13.46
   0  -9  -1  218.84   37.90
   0   9   1  142.75   27.01
   0  -9   0   -4.63   14.98
   0   9   0   11.14   15.36
   0  -9   1  170.17   31.13
   0   9  -1  174.54   31.09
   0  -9   2   26.17   16.02
   0   9  -2  -10.19   13.83
   0  -9   3   21.73   14.39
   0  -9   4    1.17   12.62
   0   9  -4  -20.81   11.98
   0  -9   5   37.53   12.86
   0   9  -5   17.92   10.61
   0  -9   6   -6.55   10.59
   0   9  -6  -17.47   10.22
   0  -9   7   61.51   14.96
   0   9  -7   26.59   10.52
   0  -9   8   -1.01   11.36
   0   9  -8    2.10    8.71
   0  -9   9    6.00   10.24
   0   9  -9    3.11    8.49
   0  -9  10    9.07   10.55
   0   9 -10   10.37    8.69
  -1  -9  -5   28.11   12.20
  -1  -9  -4    3.64   13.46
  -1  -9  -3   11.12   13.26
   1   9   3   25.86   13.19
  -1  -9  -2  -17.98   13.81
   1   9   2    3.24   13.17
  -1  -9  -1  123.99   24.60
   1   9   1   56.72   17.14
  -1  -9   0  -33.12   15.47
   1   9   0   12.88   14.52
  -1  -9   1  102.13   21.89
   1   9  -1   55.60   15.97
  -1  -9   2   32.54   15.47
   1   9  -2   -5.30   12.86
  -1  -9   3  223.94   38.85
  -1  -9   4   15.33   12.86
   1   9  -4    8.63   11.34
  -1  -9   5   30.07   12.69
   1   9  -5   64.25   15.27
  -1  -9   6   18.80   11.36
   1   9  -6   21.22   10.77
  -1  -9   8   -1.32   11.43
   1   9  -8   13.08    9.53
  -1  -9   9    8.98   10.39
   1   9  -9    0.90    8.67
  -1  -9  10    6.80   10.41
   1   9 -10   -1.28    8.43
  -1  -9  11   27.01   10.28
   1   9 -11    6.05    7.61
  -2  -9   9   24.38   10.81
  -2  -9  10   -4.17   10.66
  -2  -9  11   36.62   11.83
 -13  10   6  -14.19   13.48
 -13  10   5   75.92   21.00
 -13  10   4   66.43   18.86
  12 -10  -7   25.79   13.15
 -12  10   7   20.89   13.30
  12 -10  -6   14.36   15.31
 -12  10   6   26.41   14.91
  12 -10  -5   95.97   22.79
 -12  10   5   80.53   20.72
  12 -10  -4   58.03   18.29
 -12  10   4   41.37   16.94
  12 -10  -3    3.13   14.41
 -12  10   3   12.88   15.58
 -12  10   2  128.14   26.56
 -12  10   1   12.91   14.30
  11 -10  -7  -18.93   14.08
 -11  10   7   -8.12   13.28
  11 -10  -6  133.17   27.20
 -11  10   6   80.29   20.58
  11 -10  -5   31.40   15.00
 -11  10   5   -7.41   14.80
  11 -10  -4   21.18   14.78
 -11  10   4   27.67   15.86
  11 -10  -3   23.54   14.52
 -11  10   3    3.66   14.50
  11 -10  -2   18.33   12.86
 -11  10   2    4.26   13.33
  11 -10  -1   13.48   12.91
 -11  10   1   37.73   15.27
  11 -10   0   22.02   13.50
 -11  10   0    5.98   14.12
  11 -10   1    7.19   14.47
 -11  10  -1   23.12   14.14
 -11  10  -2   -6.84   12.31
 -11  10  -3   -5.27   12.18
  10 -10  -8   71.97   18.60
 -10  10   8   71.31   18.53
  10 -10  -7    8.34   14.01
 -10  10   7   -8.16   13.57
  10 -10  -6   50.00   17.17
 -10  10   6   38.32   15.97
  10 -10  -5   14.19   14.16
 -10  10   5   -0.93   13.13
  10 -10  -4    0.53   13.39
 -10  10   4   28.53   15.09
  10 -10  -3   22.46   13.39
 -10  10   3  -11.83   14.05
 -10  10   2   27.76   15.07
  10 -10  -1   -0.64   13.86
 -10  10   1   -1.74   12.86
  10 -10   0  506.13   82.03
 -10  10   0  475.02   77.46
  10 -10   1    0.18   12.75
 -10  10  -1   13.37   11.72
  10 -10   2    9.69   12.80
 -10  10  -2   12.31   11.87
  10 -10   3    6.05   13.33
 -10  10  -3   23.45   13.48
  10 -10   4  -25.79   14.16
  10 -10   5  -21.38   11.98
 -10  10  -5    2.89   11.74
 -10  10  -6   36.80   13.61
 -10  10  -7   -6.71   11.16
   9 -10  -9    1.37   13.86
  -9  10   9   17.89   12.31
   9 -10  -8   92.18   21.40
  -9  10   8  102.28   22.17
   9 -10  -7   33.09   15.29
  -9  10   7   -9.75   13.44
   9 -10  -6   18.11   14.36
  -9  10   6   -1.99   13.30
   9 -10  -5   -7.83   13.04
  -9  10   5   -0.31   13.02
   9 -10  -4   39.27   16.26
  -9  10   4   20.83   13.72
   9 -10  -3   18.73   12.53
  -9  10   3   -2.10   13.64
  -9  10   2   21.07   14.21
   9 -10  -1   -0.90   12.58
  -9  10   1   -9.53   12.25
   9 -10   0   14.19   14.08
  -9  10   0    9.20   13.39
   9 -10   1  -13.68   13.41
  -9  10  -1  -10.37   11.19
   9 -10   2   14.36   12.97
  -9  10  -2    5.87   10.48
   9 -10   3  -23.92   12.64
  -9  10  -3   -1.96   12.62
   9 -10   4   65.75   17.83
   9 -10   5   -9.91   13.00
  -9  10  -5   -7.88   11.76
   9 -10   6   20.45   13.66
  -9  10  -6   29.30   13.33
   9 -10   7   15.36   14.12
  -9  10  -7   23.48   13.02
   9 -10   8   60.65   16.22
  -9  10  -8   79.89   19.46
  -9  10  -9    5.25   10.02
   8 -10  -9   25.55   14.23
  -8  10   9    9.42   11.56
   8 -10  -8  120.86   24.78
  -8  10   8   71.26   17.63
   8 -10  -7   16.50   13.52
  -8  10   7    6.60   12.49
   8 -10  -6  370.88   61.53
  -8  10   6  254.83   43.66
   8 -10  -5   87.90   19.99
  -8  10   5   66.92   17.32
   8 -10  -4  352.57   58.25
  -8  10   4  352.35   58.56
   8 -10  -3   -5.85   12.11
  -8  10   3    5.63   12.88
  -8  10   2   69.65   18.58
   8 -10  -1   29.79   14.12
  -8  10   1   39.56   14.83
   8 -10   0   33.03   14.10
  -8  10   0   26.01   14.69
   8 -10   1   24.18   13.46
  -8  10  -1   42.07   13.81
   8 -10   2   30.93   15.42
  -8  10  -2   32.85   12.75
   8 -10   3   21.34   13.02
  -8  10  -3    8.63   11.78
   8 -10   4  357.86   59.15
  -8  10  -4  315.28   52.20
   8 -10   5   78.13   18.73
  -8  10  -5   47.79   14.25
   8 -10   6  290.13   48.96
  -8  10  -6  394.49   64.42
   8 -10   7    4.85   12.91
  -8  10  -7   -3.02   12.00
   8 -10   8  103.54   21.80
  -8  10  -8   95.20   20.56
   8 -10   9   -2.74   11.56
  -8  10  -9   -3.27    9.88
   7 -10  -9   11.76   11.94
  -7  10   9    7.96   11.49
   7 -10  -8   24.49   15.91
  -7  10   8   17.56   12.60
   7 -10  -7   17.30   13.26
  -7  10   7   26.34   12.16
   7 -10  -6   24.45   14.34
  -7  10   6   59.22   18.80
   7 -10  -5   -9.64   13.06
  -7  10   5   15.18   11.43
   7 -10  -4    1.99   13.00
  -7  10   4   27.56   13.30
   7 -10  -3   55.47   15.89
  -7  10   3   59.46   16.94
  -7  10   2  -17.19   14.03
   7 -10  -1   -9.05   12.93
  -7  10   1    4.24   12.44
   7 -10   0   -4.99   12.36
  -7  10   0  -10.90   13.37
   7 -10   1    1.19   12.55
  -7  10  -1   25.50   15.27
   7 -10   2    6.71   13.66
  -7  10  -2   -4.19   14.34
   7 -10   3   53.35   16.04
  -7  10  -3   39.32   13.57
   7 -10   4  271.38   45.85
  -7  10  -4  375.96   62.20
   7 -10   5   -8.58   12.18
  -7  10  -5   -2.36   10.77
   7 -10   6   10.28   12.71
  -7  10  -6   15.05   10.83
   7 -10   7   69.12   17.36
  -7  10  -7   55.82   15.16
   7 -10   8   24.07   12.95
  -7  10  -8   -1.21   11.36
   7 -10   9   40.33   14.78
  -7  10  -9   14.87   10.66
   6 -10 -10   27.84   12.36
  -6  10  10   40.11   14.08
   6 -10  -9   47.50   15.07
  -6  10   9   87.06   19.37
   6 -10  -8    1.24   11.87
  -6  10   8    3.97   11.94
   6 -10  -7    4.24   11.87
  -6  10   7   16.08   11.91
   6 -10  -6   12.42   10.90
  -6  10   6  -14.39   10.97
   6 -10  -5    5.74   11.34
  -6  10   5   23.96   11.98
   6 -10  -4    5.80   11.91
  -6  10   4   39.82   14.16
   6 -10  -3   -0.04   10.99
  -6  10   3   16.15   13.15
   6 -10  -2   -0.71    9.00
  -6  10   2  -17.89   12.66
   6 -10  -1    5.32   13.11
  -6  10   1    7.77   12.33
   6 -10   0  197.29   34.97
  -6  10   0  229.02   40.00
   6 -10   1   -1.46   12.58
  -6  10  -1   12.25   16.77
   6 -10   2   13.66   13.90
  -6  10  -2   -0.62   13.57
   6 -10   3   -8.27   12.58
  -6  10  -3   -5.85   14.76
   6 -10   4   13.66   11.69
  -6  10  -4    5.30   14.19
   6 -10   5   51.83   15.11
  -6  10  -5   23.32   15.58
   6 -10   6  -14.65   13.17
  -6  10  -6   -3.71   12.25
   6 -10   7   12.00   13.15
  -6  10  -7   21.82   11.45
   6 -10   8    5.71   11.76
  -6  10  -8    1.30   10.39
   6 -10   9   58.45   16.19
  -6  10  -9   81.59   17.72
   6 -10  10   -6.35   11.96
  -6  10 -10   14.65   10.06
   5 -10 -10    3.99   10.52
  -5  10  10   -5.25   11.43
   5 -10  -9  295.65   49.31
  -5  10   9  307.78   51.25
   5 -10  -8   10.48   12.05
  -5  10   8  -11.23   11.65
   5 -10  -7   73.45   17.19
  -5  10   7   43.05   13.75
   5 -10  -6    7.15   10.77
  -5  10   6   23.48   11.80
   5 -10  -5   -0.38    9.82
  -5  10   5    0.55   11.19
   5 -10  -4   14.47   11.83
  -5  10   4   14.10   12.69
   5 -10  -3  121.41   23.50
  -5  10   3   75.19   18.60
   5 -10  -2   -1.21   10.55
  -5  10   2   21.89   13.04
   5 -10  -1  413.24   67.07
  -5  10   1  377.50   62.24
   5 -10   0    1.70   12.40
  -5  10   0   21.36   16.99
   5 -10   1  369.12   60.36
  -5  10  -1  308.44   51.69
   5 -10   2    7.17   11.63
  -5  10  -2   31.73   14.03
   5 -10   3   99.24   21.27
  -5  10  -3   89.64   20.19
   5 -10   4    1.08   12.80
  -5  10  -4    4.79   12.20
   5 -10   5   15.93   12.07
  -5  10  -5  -18.14   12.31
   5 -10   6   11.87   12.53
  -5  10  -6  -33.87   14.12
   5 -10   7   41.92   15.05
  -5  10  -7    8.94   11.96
   5 -10   8  -17.52   12.55
  -5  10  -8   16.11   10.92
   5 -10   9  353.01   57.87
  -5  10  -9  313.74   51.54
   5 -10  10   10.90   11.52
  -5  10 -10    6.20    9.66
   4 -10 -10   11.45   11.45
  -4  10  10   -3.62   11.63
   4 -10  -9  134.85   25.84
  -4  10   9   96.75   20.52
   4 -10  -8    5.56   11.63
  -4  10   8  -16.79   12.75
   4 -10  -7    4.41   10.97
  -4  10   7   26.17   12.42
   4 -10  -6   -4.88   10.28
  -4  10   6   18.97   11.12
   4 -10  -5  103.15   20.36
  -4  10   5  111.18   22.17
   4 -10  -4   25.09   11.91
  -4  10   4    3.09   11.91
   4 -10  -3   49.66   14.58
  -4  10   3   58.14   16.35
   4 -10  -2   34.04   14.50
  -4  10   2   98.89   21.16
   4 -10  -1   19.92   12.13
  -4  10   1   -1.90   12.91
   4 -10   0   20.06   13.79
  -4  10   0   15.89   15.97
   4 -10   1   18.56   12.20
  -4  10  -1   13.64   14.25
   4 -10   2   -8.41   12.05
  -4  10  -2   25.39   14.78
   4 -10   3   32.94   14.63
  -4  10  -3   70.29   17.58
   4 -10   5  133.66   25.13
  -4  10  -5   89.20   19.06
   4 -10   6   -1.57   11.36
  -4  10  -6   16.50   12.13
   4 -10   7   33.23   12.09
  -4  10  -7   25.75   11.05
   4 -10   8   -1.04   11.01
  -4  10  -8    0.04   11.05
   4 -10   9   67.54   16.72
  -4  10  -9  107.49   21.07
   4 -10  10   -1.74   10.48
  -4  10 -10    2.27    9.58
   3 -10 -10    0.42   10.37
  -3  10  10   28.35   11.76
   3 -10  -9   21.27   12.62
  -3  10   9   19.00   11.61
   3 -10  -8  -10.26   12.27
  -3  10   8   21.91   14.14
   3 -10  -7   72.72   16.66
  -3  10   7   61.09   15.80
   3 -10  -5  116.12   22.33
  -3  10   5  140.12   26.10
   3 -10  -4  112.04   22.24
  -3  10   4  115.17   22.68
   3 -10  -3  731.39  116.23
  -3  10   3  641.82  102.62
   3 -10  -2    2.78   13.13
  -3  10   2    7.66   12.53
   3 -10  -1   70.58   17.14
  -3  10   1   94.85   20.78
   3 -10   0  -12.69   12.49
  -3  10   0   -9.35   14.32
   3 -10   1   56.08   16.41
  -3  10  -1   60.96   16.79
   3 -10   2   -4.83   12.53
  -3  10  -2   17.80   13.72
   3 -10   3  589.08   94.25
  -3  10  -3  549.81   88.08
   3 -10   4   69.87   17.08
  -3  10  -4   50.88   14.61
   3 -10   5  105.29   20.63
  -3  10  -5  147.54   26.96
   3 -10   6    2.56   10.83
  -3  10  -6   17.52   11.56
   3 -10   7   50.44   13.57
  -3  10  -7   55.51   13.77
   3 -10   8    2.91   10.97
  -3  10  -8    2.52   11.03
   3 -10   9   11.21   11.25
  -3  10  -9   23.21   11.83
   3 -10  10   -0.99   11.27
  -3  10 -10    0.38    9.53
   2 -10 -10   38.21   12.73
  -2  10  10   21.73   11.34
   2 -10  -9   24.40   12.60
  -2  10   9   27.47   13.02
   2 -10  -8   16.22   11.89
  -2  10   8   -3.71   11.25
   2 -10  -7   13.88   10.70
  -2  10   7   18.49   10.81
   2 -10  -6   26.10   11.83
  -2  10   6   35.59   12.31
   2 -10  -5   32.54   13.37
  -2  10   5   36.54   12.86
   2 -10  -4   78.04   18.53
  -2  10   4   80.64   17.98
   2 -10  -3   12.20   13.83
  -2  10   3   29.28   13.77
   2 -10  -2   53.08   16.81
  -2  10   2   92.64   20.78
   2 -10  -1   12.60   12.31
  -2  10   1    0.57   13.08
   2 -10   0  278.88   46.91
  -2  10   0  282.85   47.94
   2 -10   1   53.72   16.37
  -2  10  -1    7.24   12.97
   2 -10   2   33.82   14.85
  -2  10  -2   31.77   16.02
   2 -10   3   21.14   13.59
   2 -10   4   79.47   18.60
  -2  10  -4   51.41   15.62
   2 -10   5   36.56   12.13
  -2  10  -5   24.56   12.25
   2 -10   6    8.69   10.50
  -2  10  -6   19.13   11.38
   2 -10   7   21.78   10.66
  -2  10  -7   22.84   10.94
   2 -10   8    0.00   10.13
  -2  10  -8    0.26    9.97
   2 -10   9   58.64   15.16
  -2  10  -9   31.99   12.58
   2 -10  10   29.63   12.69
  -2  10 -10   25.75   10.90
   1 -10  -9   46.07   14.36
  -1  10   9   41.61   13.79
   1 -10  -8  297.63   49.40
  -1  10   8  296.31   49.16
   1 -10  -7   15.18   10.79
  -1  10   7    0.82    9.77
   1 -10  -6   76.16   17.01
  -1  10   6   78.77   17.32
   1 -10  -5   37.90   13.88
  -1  10   5   46.38   13.55
   1 -10  -4   -4.57   12.53
  -1  10   4   13.24   11.94
   1 -10  -3   44.06   15.62
  -1  10   3   24.38   13.68
   1 -10  -2   22.95   13.61
  -1  10   2   24.95   12.80
   1 -10  -1  181.40   32.48
  -1  10   1  142.44   27.25
   1 -10   0   13.46   14.56
  -1  10   0   22.70   14.56
   1 -10   1  150.54   28.68
  -1  10  -1  186.28   33.20
   1 -10   2  126.42   25.24
  -1  10  -2  128.21   25.33
   1 -10   3   57.63   16.99
   1 -10   4    9.24   12.31
  -1  10  -4   20.85   12.13
   1 -10   5   38.17   12.62
  -1  10  -5   65.20   15.40
   1 -10   6   47.59   13.66
  -1  10  -6   70.40   15.64
   1 -10   7   -7.35   10.24
  -1  10  -7   -5.49    8.34
   1 -10   8  323.45   52.73
  -1  10  -8  398.90   64.14
   1 -10   9   38.30   12.55
  -1  10  -9   16.59   12.02
   0 -10 -10   42.03   13.83
   0  10  10   26.01   12.16
   0 -10  -9   -7.37   11.76
   0  10   9   -8.16   11.63
   0 -10  -8  204.90   35.39
   0  10   8  134.76   25.31
   0 -10  -7   -3.53   10.55
   0  10   7  -17.69   10.17
   0 -10  -6  147.07   26.76
   0  10   6  232.10   39.27
   0 -10  -5    9.24   11.96
   0  10   5    5.49   10.99
   0 -10  -4  263.65   44.66
   0  10   4  266.74   44.83
   0 -10  -3   -4.99   13.92
   0  10   3  -21.45   12.97
   0 -10  -2  814.13  129.22
   0  10   2 1094.55  172.69
   0 -10  -1    6.00   13.30
   0  10   1  -20.70   13.00
   0 -10   0 4011.07  627.25
   0  10   0 3333.74  521.57
   0 -10   1  -23.78   14.78
   0  10  -1   -2.45   12.13
   0 -10   2  886.05  140.39
   0  10  -2 1304.15  205.34
   0 -10   3  -34.13   15.84
   0 -10   4  186.23   32.85
   0  10  -4  210.53   36.32
   0 -10   5    5.41   10.66
   0  10  -5   -5.41   10.94
   0 -10   6  199.85   34.33
   0  10  -6  164.79   28.95
   0 -10   7    4.63    9.82
   0  10  -7    7.81    9.13
   0 -10   8  145.04   26.06
   0  10  -8  167.59   28.81
   0 -10   9   11.74   10.83
   0  10  -9   19.04   10.26
   0 -10  10   43.91   13.81
   0  10 -10   19.99    9.49
  -1 -10  -9   25.02   13.46
  -1 -10  -8  386.33   63.08
  -1 -10  -7  -10.44   11.05
  -1 -10  -6   79.80   17.69
  -1 -10  -5   41.70   14.19
  -1 -10  -4   11.74   13.00
   1  10   4    8.54   11.58
  -1 -10  -3   38.39   15.84
   1  10   3   24.98   14.58
  -1 -10  -2   60.25   17.01
   1  10   2   44.94   14.54
  -1 -10   0   23.08   14.80
   1  10   0   18.60   14.54
  -1 -10   1  161.81   30.54
   1  10  -1  220.17   38.28
  -1 -10   2   34.66   14.83
   1  10  -2   15.49   13.64
  -1 -10   3   65.64   17.80
  -1 -10   4   -4.59   11.49
   1  10  -4   33.43   13.46
  -1 -10   5   35.96   12.66
   1  10  -5   36.96   12.58
  -1 -10   6   70.43   16.39
   1  10  -6   36.67   12.25
  -1 -10   7    0.00    9.97
   1  10  -7  -10.39    9.05
  -1 -10   8  320.14   52.27
   1  10  -8  285.94   46.75
  -1 -10   9   21.86   11.49
   1  10  -9   17.19   10.10
  -1 -10  10   99.06   20.21
   1  10 -10   87.13   17.14
  -2 -10   7   20.67   10.35
  -2 -10   8   15.00   10.57
  -2 -10   9   28.48   12.33
  -2 -10  10   40.42   13.70
 -14  11   4  -21.51   14.65
  13 -11  -5   12.02   15.00
 -13  11   5   11.89   15.36
  13 -11  -4   27.51   15.49
 -13  11   4   29.10   15.09
  13 -11  -3   -1.19   13.19
 -13  11   3  -23.76   15.16
  13 -11  -2   45.34   17.72
 -13  11   2   61.93   19.17
 -13  11   1   15.09   15.97
 -13  11   0   31.86   16.24
  12 -11  -6   12.31   13.83
 -12  11   6    1.21   13.57
  12 -11  -5    2.80   13.92
 -12  11   5   -0.35   14.45
  12 -11  -4   16.53   16.06
 -12  11   4   29.79   16.28
  12 -11  -3    9.13   14.67
 -12  11   3   15.82   16.48
  12 -11  -2   60.25   19.15
 -12  11   2    0.66   15.47
  12 -11  -1  -14.87   14.30
 -12  11   1  -18.31   14.85
  12 -11   0  -10.39   14.76
 -12  11   0    8.16   15.20
  12 -11   1  -16.48   15.64
 -12  11  -1  -20.28   14.61
  12 -11   2   -2.49   14.80
 -12  11  -2    9.80   13.99
 -12  11  -3   13.41   13.44
  11 -11  -7   -0.49   12.33
 -11  11   7   27.69   14.03
  11 -11  -6  -15.93   15.40
 -11  11   6   -1.21   15.14
  11 -11  -5   18.73   15.05
 -11  11   5   12.20   14.85
  11 -11  -4   16.66   15.02
 -11  11   4   19.68   16.28
  11 -11  -3  -29.52   14.96
 -11  11   3  -26.72   14.41
  11 -11  -2   -3.29   12.47
 -11  11   2   16.08   14.98
  11 -11  -1   19.19   14.78
 -11  11   1   -3.29   14.47
  11 -11   0   -9.88   13.72
 -11  11   0    0.33   13.68
  11 -11   1    3.82   14.01
 -11  11  -1   10.90   13.61
  11 -11   2   29.81   15.64
 -11  11  -2    3.55   13.24
  11 -11   3   -4.68   14.03
 -11  11  -3    0.90   12.29
  11 -11   4   21.56   14.34
  11 -11   5   43.00   16.88
 -11  11  -5   11.49   13.26
 -11  11  -6   -6.84   11.91
 -11  11  -7    5.91   10.90
  10 -11  -7    2.12   14.14
 -10  11   7   12.88   13.15
  10 -11  -6   17.36   15.40
 -10  11   6    9.71   13.68
  10 -11  -5   11.69   13.52
 -10  11   5   -0.46   14.74
  10 -11  -4    6.60   13.94
 -10  11   4   13.79   14.74
  10 -11  -3   20.94   14.87
 -10  11   3   -7.72   15.20
 -10  11   2  -16.04   13.92
  10 -11  -1   35.57   14.91
 -10  11   1   35.15   14.80
  10 -11   0   -3.57   13.64
 -10  11   0   -4.19   14.12
  10 -11   1   -9.71   14.67
 -10  11  -1    8.16   13.13
  10 -11   2   11.58   13.68
 -10  11  -2   -2.52   11.52
  10 -11   3    5.36   13.79
 -10  11  -3    6.97   12.88
  10 -11   4   -9.64   13.86
  10 -11   5    7.26   14.14
 -10  11  -5    0.40   10.88
  10 -11   6   16.04   14.16
 -10  11  -6    8.03   12.27
  10 -11   7   -5.41   13.35
 -10  11  -7    2.07   10.72
 -10  11  -8   -5.76   11.45
   9 -11  -8  -12.91   13.00
  -9  11   8   12.84   13.66
   9 -11  -7    8.91   14.83
  -9  11   7   -1.61   13.11
   9 -11  -6    9.66   14.19
  -9  11   6   -6.66   14.52
   9 -11  -5   29.06   14.16
  -9  11   5   12.71   13.90
   9 -11  -4   10.15   13.99
  -9  11   4   32.63   14.78
   9 -11  -3   -6.66   12.53
  -9  11   3    2.78   13.19
  -9  11   2   10.06   13.72
   9 -11  -1   10.63   14.32
  -9  11   1    3.64   13.00
   9 -11   0   20.17   12.53
  -9  11   0   -4.68   12.97
   9 -11   1   -0.73   12.75
  -9  11  -1    5.23   12.22
   9 -11   2   24.25   13.90
  -9  11  -2    8.74   11.67
   9 -11   3   -4.41   13.26
  -9  11  -3   -4.68   12.22
   9 -11   4   28.77   14.30
   9 -11   5   22.57   13.99
  -9  11  -5   52.53   15.44
   9 -11   6    7.04   15.29
  -9  11  -6   12.58   11.54
   9 -11   7    6.44   12.86
  -9  11  -7   -0.90   11.41
   9 -11   8   -5.36   13.30
  -9  11  -8   -0.75   11.67
   8 -11  -8   11.52   13.17
  -8  11   8    8.91   15.20
   8 -11  -7   20.10   14.52
  -8  11   7   12.58   13.30
   8 -11  -6    0.55   13.13
  -8  11   6  -15.89   13.52
   8 -11  -5    7.04   12.75
  -8  11   5   18.00   12.05
   8 -11  -4   -8.74   14.16
  -8  11   4  -15.73   12.51
   8 -11  -3    4.30   11.94
  -8  11   3   11.41   13.13
  -8  11   2  -16.83   12.77
   8 -11  -1   30.95   13.94
  -8  11   1   26.01   13.39
   8 -11   0    5.98   12.53
  -8  11   0    9.42   12.88
   8 -11   1   18.44   13.97
  -8  11  -1    9.44   11.43
   8 -11   2   -1.63   12.84
  -8  11  -2   -1.52   10.24
   8 -11   3  -17.85   12.80
  -8  11  -3   20.89   12.55
   8 -11   4   14.21   13.44
  -8  11  -4   -5.43   11.30
   8 -11   5   11.27   13.88
  -8  11  -5   25.46   13.15
   8 -11   6   22.28   13.52
  -8  11  -6   13.33   11.83
   8 -11   7    1.32   13.97
  -8  11  -7   -1.83   11.58
   8 -11   8    2.12   11.21
  -8  11  -8   -9.95   12.49
  -8  11  -9   -4.15   11.12
   7 -11  -9   -1.90   12.53
  -7  11   9  -19.70   10.94
   7 -11  -8    4.99   12.36
  -7  11   8   22.66   13.28
   7 -11  -7  -14.72   11.98
  -7  11   7    6.46   13.02
   7 -11  -6    5.12   11.67
  -7  11   6    8.45   12.47
   7 -11  -5   14.32   12.31
  -7  11   5  -12.11   12.42
   7 -11  -4  -15.91   12.49
  -7  11   4   16.19   12.62
   7 -11  -3   10.90   11.78
  -7  11   3    4.61   12.18
  -7  11   2   13.66   13.61
   7 -11  -1   16.70   14.45
  -7  11   1   12.40   12.40
   7 -11   0  -14.34   12.88
  -7  11   0  -33.49   13.81
   7 -11   1   17.76   13.17
  -7  11  -1    5.03   11.47
   7 -11   2  -11.78   13.13
  -7  11  -2   24.75   12.51
   7 -11   3   -7.04   12.75
  -7  11  -3   -5.36   11.67
   7 -11   4   16.46   13.15
  -7  11  -4   12.02   11.87
   7 -11   5  -10.83   13.75
  -7  11  -5   23.03   12.00
   7 -11   6    4.61   13.02
  -7  11  -6    6.35   12.05
   7 -11   7   14.52   13.46
  -7  11  -7    1.81   12.09
   7 -11   8   12.49   12.77
  -7  11  -8   25.90   13.04
   7 -11   9   -0.79   11.56
  -7  11  -9   23.36   10.39
   6 -11  -9   24.29   12.86
  -6  11   9    8.91   11.36
   6 -11  -8   17.69   13.15
  -6  11   8    7.59   11.67
   6 -11  -7  -19.02   12.31
  -6  11   7   -2.05   11.87
   6 -11  -6   12.66   12.42
  -6  11   6    9.69   12.29
   6 -11  -5   14.21   12.02
  -6  11   5   11.94   11.98
   6 -11  -3   -6.35   10.08
  -6  11   3   23.39   12.80
   6 -11  -2   29.04   11.03
  -6  11   2    9.16   13.50
   6 -11  -1   34.99   13.22
  -6  11   1   22.15   13.24
   6 -11   0    6.66   11.23
  -6  11   0   29.17   14.08
   6 -11   1   14.74   12.49
  -6  11  -1    3.91   10.50
   6 -11   2   34.37   15.60
  -6  11  -2   35.46   12.64
   6 -11   3   15.36   12.88
  -6  11  -3   -9.38   11.10
   6 -11   4   27.09   13.35
  -6  11  -4    5.91   10.48
   6 -11   5    9.05   13.59
  -6  11  -5   -1.99   10.33
   6 -11   6   11.27   12.82
  -6  11  -6   13.22   10.77
   6 -11   7    5.74   13.02
  -6  11  -7   -0.29   11.78
   6 -11   8   41.37   14.47
  -6  11  -8   23.98   12.18
   6 -11   9    4.39   12.29
  -6  11  -9   -0.18   10.37
   5 -11  -9    7.96   11.65
  -5  11   9   -2.60   11.01
   5 -11  -8   25.97   13.28
  -5  11   8   33.16   13.37
   5 -11  -7    7.55   11.72
  -5  11   7    3.09   11.63
   5 -11  -6   28.11   12.95
  -5  11   6    6.35   12.11
   5 -11  -5    1.59   11.52
  -5  11   5   -2.69   10.44
   5 -11  -4   32.15   12.88
  -5  11   4   55.20   15.44
   5 -11  -3   -5.16   10.30
  -5  11   3   14.36   12.91
   5 -11  -2    2.54   10.63
  -5  11   2   11.98   12.64
   5 -11  -1   -1.52   11.32
  -5  11   1    0.02   12.88
   5 -11   0   -8.01   11.89
  -5  11   0   21.25   13.77
   5 -11   1  -18.00   11.54
  -5  11  -1    8.38   13.15
   5 -11   2   31.68   13.26
  -5  11  -2   44.50   15.38
   5 -11   3  -13.64   12.18
  -5  11  -3  -14.80   13.72
   5 -11   4   18.73   12.20
  -5  11  -4   10.57   13.06
   5 -11   5   -7.92   12.00
  -5  11  -5    0.79   11.23
   5 -11   6   -4.10   12.07
  -5  11  -6   -1.85    9.44
   5 -11   7    4.59   13.02
  -5  11  -7   -0.18   10.63
   5 -11   8    7.13   11.78
  -5  11  -8   18.16   12.29
   5 -11   9    1.10   12.13
  -5  11  -9  -11.98   10.57
   4 -11 -10   -7.26   10.66
  -4  11  10   18.49   12.07
   4 -11  -9    8.87   12.25
  -4  11   9   29.48   12.44
   4 -11  -8   44.63   14.41
  -4  11   8   47.13   15.27
   4 -11  -7    2.49   11.56
  -4  11   7   -3.33   11.74
   4 -11  -6   10.17   11.30
  -4  11   6   -4.43   11.98
   4 -11  -5   58.53   16.04
  -4  11   5   46.11   14.54
   4 -11  -4    3.29   11.27
  -4  11   4    2.32   12.20
   4 -11  -3   -1.79   10.81
  -4  11   3    6.99   13.33
   4 -11  -2   18.64   11.94
  -4  11   2   34.04   13.94
   4 -11  -1  -13.61   12.09
  -4  11   1  -19.48   12.55
   4 -11   0   29.56   12.91
  -4  11   0   35.70   14.89
   4 -11   1    5.14   11.85
  -4  11  -1   12.44   14.34
   4 -11   2   -2.29   12.49
  -4  11  -2   24.11   13.35
   4 -11   3  -13.66   12.88
  -4  11  -3  -18.60   13.33
   4 -11   4   -0.79   10.17
  -4  11  -4    7.50   12.71
   4 -11   5   -8.67   11.63
  -4  11  -5  -15.20   12.86
   4 -11   6    7.61   11.65
  -4  11  -6   13.59   11.76
   4 -11   7   -6.40   11.96
  -4  11  -7  -10.94   11.08
   4 -11   8   43.44   15.00
  -4  11  -8   11.61   14.16
   4 -11   9   12.51   11.61
  -4  11  -9    2.89   10.52
   4 -11  10   -2.05   11.27
  -4  11 -10    7.44    8.94
   3 -11 -10    2.54   10.63
  -3  11  10    3.68   11.25
  -3  11   9    1.57   10.61
   3 -11  -8   17.52   12.29
  -3  11   8   20.43   12.13
   3 -11  -7    6.86   11.67
  -3  11   7   17.14   11.12
   3 -11  -6   22.00   13.35
  -3  11   6  -10.19   13.26
   3 -11  -5   24.05   11.65
  -3  11   5   22.90   12.00
   3 -11  -4   28.92   12.60
  -3  11   4   12.82   13.22
   3 -11  -3    4.08   11.12
  -3  11   3  -14.36   12.88
   3 -11  -2   40.99   13.64
  -3  11   2   35.04   14.32
   3 -11  -1  -10.13   12.20
  -3  11   1   -4.63   14.03
   3 -11   0   -4.26   12.51
  -3  11   0  -14.43   16.57
   3 -11   1  -18.71   13.13
  -3  11  -1    6.13   14.45
   3 -11   2   33.60   14.32
  -3  11  -2   43.24   15.05
   3 -11   3    9.27   12.62
  -3  11  -3    5.69   11.52
   3 -11   4   18.89   12.42
  -3  11  -4    4.50   12.80
   3 -11   5   10.19   11.19
  -3  11  -5  -18.03   12.42
   3 -11   6   58.53   15.62
  -3  11  -6   24.45   12.71
   3 -11   7    1.13   10.97
  -3  11  -7    5.34   10.72
   3 -11   8   -0.93   12.33
  -3  11  -8   21.27   12.11
   3 -11   9   22.55   12.31
  -3  11  -9   16.04   11.01
   3 -11  10    3.44   10.55
  -3  11 -10   11.10   10.08
   2 -11 -10    4.77   11.30
  -2  11  10    4.39   11.43
   2 -11  -9   18.86   12.29
  -2  11   9   -1.41   10.74
   2 -11  -8   -9.91   11.16
  -2  11   8    2.43   11.61
   2 -11  -7  -10.59   11.08
  -2  11   7    6.07   10.99
   2 -11  -6   11.63   11.76
  -2  11   6   -5.23   10.81
   2 -11  -5  -16.99   11.21
  -2  11   5    2.71   10.70
   2 -11  -4    7.28   11.25
  -2  11   4  -10.08   12.09
   2 -11  -3  264.76   44.59
  -2  11   3  353.45   58.09
   2 -11  -2    6.16   13.00
  -2  11   2    3.29   12.44
   2 -11  -1   37.51   13.83
  -2  11   1   17.08   13.48
   2 -11   0   36.12   15.64
  -2  11   0   -8.60   15.78
   2 -11   1   22.88   12.64
  -2  11  -1   26.14   13.57
   2 -11   2  -23.52   12.49
  -2  11  -2    6.18   13.17
   2 -11   3  107.49   22.46
   2 -11   4   18.31   12.53
  -2  11  -4    9.86   12.55
   2 -11   5   10.04   11.25
  -2  11  -5   26.34   12.86
   2 -11   6   -2.54   11.12
  -2  11  -6    0.31   11.69
   2 -11   7   -3.79   10.90
  -2  11  -7   -7.70   10.39
   2 -11   8   16.39   12.53
  -2  11  -8   11.52   11.12
   2 -11   9   32.06   12.36
  -2  11  -9   -1.26   10.26
   2 -11  10   10.37   10.63
  -2  11 -10   11.43   10.33
   1 -11 -10   17.65   12.18
  -1  11  10   41.90   14.56
   1 -11  -9    3.68   11.91
  -1  11   9    7.92   11.16
   1 -11  -8    8.19   11.67
  -1  11   8    4.68   11.91
   1 -11  -7   32.54   12.91
  -1  11   7   19.97   11.69
   1 -11  -6   21.05   12.27
  -1  11   6    3.42   10.90
   1 -11  -5   34.88   12.95
  -1  11   5   13.37   11.08
   1 -11  -4   24.07   12.38
  -1  11   4   20.61   12.95
   1 -11  -3   16.88   12.38
  -1  11   3   15.89   12.73
   1 -11  -2   29.12   14.16
  -1  11   2   25.44   13.70
   1 -11  -1    5.47   12.38
  -1  11   1   11.14   12.44
   1 -11   0  148.62   29.37
  -1  11   0  185.66   34.99
   1 -11   1   79.23   18.64
  -1  11  -1   73.76   18.62
   1 -11   2    6.99   12.95
  -1  11  -2    9.77   12.16
   1 -11   3   33.62   14.67
   1 -11   4   57.56   16.04
  -1  11  -4   33.47   12.84
   1 -11   5   53.39   14.98
  -1  11  -5   19.26   11.63
   1 -11   6   -1.79   11.61
  -1  11  -6   26.03   11.80
   1 -11   7   15.60   11.38
  -1  11  -7   19.06    9.91
   1 -11   8   27.91   13.61
  -1  11  -8    9.13   10.10
   1 -11   9   27.84   12.58
  -1  11  -9   15.82    9.82
   1 -11  10    6.86   10.50
  -1  11 -10    5.52    9.33
   0 -11 -10    0.04   11.65
   0  11  10   16.30   12.16
   0 -11  -9   -9.91   11.89
   0  11   9   10.41   11.76
   0 -11  -8   30.40   13.08
   0  11   8   -2.23   11.87
   0 -11  -7   64.16   16.17
   0  11   7   90.26   19.24
   0 -11  -6    5.96   11.69
   0  11   6   -3.91   10.74
   0 -11  -5   44.77   13.99
   0  11   5   61.53   15.29
   0 -11  -4   -9.11   11.08
   0  11   4  -22.95   12.77
   0 -11  -3  260.57   43.99
   0  11   3  299.40   50.00
   0 -11  -2    9.82   13.13
   0  11   2    5.27   12.84
   0 -11  -1  231.00   39.54
   0  11   1  186.35   33.32
   0 -11   0  -15.42   14.54
   0  11   0  -15.66   16.77
   0 -11   1  206.86   36.14
   0  11  -1  182.02   32.81
   0 -11   2   21.78   13.28
   0  11  -2   -6.07   12.22
   0 -11   3  361.39   59.90
   0 -11   4   25.75   13.59
   0  11  -4   24.69   12.11
   0 -11   5   36.10   13.15
   0  11  -5   38.59   13.22
   0 -11   6   -3.93   10.97
   0  11  -6   -4.15   10.68
   0 -11   7   28.99   12.64
   0  11  -7   61.53   13.99
   0 -11   8   -6.11   11.49
   0  11  -8   10.50   10.02
   0 -11   9    5.01   11.25
   0  11  -9   22.53   10.30
   0 -11  10  -19.50   11.05
   0  11 -10   -2.36    9.35
  -1 -11 -10  -12.51   11.76
  -1 -11  -9   17.14   12.29
  -1 -11  -8   14.01   12.02
  -1 -11  -7   35.28   13.28
  -1 -11  -6  -16.30   12.13
   1  11   6   -8.58   11.10
  -1 -11  -5   -3.53   11.21
   1  11   5   26.23   12.16
  -1 -11  -4    5.01   11.54
   1  11   4   12.13   12.53
  -1 -11  -3   26.72   12.86
   1  11   3    0.95   12.07
  -1 -11  -2    7.32   13.24
   1  11   2   50.86   15.97
  -1 -11  -1   27.82   13.46
   1  11   1   -1.15   13.22
  -1 -11   0  -51.23   17.21
   1  11   0  -48.14   18.73
  -1 -11   1   17.87   13.33
   1  11  -1   24.82   14.58
  -1 -11   2   18.44   13.19
   1  11  -2   25.62   13.28
  -1 -11   3   49.13   15.49
  -1 -11   4    0.84   12.27
   1  11  -4   27.80   12.33
  -1 -11   5   23.19   12.18
   1  11  -5   61.31   15.49
  -1 -11   7   71.73   16.77
   1  11  -7   22.50    9.53
  -1 -11   8   -5.01   12.02
   1  11  -8   11.34   10.46
  -1 -11   9   11.52   11.45
   1  11  -9    6.62    9.44
  -1 -11  10    1.08   10.79
   1  11 -10   22.59   10.33
  -2 -11   5    3.91   10.59
  -2 -11   6  -13.52   11.69
  -2 -11   7    9.40   11.87
  -2 -11   8    9.82   12.27
  -2 -11   9    7.37   11.52
  -2 -11  10   16.77   11.67
   2  11 -10   -3.04    9.60
  14 -12  -2   -3.00   14.76
 -14  12   2    8.74   15.93
 -14  12   1    8.30   16.02
 -14  12   0   20.17   15.93
 -14  12  -1   -1.52   12.31
  13 -12  -4   -4.02   14.50
 -13  12   4   23.30   15.38
  13 -12  -3    4.04   14.76
 -13  12   3   36.25   17.80
  13 -12  -2   -0.53   15.18
 -13  12   2    9.66   14.74
  13 -12  -1   75.04   20.43
 -13  12   1   90.26   22.13
  13 -12   0    0.71   15.71
 -13  12   0   -6.16   15.09
  13 -12   1   72.39   20.32
 -13  12  -1   98.42   22.24
  13 -12   2   30.25   15.53
 -13  12  -2    2.47   14.12
 -13  12  -3   28.00   15.25
  12 -12  -5   24.64   14.98
 -12  12   5   57.03   18.29
  12 -12  -4   15.29   15.16
 -12  12   4    4.55   13.79
  12 -12  -3   90.61   21.60
 -12  12   3   26.45   16.50
  12 -12  -2   33.56   16.68
 -12  12   2    6.84   15.16
  12 -12  -1  155.32   30.43
 -12  12   1  120.38   26.63
  12 -12   0   90.41   22.31
 -12  12   0   64.20   19.42
  12 -12   1  155.59   30.87
 -12  12  -1  130.42   27.29
  12 -12   2    2.16   15.07
 -12  12  -2    9.62   14.89
  12 -12   3   51.05   18.64
 -12  12  -3  111.93   24.42
  12 -12   4    5.78   14.27
  12 -12   5   45.19   16.59
 -12  12  -5   84.66   19.79
  11 -12  -6    8.08   13.81
 -11  12   6    2.69   13.52
  11 -12  -5   23.25   15.05
 -11  12   5   12.36   15.33
  11 -12  -4   54.74   18.09
 -11  12   4   44.39   17.54
  11 -12  -3   25.86   14.83
 -11  12   3  -11.58   15.05
  11 -12  -2   16.79   14.01
 -11  12   2   -2.87   14.52
  11 -12  -1   34.35   16.72
 -11  12   1   -8.16   14.19
  11 -12   0  -13.81   15.14
 -11  12   0   16.06   15.18
  11 -12   1   34.75   17.19
 -11  12  -1   29.94   15.33
  11 -12   2   35.10   16.59
 -11  12  -2   36.05   15.69
  11 -12   3   -2.27   15.66
 -11  12  -3  -10.66   13.30
  11 -12   4   59.28   18.09
  11 -12   5   -4.66   14.63
 -11  12  -5   -4.63   12.38
  11 -12   6    8.52   13.41
 -11  12  -6    7.10   12.25
  10 -12  -7   37.24   14.61
 -10  12   7   10.52   13.64
  10 -12  -6  -12.16   15.25
 -10  12   6   -5.78   13.61
  10 -12  -5   15.16   14.74
 -10  12   5    9.62   15.55
  10 -12  -4   24.80   15.11
 -10  12   4   21.14   15.55
  10 -12  -3   11.25   14.98
 -10  12   3   -8.23   13.08
 -10  12   2   31.24   16.39
  10 -12  -1  -27.23   15.09
 -10  12   1    4.55   14.65
  10 -12   0   20.61   15.02
 -10  12   0   -7.52   14.89
  10 -12   1   14.08   14.47
 -10  12  -1   25.20   14.12
  10 -12   2   20.43   15.64
 -10  12  -2   28.04   14.19
  10 -12   3    4.85   15.07
 -10  12  -3    7.57   12.62
  10 -12   4    3.51   13.06
  10 -12   6    3.55   13.72
 -10  12  -6   22.22   13.06
  10 -12   7   20.83   12.82
 -10  12  -7   -1.79   10.74
   9 -12  -7   22.88   15.05
  -9  12   7    9.69   12.58
   9 -12  -6   74.09   20.12
  -9  12   6   85.12   20.43
   9 -12  -5    5.25   13.50
  -9  12   5   32.30   15.84
   9 -12  -4  375.07   62.39
  -9  12   4  374.85   62.53
   9 -12  -3    2.36   13.79
  -9  12   3    0.29   14.67
  -9  12   2   88.30   21.25
   9 -12  -1   -3.60   12.88
  -9  12   1  -22.99   13.26
   9 -12   0   -0.04   14.47
  -9  12   0    5.96   14.25
   9 -12   1   15.71   14.74
  -9  12  -1   -9.11   12.69
   9 -12   2   75.74   19.22
  -9  12  -2   87.08   19.59
   9 -12   3  -14.94   13.70
  -9  12  -3  -28.40   12.88
   9 -12   4  419.20   69.06
   9 -12   5    3.93   13.94
  -9  12  -5    1.99   12.69
   9 -12   6   88.67   21.07
  -9  12  -6   98.71   21.25
   9 -12   7    1.59   13.06
  -9  12  -7    2.80   11.01
   8 -12  -8   16.81   12.22
  -8  12   8   13.04   12.49
   8 -12  -7   -0.88   15.25
  -8  12   7    9.77   12.22
   8 -12  -6   30.82   15.64
  -8  12   6   44.70   16.64
   8 -12  -5   17.05   13.50
  -8  12   5   25.55   15.69
   8 -12  -4    3.99   13.88
  -8  12   4   21.93   14.41
   8 -12  -3   28.11   13.94
  -8  12   3    2.34   13.24
  -8  12   2   10.04   13.66
   8 -12  -1   27.34   13.97
  -8  12   1    5.71   12.93
   8 -12   0  157.40   29.26
  -8  12   0  212.00   37.57
   8 -12   1    7.52   13.97
  -8  12  -1    6.11   13.17
   8 -12   2    7.83   13.44
  -8  12  -2   11.34   11.52
   8 -12   3    8.65   13.94
  -8  12  -3   19.19   13.50
   8 -12   4    0.35   12.82
  -8  12  -4  -12.86   11.74
   8 -12   5   13.97   13.72
  -8  12  -5   13.48   12.88
   8 -12   6   43.13   16.70
  -8  12  -6    5.93   12.11
   8 -12   7   -1.04   12.55
  -8  12  -7    5.82   12.07
   8 -12   8   21.25   13.64
  -8  12  -8   28.24   12.86
   7 -12  -8   17.74   12.02
  -7  12   8    1.81   12.62
   7 -12  -7    5.45   12.66
  -7  12   7   -9.05   12.49
   7 -12  -6   -2.32   12.38
  -7  12   6   15.02   14.36
   7 -12  -5   -6.02   11.19
  -7  12   5    6.46   11.80
   7 -12  -4   89.75   20.01
  -7  12   4   66.59   17.58
   7 -12  -3   36.74   12.95
  -7  12   3   -0.55   12.58
  -7  12   2   62.42   17.69
   7 -12  -1   30.89   13.77
  -7  12   1   50.72   16.08
   7 -12   0  -10.70   11.98
  -7  12   0   -4.39   12.27
   7 -12   1   26.70   14.52
  -7  12  -1   25.66   12.33
   7 -12   2   26.23   13.97
  -7  12  -2   38.32   12.88
   7 -12   3   34.07   15.20
  -7  12  -3   21.93   11.52
   7 -12   4  123.42   24.67
  -7  12  -4  158.26   29.06
   7 -12   5    0.15   13.97
  -7  12  -5   -4.35   11.67
   7 -12   6   -5.67   13.33
  -7  12  -6    3.07   11.19
   7 -12   7   12.93   13.64
  -7  12  -7    8.03   11.83
   7 -12   8   19.35   12.62
  -7  12  -8   19.22   13.35
   6 -12  -9   12.93   12.84
  -6  12   9   12.13   11.01
   6 -12  -8    3.13   11.67
  -6  12   8   11.80   13.19
   6 -12  -7   75.59   18.60
  -6  12   7  110.09   22.92
   6 -12  -6   -1.50   11.78
  -6  12   6   -0.24   13.61
   6 -12  -5   43.38   13.55
  -6  12   5    5.63   11.34
   6 -12  -4   -2.58   11.67
  -6  12   4   -2.58   12.22
   6 -12  -3   35.21   12.62
  -6  12   3   10.52   13.13
   6 -12  -2   11.78    9.24
  -6  12   2   17.83   13.06
   6 -12  -1   67.69   17.12
  -6  12   1   93.39   20.52
   6 -12   0   40.84   14.14
  -6  12   0    7.59   12.75
   6 -12   1   13.86   12.40
  -6  12  -1   23.85   12.66
   6 -12   2   34.86   13.59
  -6  12  -2   16.77   11.69
   6 -12   3    5.63   12.95
  -6  12  -3   -9.91   11.27
   6 -12   4   21.82   13.11
  -6  12  -4   -3.42   11.36
   6 -12   5   34.84   15.16
  -6  12  -5   41.37   13.83
   6 -12   6    6.09   12.91
  -6  12  -6    3.13   11.89
   6 -12   7  135.45   26.54
  -6  12  -7  108.13   22.42
  -6  12  -9   10.88    9.66
   5 -12  -9    0.40   11.83
  -5  12   9   18.64   10.79
   5 -12  -8   14.14   12.77
  -5  12   8    8.12   13.11
   5 -12  -7   -5.47   13.64
  -5  12   7  -11.32   14.52
   5 -12  -6    5.87   11.98
  -5  12   6   12.07   12.60
   5 -12  -5  -14.47   11.67
  -5  12   5    5.41   11.98
   5 -12  -4   23.12   12.51
  -5  12   4   32.50   13.77
   5 -12  -3  177.94   31.33
  -5  12   3  157.49   29.26
   5 -12  -2    8.89   11.34
  -5  12   2    0.68   12.97
   5 -12  -1   47.26   14.78
  -5  12   1   44.83   14.96
   5 -12   0  -18.91   11.65
  -5  12   0  -14.89   12.62
   5 -12   1   18.44   12.16
  -5  12  -1   20.52   12.07
   5 -12   2   51.19   15.80
  -5  12  -2   43.20   14.19
   5 -12   3  220.63   38.26
  -5  12  -3  172.40   31.00
   5 -12   4  -12.44   12.66
  -5  12  -4   10.94   12.20
   5 -12   5   19.15   13.17
  -5  12  -5   19.75   11.61
   5 -12   6   -2.56   13.19
  -5  12  -6  -18.91   11.52
   5 -12   7   -4.37   12.97
  -5  12  -7    8.98   12.86
   5 -12   8    1.35   12.47
  -5  12  -8  -14.85   12.18
   5 -12   9    0.33   11.58
  -5  12  -9    3.27   10.02
   4 -12  -9   63.81   16.83
  -4  12   9   42.98   14.50
   4 -12  -8    2.89   12.38
  -4  12   8   -6.97   12.40
   4 -12  -7  415.01   67.71
  -4  12   7  552.24   88.96
   4 -12  -6   -0.68   12.07
  -4  12   6   -4.68   12.40
   4 -12  -5  125.54   24.31
  -4  12   5   76.87   18.18
   4 -12  -4   -2.82   11.01
  -4  12   4   18.47   13.00
   4 -12  -3   91.67   18.95
  -4  12   3  112.10   22.55
   4 -12  -2   13.26   12.66
  -4  12   2   10.79   13.86
   4 -12  -1  447.66   72.59
  -4  12   1  473.69   76.91
   4 -12   0   37.46   13.66
  -4  12   0   37.26   15.16
   4 -12   1  520.03   83.91
  -4  12  -1  514.95   82.89
   4 -12   2    3.79   13.06
  -4  12  -2    7.37   11.03
   4 -12   3   90.11   19.83
  -4  12  -3  135.29   25.62
   4 -12   4   24.60   12.86
  -4  12  -4   31.93   12.38
   4 -12   5   80.80   19.42
  -4  12  -5  112.76   22.39
   4 -12   6   13.66   12.53
  -4  12  -6  -10.77   10.92
   4 -12   7  863.77  137.03
  -4  12  -7 1077.12  170.15
   4 -12   8    3.27   11.83
  -4  12  -8    7.92   11.98
   4 -12   9   55.03   15.69
  -4  12  -9   38.04   12.88
   3 -12  -9  -13.79   11.36
  -3  12   9    6.02   10.99
   3 -12  -8   26.37   12.71
  -3  12   8   13.81   11.80
  -3  12   7    3.79   11.58
   3 -12  -6    1.63   12.02
  -3  12   6   -2.58   11.54
   3 -12  -5   48.83   14.96
  -3  12   5   54.45   15.55
   3 -12  -4   82.41   18.53
  -3  12   4   87.74   19.37
   3 -12  -3   70.14   16.44
  -3  12   3   62.42   16.53
   3 -12  -2   15.09   12.29
  -3  12   2    0.42   12.95
   3 -12  -1   44.81   14.36
  -3  12   1   34.13   14.30
   3 -12   0    2.76   11.94
  -3  12   0   -0.22   12.71
   3 -12   1   15.62   12.80
  -3  12  -1   25.44   13.44
   3 -12   2    2.52   11.69
  -3  12  -2    1.52   10.81
   3 -12   3   51.21   16.02
  -3  12  -3   33.96   12.25
   3 -12   4   55.51   15.29
  -3  12  -4   50.88   13.88
   3 -12   5   51.50   15.73
  -3  12  -5   56.68   15.09
   3 -12   6   15.47   11.45
  -3  12  -6    2.58   11.03
   3 -12   7   15.82   11.96
  -3  12  -7   31.86   12.69
   3 -12   8   -5.25   11.43
  -3  12  -8   -5.07   12.31
   3 -12   9   -1.90   11.32
  -3  12  -9   18.40   10.72
   2 -12  -9    6.02   11.36
  -2  12   9   -8.10   11.12
   2 -12  -8   15.05   13.11
  -2  12   8   37.57   13.75
   2 -12  -7   18.31   12.42
  -2  12   7   44.15   14.03
   2 -12  -6   -8.30   12.75
  -2  12   6   11.25   12.07
   2 -12  -5   11.98   12.18
  -2  12   5  -12.88   11.96
   2 -12  -4   26.83   13.06
  -2  12   4   10.19   11.38
   2 -12  -3    8.32   12.00
  -2  12   3   14.54   12.75
   2 -12  -2   33.76   13.86
  -2  12   2   37.37   14.10
   2 -12  -1   -4.13   12.71
  -2  12   1   16.59   13.06
   2 -12   0   27.95   13.88
  -2  12   0   38.74   14.21
   2 -12   1   -1.37   12.75
  -2  12  -1    1.74   11.91
   2 -12   2   17.17   12.88
  -2  12  -2   66.21   16.30
   2 -12   3    3.95   12.33
   2 -12   4    0.44   10.74
  -2  12  -4   29.15   13.55
   2 -12   5    7.26   12.25
  -2  12  -5   18.97   12.82
   2 -12   6   30.80   13.13
  -2  12  -6   84.26   18.27
   2 -12   7   21.09   12.71
  -2  12  -7   28.35   12.58
   2 -12   8   10.57   11.52
  -2  12  -8    4.17   11.98
   2 -12   9   28.17   12.73
  -2  12  -9   17.78   10.99
   1 -12  -9   16.92   11.87
  -1  12   9    5.05   10.99
   1 -12  -8  119.85   23.72
  -1  12   8   62.64   16.64
   1 -12  -7  -18.03   11.58
  -1  12   7   -4.55   10.66
   1 -12  -6  258.14   43.97
  -1  12   6  264.32   44.74
   1 -12  -5   -4.02   12.16
  -1  12   5  -20.94   12.20
   1 -12  -4  194.75   34.26
  -1  12   4  150.74   27.76
   1 -12  -3   64.49   16.75
  -1  12   3   60.36   16.61
   1 -12  -2  290.35   48.54
  -1  12   2  287.48   48.12
   1 -12  -1   -0.33   12.47
  -1  12   1   34.48   14.14
   1 -12   0   13.48   12.55
  -1  12   0   17.30   12.60
   1 -12   1   -5.32   13.28
  -1  12  -1    5.43   12.42
   1 -12   2  592.62   95.00
  -1  12  -2  878.33  139.26
   1 -12   3   62.04   17.21
   1 -12   4  269.83   45.34
  -1  12  -4  176.17   31.40
   1 -12   5   33.87   14.45
  -1  12  -5   -5.69   11.36
   1 -12   6  332.93   55.00
  -1  12  -6  245.56   41.13
   1 -12   7    3.13   12.27
  -1  12  -7   -7.74   10.06
   1 -12   8  128.47   24.78
  -1  12  -8  161.63   28.79
   1 -12   9   25.33   13.15
  -1  12  -9    8.23    9.71
   0 -12  -9   10.30   11.34
   0  12   9   12.86   11.47
   0 -12  -8   60.19   16.61
   0  12   8   46.71   15.18
   0 -12  -7   -0.66   12.42
   0  12   7    0.57   10.55
   0 -12  -6   38.06   14.25
   0  12   6   35.98   13.68
   0 -12  -5    2.98   11.56
   0  12   5    5.34   12.02
   0 -12  -4   46.69   14.36
   0  12   4   47.68   14.27
   0 -12  -3  -13.04   11.63
   0  12   3   -8.30   12.71
   0 -12  -2  168.92   30.40
   0  12   2  191.84   33.91
   0 -12  -1    9.11   12.62
   0  12   1   11.76   12.91
   0 -12   0  278.66   46.95
   0  12   0  356.76   58.75
   0 -12   1  -20.01   12.77
   0  12  -1   -1.57   12.31
   0 -12   2  211.59   37.00
   0  12  -2  269.61   45.54
   0 -12   3  -31.02   13.30
   0 -12   4   80.84   18.78
   0  12  -4  117.27   23.76
   0 -12   5   17.61   12.44
   0  12  -5   -5.47   10.48
   0 -12   6   17.47   12.42
   0  12  -6   13.13   10.33
   0 -12   7    6.44   12.20
   0  12  -7    2.63   10.06
   0 -12   8   41.83   14.87
   0  12  -8   52.18   14.08
   0 -12   9    6.24   12.13
   0  12  -9   -8.03    9.35
  -1 -12  -9    8.19   11.47
  -1 -12  -8  180.92   32.50
   1  12   8  171.81   32.01
  -1 -12  -7   -0.71   11.80
   1  12   7   19.00   11.80
  -1 -12  -6  351.91   58.20
   1  12   6  278.44   46.84
  -1 -12  -5   42.18   14.14
   1  12   5   15.75   12.97
  -1 -12  -4  150.96   27.98
   1  12   4  181.73   32.23
  -1 -12  -3   79.07   18.62
   1  12   3   53.02   16.04
  -1 -12  -2  223.28   38.52
   1  12   2  184.43   33.03
  -1 -12  -1    5.60   12.58
   1  12   1   22.22   13.88
  -1 -12   0    7.37   12.49
   1  12   0   -7.35   12.05
  -1 -12   1   25.55   13.59
   1  12  -1    4.32   12.62
  -1 -12   2  263.87   44.72
   1  12  -2  217.15   37.62
  -1 -12   3   65.31   17.10
  -1 -12   5   26.39   12.95
   1  12  -5    4.57   11.19
  -1 -12   6  337.57   55.71
   1  12  -6  316.38   52.00
  -1 -12   7   -9.05   12.20
   1  12  -7   11.83   10.44
  -1 -12   9   16.59   12.02
   1  12  -9    4.59    9.42
  -2 -12   3    5.01   12.09
  -2 -12   4   26.43   12.13
  -2 -12   5   24.89   12.60
  -2 -12   6    4.10   11.76
  -2 -12   7   19.79   12.75
   2  12  -7   27.25   11.38
  -2 -12   8   22.59   13.02
   2  12  -8   14.01   11.21
  -2 -12   9  -18.44   11.98
   2  12  -9   -0.46    9.60
  13 -13  -2  101.78   23.94
 -13  13   2   69.56   19.90
  13 -13  -1   33.54   15.69
 -13  13   1   88.41   22.44
  13 -13   0   15.69   15.27
 -13  13   0   23.48   16.19
  13 -13   1   13.70   15.58
 -13  13  -1   14.58   12.84
  13 -13   2   51.47   17.72
 -13  13  -2   63.23   18.71
  13 -13   3   14.58   17.89
  12 -13  -4  -18.78   15.09
 -12  13   4  -13.50   14.30
  12 -13  -3   68.64   19.72
 -12  13   3   71.84   21.22
  12 -13  -2   63.03   19.86
 -12  13   2   29.70   16.39
  12 -13  -1   64.20   19.04
 -12  13   1   40.71   17.01
  12 -13   1   27.78   17.34
 -12  13  -1   13.55   14.08
  12 -13   2   18.60   15.69
 -12  13  -2    2.21   14.12
  12 -13   3  114.53   25.92
 -12  13  -3   76.16   19.64
  12 -13   4  -12.80   14.43
  11 -13  -5   17.89   14.12
 -11  13   5   25.64   15.97
  11 -13  -4   43.42   16.57
 -11  13   4   -4.13   13.79
  11 -13  -3   13.06   14.83
 -11  13   3   41.68   18.25
  11 -13  -2   -0.29   13.37
 -11  13   2  -28.75   15.38
  11 -13  -1  259.90   45.63
 -11  13   1  287.48   49.77
  11 -13   0   -9.49   14.43
 -11  13   0   17.17   14.58
  11 -13   1  253.95   44.99
 -11  13  -1  192.46   35.74
  11 -13   2   14.01   15.71
 -11  13  -2    2.05   14.30
  11 -13   3   -9.84   15.47
 -11  13  -3   29.30   15.80
  11 -13   4   28.20   15.78
  11 -13   5   26.87   16.00
 -11  13  -5   12.49   12.58
  10 -13  -6    5.43   13.59
 -10  13   6   18.86   13.04
  10 -13  -5   41.63   15.86
 -10  13   5   47.35   17.19
  10 -13  -4   12.66   15.20
 -10  13   4    2.93   14.45
  10 -13  -3   10.99   14.32
 -10  13   3    6.16   15.38
 -10  13   2   46.20   17.19
  10 -13  -1   17.43   15.80
 -10  13   1   30.95   15.51
  10 -13   0   71.77   20.21
 -10  13   0   65.53   19.46
  10 -13   1   -9.86   15.80
 -10  13  -1   35.37   15.91
  10 -13   2   -0.75   14.41
 -10  13  -2  -12.53   13.81
  10 -13   3   29.12   16.79
 -10  13  -3   12.18   14.63
  10 -13   4    4.59   13.61
  10 -13   5   73.29   20.47
 -10  13  -5   60.45   17.01
  10 -13   6   24.56   14.03
 -10  13  -6   10.37   12.20
   9 -13  -6    3.22   13.77
  -9  13   6   34.82   14.72
   9 -13  -5  387.87   64.45
  -9  13   5  359.63   60.47
   9 -13  -4   -1.52   14.39
  -9  13   4   22.81   15.29
   9 -13  -3  589.53   95.42
  -9  13   3  615.34   99.35
  -9  13   2   13.33   14.89
   9 -13  -1  185.71   34.64
  -9  13   1  163.64   31.04
   9 -13   0   -0.35   14.16
  -9  13   0   17.50   15.44
   9 -13   1  195.02   35.81
  -9  13  -1  178.01   32.92
   9 -13   2   22.99   16.11
  -9  13  -2   14.25   13.81
   9 -13   3  868.85  138.82
  -9  13  -3  642.92  103.45
   9 -13   4   -0.49   13.35
   9 -13   5  282.85   48.80
  -9  13  -5  340.88   57.03
   9 -13   6    5.16   12.97
  -9  13  -6   13.02   12.49
   9 -13   7   -2.03   12.49
  -9  13  -7   43.20   14.52
   8 -13  -7   24.89   13.08
  -8  13   7   29.63   14.19
   8 -13  -6   88.23   20.72
  -8  13   6   89.05   20.87
   8 -13  -5   -1.43   12.38
  -8  13   5   22.24   15.20
   8 -13  -4  -18.40   14.03
  -8  13   4   22.57   14.83
   8 -13  -3  263.21   45.30
  -8  13   3  294.10   50.08
  -8  13   2   -5.41   13.81
   8 -13  -1    8.16   15.36
  -8  13   1    4.90   13.88
   8 -13   0   55.71   18.36
  -8  13   0   88.65   21.25
   8 -13   1    8.60   14.43
  -8  13  -1   30.29   13.22
   8 -13   2    5.27   14.78
  -8  13  -2   21.45   12.73
   8 -13   3  254.39   44.15
  -8  13  -3  233.21   40.40
   8 -13   4   -3.93   13.70
  -8  13  -4   -1.61   10.99
   8 -13   5   17.32   14.05
  -8  13  -5   21.56   13.81
   8 -13   6   70.32   19.26
  -8  13  -6   80.55   18.67
   8 -13   7   -1.30   12.77
  -8  13  -7   25.79   11.89
   7 -13  -8   37.11   15.51
  -7  13   8   24.62   14.32
   7 -13  -7  -19.24   12.22
  -7  13   7   11.80   12.38
   7 -13  -6   15.27   13.55
  -7  13   6   20.45   13.83
   7 -13  -5   46.38   15.22
  -7  13   5   84.83   20.65
   7 -13  -4  106.41   22.61
  -7  13   4  106.63   23.59
   7 -13  -3   28.77   13.33
  -7  13   3   48.10   16.48
  -7  13   2   85.56   20.85
   7 -13  -1  259.02   44.37
  -7  13   1  264.98   45.58
   7 -13   0   -3.22   12.22
  -7  13   0   32.08   15.25
   7 -13   1  248.21   42.93
  -7  13  -1  235.41   40.71
   7 -13   2   92.73   20.41
  -7  13  -2   58.49   15.69
   7 -13   3   30.84   15.31
  -7  13  -3    7.48   12.09
   7 -13   4  108.20   23.32
  -7  13  -4   45.03   14.91
   7 -13   5   79.74   19.83
  -7  13  -5   60.03   17.39
   7 -13   6   38.35   17.23
  -7  13  -6   22.31   13.06
   7 -13   7    3.64   11.89
  -7  13  -7    3.82   11.25
  -7  13  -8   15.42   13.02
   6 -13  -8   -3.82   12.44
  -6  13   8    0.15   12.44
   6 -13  -7   70.67   17.69
  -6  13   7   49.49   15.86
   6 -13  -6   48.49   15.38
  -6  13   6   27.56   15.33
   6 -13  -5    7.39   11.23
  -6  13   5   39.80   15.44
   6 -13  -4   62.66   17.01
  -6  13   4   54.47   16.90
   6 -13  -3  -17.78   12.07
  -6  13   3    1.35   13.64
  -6  13   2  449.87   73.80
   6 -13  -1   -2.29   12.25
  -6  13   1   -4.04   13.02
   6 -13   0  159.36   28.97
  -6  13   0  145.22   27.82
   6 -13   1    6.46   12.16
  -6  13  -1   -6.71   12.91
   6 -13   2  557.76   90.00
  -6  13  -2  309.10   51.52
   6 -13   3   25.57   13.72
  -6  13  -3   83.58   19.44
   6 -13   4   70.82   17.69
  -6  13  -4   88.12   19.46
   6 -13   5   10.37   13.50
  -6  13  -5    0.84   11.63
   6 -13   6   43.55   15.73
  -6  13  -6   63.72   15.84
   6 -13   7   46.38   15.86
  -6  13  -7   54.61   15.89
   6 -13   8    4.57   12.40
  -6  13  -8   -8.69   11.89
   5 -13  -8   21.75   13.02
  -5  13   8   16.35   13.35
   5 -13  -7   -8.27   11.87
  -5  13   7   -0.11   12.69
   5 -13  -6  523.78   84.79
  -5  13   6  502.82   81.90
   5 -13  -5    0.02   10.59
  -5  13   5   -8.21   11.69
   5 -13  -4   18.11   13.06
  -5  13   4   72.08   18.14
   5 -13  -3   69.28   16.37
  -5  13   3   48.54   15.78
   5 -13  -2    4.21    9.82
  -5  13   2   25.22   14.25
   5 -13  -1    6.29   11.69
  -5  13   1    0.75   13.26
   5 -13   0  -10.28   10.88
  -5  13   0    5.93   12.25
   5 -13   1   14.08   12.27
  -5  13  -1    1.63   11.52
   5 -13   2  -12.73   12.33
  -5  13  -2   10.30   10.86
   5 -13   3   43.24   15.33
  -5  13  -3   65.68   16.57
   5 -13   4   53.68   15.53
  -5  13  -4   25.53   12.84
   5 -13   5   21.71   13.55
  -5  13  -5    5.69   11.91
   5 -13   6  581.80   93.66
  -5  13  -6  402.65   65.77
   5 -13   7  -22.64   13.26
  -5  13  -7   10.88   12.22
   5 -13   8   16.83   11.85
  -5  13  -8   23.70   13.37
   4 -13  -8  123.05   24.00
  -4  13   8  143.56   27.84
   4 -13  -7    4.19   12.16
  -4  13   7   11.87   13.17
   4 -13  -6  861.34  136.97
  -4  13   6  831.56  132.60
   4 -13  -5   22.79   11.96
  -4  13   5  -14.56   11.47
   4 -13  -4  193.23   34.33
  -4  13   4  186.72   33.80
   4 -13  -3    4.85   11.23
  -4  13   3    0.82   12.88
   4 -13  -2  815.89  129.71
  -4  13   2 1109.55  175.58
   4 -13  -1   33.27   13.37
  -4  13   1   24.49   13.37
   4 -13   0  863.55  137.17
  -4  13   0  734.26  117.20
   4 -13   1   45.10   14.54
  -4  13  -1   46.44   14.52
   4 -13   2 1050.42  166.25
  -4  13  -2 1245.68  196.58
   4 -13   3   28.06   13.75
  -4  13  -3   -1.59   11.74
   4 -13   4  218.51   38.10
  -4  13  -4  206.55   35.81
   4 -13   5    6.00   12.71
  -4  13  -5    1.54   11.03
   4 -13   6  814.13  129.58
  -4  13  -6  769.12  122.43
   4 -13   7   25.22   13.44
  -4  13  -7    8.30   12.13
   4 -13   8  111.84   22.42
  -4  13  -8   68.93   17.52
   3 -13  -9    8.25   11.45
  -3  13   9    9.42   11.47
   3 -13  -8   36.91   13.41
  -3  13   8   10.77   13.26
   3 -13  -7    1.61   13.22
  -3  13   7   16.19   13.02
   3 -13  -6   91.34   20.34
  -3  13   6  110.09   23.08
   3 -13  -5   92.00   19.35
  -3  13   5   64.01   15.93
   3 -13  -4   57.87   16.02
  -3  13   4   21.42   13.24
   3 -13  -3  240.71   41.08
  -3  13   3  122.60   27.51
   3 -13  -2   30.16   12.82
  -3  13   2   40.04   14.65
   3 -13  -1   18.40   12.64
  -3  13   1   49.93   15.62
   3 -13   0   18.16   12.02
  -3  13   0   40.86   13.66
   3 -13   1   64.71   16.50
  -3  13  -1   69.76   16.59
   3 -13   2   61.16   16.50
  -3  13  -2   85.47   18.84
   3 -13   3  152.90   28.31
  -3  13  -3  159.32   29.15
   3 -13   4    1.59   12.09
  -3  13  -4    5.12   10.92
   3 -13   5   63.63   17.05
  -3  13  -5   71.82   17.10
   3 -13   6   14.03   13.44
  -3  13  -6   21.18   12.51
   3 -13   7   12.07   12.27
  -3  13  -7   29.87   13.41
   3 -13   8   -1.15   11.52
  -3  13  -8   20.12   12.07
  -3  13  -9   24.51   11.12
   2 -13  -9   14.74   12.16
  -2  13   9    8.74   10.63
   2 -13  -8   26.63   12.49
  -2  13   8    6.69   12.86
   2 -13  -7   21.93   14.12
  -2  13   7   20.94   13.75
   2 -13  -6    6.16   13.35
  -2  13   6   46.53   15.84
   2 -13  -5   79.78   18.49
  -2  13   5  107.45   21.58
   2 -13  -4   40.38   14.41
  -2  13   4   28.02   13.83
   2 -13  -3   42.23   14.41
  -2  13   3   64.07   17.12
   2 -13  -2   37.99   14.56
  -2  13   2   64.05   17.76
   2 -13  -1    0.62   12.18
  -2  13   1    6.88   11.96
   2 -13   0   75.63   17.67
  -2  13   0   50.08   15.47
   2 -13   1   -1.30   11.43
  -2  13  -1   20.28   11.36
   2 -13   2  103.12   21.69
  -2  13  -2   86.33   19.24
   2 -13   3  149.23   27.91
   2 -13   4   32.52   14.10
  -2  13  -4   47.83   13.92
   2 -13   5   75.01   18.09
  -2  13  -5   86.00   18.64
   2 -13   6   -0.84   12.86
  -2  13  -6   20.92   12.82
   2 -13   8    8.19   12.11
  -2  13  -8    1.06   10.92
   1 -13  -9   46.88   14.65
  -1  13   9   15.78   11.03
   1 -13  -8   24.84   12.58
  -1  13   8  -17.43   13.30
   1 -13  -6   86.84   19.57
  -1  13   6   78.52   19.04
   1 -13  -5  177.37   31.90
  -1  13   5  163.00   29.59
   1 -13  -4    6.18   12.09
  -1  13   4    9.62   12.58
   1 -13  -3 1620.09  254.83
  -1  13   3 2044.59  321.24
   1 -13  -2    9.60   11.91
  -1  13   2   -7.63   12.64
   1 -13  -1  125.65   24.75
  -1  13   1  154.71   28.70
   1 -13   0   -9.18   11.19
  -1  13   0   -7.24   11.43
   1 -13   1  168.65   30.78
  -1  13  -1  170.94   30.60
   1 -13   2   15.36   13.44
  -1  13  -2   -9.47   12.20
   1 -13   3 1355.56  213.64
   1 -13   4   34.62   13.99
  -1  13  -4    6.88   10.79
   1 -13   5  155.43   28.99
  -1  13  -5  194.18   33.78
   1 -13   6   70.95   17.76
  -1  13  -6   95.91   20.25
   1 -13   7   16.44   12.80
  -1  13  -7   17.21   11.41
   1 -13   8   19.04   12.82
  -1  13  -8   24.29   11.10
   1 -13   9   44.96   15.22
  -1  13  -9   18.40    9.97
   0 -13  -9   13.02   12.13
   0  13   9   26.01   12.31
   0 -13  -8   -7.08   11.58
   0  13   8  -10.26   13.33
   0 -13  -7  339.77   56.64
   0  13   7  268.73   45.91
   0 -13  -6  -27.31   12.73
   0  13   6   -7.48   12.71
   0 -13  -5  283.73   47.59
   0  13   5  474.80   76.98
   0 -13  -4  -12.80   12.07
   0  13   4    1.01   12.75
   0 -13  -3   93.19   20.01
   0  13   3  113.25   23.01
   0 -13  -2   -4.19   11.41
   0  13   2   14.08   13.35
   0 -13  -1  278.22   46.93
   0  13   1  216.97   37.88
   0 -13   0    6.53   11.98
   0  13   0   -2.54   11.58
   0 -13   1  214.87   37.42
   0  13  -1  156.67   28.53
   0 -13   2   25.79   13.44
   0  13  -2    7.02   12.00
   0 -13   3  110.80   22.68
   0 -13   4   -4.61   13.59
   0  13  -4  -23.36   12.02
   0 -13   5  352.57   58.25
   0  13  -5  373.97   61.11
   0 -13   6   -3.77   12.73
   0  13  -6  -19.57   11.52
   0 -13   7  280.64   47.28
   0  13  -7  285.28   47.44
   0 -13   8   -0.97   11.87
   0  13  -8   10.86   10.35
  -1 -13  -9   25.99   12.42
   1  13   9   11.94   10.77
  -1 -13  -8   10.77   12.20
   1  13   8    9.97   13.83
  -1 -13  -7   43.71   15.33
   1  13   7   19.68   13.59
  -1 -13  -6   79.65   18.82
   1  13   6  119.38   24.45
  -1 -13  -5  240.71   41.28
   1  13   5  237.62   40.68
  -1 -13  -4    4.50   12.42
   1  13   4   -0.29   12.84
  -1 -13  -2   -6.55   11.63
   1  13   2   -6.42   12.97
  -1 -13  -1  118.43   23.89
   1  13   1  171.96   31.22
  -1 -13   0    4.15   11.45
   1  13   0  -16.46   11.52
  -1 -13   1  186.48   33.14
   1  13  -1  179.62   31.88
  -1 -13   2   -8.01   12.91
   1  13  -2   -1.10   12.25
  -1 -13   4   10.68   12.53
   1  13  -4    7.94   11.14
  -1 -13   5  208.81   36.65
   1  13  -5  243.58   41.21
  -1 -13   6   90.88   20.41
   1  13  -6  100.76   20.96
  -1 -13   8   -4.13   11.36
   1  13  -8   -3.95   10.61
  -1 -13   9   -3.53   12.82
   1  13  -9   31.00   11.05
  -2 -13   1    8.32   11.30
  -2 -13   2  102.17   21.78
  -2 -13   3   91.52   20.12
  -2 -13   4   89.11   19.88
  -2 -13   5  120.29   24.09
   2  13  -5   63.89   16.04
  -2 -13   6   -9.16   13.22
   2  13  -6  -21.58   11.96
  -2 -13   7   47.19   15.00
   2  13  -7   50.57   14.54
  -2 -13   8   14.89   12.69
   2  13  -8    0.31    9.97
  12 -14  -2    5.69   15.31
 -12  14   2   18.67   15.25
  12 -14  -1   13.48   13.83
 -12  14   1    9.73   16.46
  12 -14   0   30.12   15.38
 -12  14   0   11.98   15.53
  12 -14   1   -2.23   14.76
 -12  14  -1   -2.38   12.73
  12 -14   2  -24.73   14.89
 -12  14  -2    5.12   13.99
  11 -14  -4   19.88   14.47
 -11  14   4    0.62   15.47
  11 -14  -3    1.32   14.43
 -11  14   3   13.97   15.66
  11 -14  -2   -2.96   12.93
 -11  14   2    3.84   15.05
  11 -14  -1    7.39   14.91
 -11  14   1   20.96   15.44
  11 -14   0  -19.35   15.97
 -11  14   0    5.52   14.45
  11 -14   1   -4.46   15.55
 -11  14  -1    0.75   13.13
  11 -14   2   12.38   15.49
 -11  14  -2    8.89   14.23
  11 -14   3    2.38   14.83
 -11  14  -3   -2.52   14.12
  11 -14   4  -24.95   15.49
  10 -14  -5   -3.68   13.28
 -10  14   5   21.09   14.36
  10 -14  -4   17.05   13.81
 -10  14   4   -5.30   13.33
  10 -14  -3   -6.33   14.01
 -10  14   3  -19.31   13.81
 -10  14   2  138.40   28.81
  10 -14  -1  -10.86   15.47
 -10  14   1    4.39   14.45
  10 -14   0  -17.23   14.83
 -10  14   0   19.08   15.22
  10 -14   1   -5.60   15.14
 -10  14  -1   21.27   14.80
  10 -14   2   29.63   16.83
 -10  14  -2   37.29   15.62
  10 -14   3    0.77   15.60
 -10  14  -3    8.03   13.61
  10 -14   4  -16.17   15.97
  10 -14   5    0.55   14.50
 -10  14  -5    4.26   12.38
   9 -14  -6   -8.34   14.25
  -9  14   6   11.89   13.46
   9 -14  -5   23.34   14.69
  -9  14   5   -3.93   14.08
   9 -14  -4    8.49   14.94
  -9  14   4  -12.73   14.25
   9 -14  -3    8.78   14.78
  -9  14   3   -0.13   14.08
  -9  14   2   15.49   14.96
   9 -14  -1   21.22   14.91
  -9  14   1   -4.13   13.90
   9 -14   0    2.96   14.94
  -9  14   0   11.01   13.57
   9 -14   1    5.58   14.96
  -9  14  -1    8.21   14.58
   9 -14   2  -12.11   15.05
  -9  14  -2    0.22   13.94
   9 -14   3   -9.02   14.54
  -9  14  -3   -6.93   13.39
   9 -14   4   46.53   17.34
   9 -14   5    2.45   13.64
  -9  14  -5  -20.65   12.47
   9 -14   6   15.31   14.56
  -9  14  -6   -5.12   11.96
   8 -14  -6   45.49   14.63
  -8  14   6    9.29   12.51
   8 -14  -5   33.69   14.32
  -8  14   5   14.54   14.85
   8 -14  -4   -0.44   13.02
  -8  14   4   19.59   14.34
   8 -14  -3   -7.15   12.55
  -8  14   3   11.76   14.56
  -8  14   2  111.68   24.27
   8 -14  -1   -4.72   12.71
  -8  14   1  -13.75   13.35
   8 -14   0   22.24   14.89
  -8  14   0   -6.46   13.19
   8 -14   1   -3.77   14.78
  -8  14  -1   -0.13   12.91
   8 -14   2  138.23   28.11
  -8  14  -2  148.86   28.51
   8 -14   3   13.70   16.68
  -8  14  -3  -11.45   13.00
   8 -14   4   14.65   14.32
  -8  14  -4   16.02   11.76
   8 -14   5  -12.00   14.52
  -8  14  -5    3.29   12.62
   8 -14   6   30.67   14.61
  -8  14  -6   16.02   12.25
   7 -14  -7  -14.12   11.12
  -7  14   7  -25.48   13.08
   7 -14  -6    7.83   12.53
  -7  14   6   21.25   13.75
   7 -14  -5   25.06   13.59
  -7  14   5   18.53   14.52
   7 -14  -4  -11.34   13.17
  -7  14   4   -6.69   13.83
   7 -14  -3   14.80   13.15
  -7  14   3   44.32   15.82
  -7  14   2    5.80   14.30
   7 -14  -1    6.71   13.61
  -7  14   1   28.42   14.39
   7 -14   0   -6.62   13.26
  -7  14   0  -10.28   14.76
   7 -14   1    0.11   13.11
  -7  14  -1    2.56   12.75
   7 -14   2    3.91   12.55
  -7  14  -2    5.49   12.55
   7 -14   3   42.16   15.89
  -7  14  -3   43.88   15.14
   7 -14   4   -2.56   12.60
  -7  14  -4    2.67   11.74
   7 -14   5   29.08   14.16
  -7  14  -5   19.06   13.41
   7 -14   6   -1.61   12.97
  -7  14  -6   -0.22   10.99
   7 -14   7   16.59   12.88
  -7  14  -7    0.26   10.86
   6 -14  -7   29.43   12.93
  -6  14   7    4.43   12.91
   6 -14  -6   22.22   13.81
  -6  14   6    6.91   12.93
   6 -14  -5   40.29   14.52
  -6  14   5   21.34   15.51
   6 -14  -4    5.89   12.66
  -6  14   4    7.72   14.23
   6 -14  -3   -9.00   11.67
  -6  14   3   10.63   13.46
  -6  14   2   10.97   13.83
   6 -14  -1    6.46   13.00
  -6  14   1   12.71   13.02
   6 -14   0    6.38   13.24
  -6  14   0   26.59   14.69
   6 -14   2    9.77   13.59
  -6  14  -2   37.40   14.45
   6 -14   3    1.68   12.86
  -6  14  -3   -7.81   12.02
   6 -14   4    7.26   14.32
  -6  14  -4   21.47   12.40
   6 -14   5   -1.32   13.75
  -6  14  -5    8.63   13.04
   6 -14   6   25.22   14.89
  -6  14  -6    6.66   11.49
   6 -14   7   12.69   12.33
  -6  14  -7   21.53   12.33
   5 -14  -7   -5.12   11.96
  -5  14   7    4.83   12.49
   5 -14  -6   16.28   13.15
  -5  14   6   22.02   13.66
   5 -14  -5  159.87   29.74
  -5  14   5  201.04   36.74
   5 -14  -4   13.92   12.84
  -5  14   4   33.16   15.84
   5 -14  -3   43.07   14.34
  -5  14   3   43.62   16.08
   5 -14  -2    2.38    8.96
  -5  14   2  -10.66   13.75
   5 -14  -1    3.68   12.29
  -5  14   1   -5.74   12.84
   5 -14   0   -2.47   12.66
  -5  14   0  -38.59   14.94
   5 -14   1    7.74   13.22
  -5  14  -1   10.08   11.69
   5 -14   2   10.83   13.13
  -5  14  -2   20.76   12.27
   5 -14   3   27.12   13.26
  -5  14  -3   18.62   12.13
   5 -14   4  -17.05   12.93
  -5  14  -4    9.82   11.54
   5 -14   5  259.02   44.61
  -5  14  -5  197.60   35.39
   5 -14   6   -8.80   14.32
  -5  14  -6   29.26   13.19
   5 -14   7   27.60   13.44
  -5  14  -7   24.45   13.22
   4 -14  -8    4.21   11.61
  -4  14   8    1.57   12.80
   4 -14  -7   23.12   12.93
  -4  14   7   11.32   13.48
   4 -14  -6    6.31   12.58
  -4  14   6   14.43   13.59
   4 -14  -5   -0.40   12.29
  -4  14   5   24.87   14.98
   4 -14  -4  -22.81   13.11
  -4  14   4   22.26   14.96
   4 -14  -3   14.45   12.27
  -4  14   3   -3.02   13.72
   4 -14  -2   17.05   11.01
  -4  14   2   -0.29   14.27
   4 -14  -1    0.04   12.73
  -4  14   1    8.96   13.99
   4 -14   0  -18.40   11.69
  -4  14   0  -16.46   13.97
   4 -14   1   -5.43   12.22
  -4  14  -1    8.60   12.47
   4 -14   2    7.68   11.61
  -4  14  -2   -6.31   11.52
   4 -14   3   16.92   13.35
  -4  14  -3   -3.49   11.08
   4 -14   4   20.19   12.00
  -4  14  -4   -4.24   10.88
   4 -14   5    0.11   13.08
  -4  14  -5   13.26   12.69
   4 -14   6   -1.54   13.81
  -4  14  -6   12.58   11.47
   4 -14   7    8.27   12.60
  -4  14  -7   40.88   14.56
   4 -14   8  -17.08   11.56
  -4  14  -8    2.25   11.61
   3 -14  -8   10.39   11.76
  -3  14   8    7.55   12.05
   3 -14  -7   -5.67   12.55
  -3  14   7   17.47   13.13
   3 -14  -6   74.24   19.24
  -3  14   6   60.89   17.63
   3 -14  -4    7.50   13.50
  -3  14   4   16.79   13.90
   3 -14  -3   15.22   12.82
  -3  14   3    5.89   12.66
   3 -14  -2  -10.97   11.12
  -3  14   2   -9.38   13.26
   3 -14  -1   -6.27   12.49
  -3  14   1   18.47   14.03
   3 -14   0    1.63   11.65
  -3  14   0    8.14   12.29
   3 -14   1   -6.05   11.34
  -3  14  -1    0.35   12.88
   3 -14   2   -4.46   12.51
  -3  14  -2    8.91   11.10
   3 -14   3   24.25   13.81
  -3  14  -3   21.53   11.38
   3 -14   4   -1.50   11.74
  -3  14  -4   16.64   11.30
   3 -14   5   62.39   17.52
  -3  14  -5   72.52   17.67
   3 -14   6    7.06   13.39
  -3  14  -6   -0.46   11.87
   3 -14   7   15.00   14.10
  -3  14  -7   29.01   13.35
   3 -14   8  -13.77   11.32
  -3  14  -8   29.04   12.62
   2 -14  -8    0.82   11.87
  -2  14   8  -12.22   12.27
   2 -14  -7   18.00   13.79
  -2  14   7   -0.11   12.91
   2 -14  -6   16.75   14.36
  -2  14   6   19.35   14.01
   2 -14  -5    4.83   12.29
  -2  14   5   15.27   13.61
   2 -14  -4   -8.89   13.19
  -2  14   4   35.83   14.65
   2 -14  -3  -10.44   12.55
  -2  14   3    1.46   13.15
   2 -14  -2  -12.44   14.10
  -2  14   2    6.11   14.03
   2 -14  -1   -6.53   12.80
  -2  14   1   23.14   13.44
   2 -14   0   30.60   13.41
  -2  14   0    5.76   11.49
   2 -14   1   -3.57   12.13
  -2  14  -1   -7.08   12.69
   2 -14   2   10.63   13.22
  -2  14  -2   14.21   11.43
   2 -14   3   -6.53   13.37
  -2  14  -3   17.74    9.82
   2 -14   4    1.65   13.22
  -2  14  -4    2.71   11.12
   2 -14   5   10.81   14.03
  -2  14  -5   -2.74   11.03
   2 -14   6  -18.64   13.52
  -2  14  -6  -22.48   12.64
   2 -14   7    5.82   12.49
  -2  14  -7    5.32   12.36
   2 -14   8   13.39   12.22
  -2  14  -8   -5.45   11.49
   1 -14  -8    3.38   11.45
  -1  14   8   10.24   12.47
   1 -14  -7    5.58   12.69
  -1  14   7   18.58   13.68
   1 -14  -6    7.83   13.35
  -1  14   6   -5.93   13.28
   1 -14  -5   31.15   13.48
  -1  14   5  -10.28   13.41
   1 -14  -4   10.24   13.11
  -1  14   4   10.10   12.88
   1 -14  -3   -7.74   13.26
  -1  14   3    5.98   13.06
   1 -14  -2   -1.61   12.80
  -1  14   2  -16.08   13.24
   1 -14  -1   -3.55   12.62
  -1  14   1   -0.71   12.88
   1 -14   0   -2.49   12.66
  -1  14   0  -22.28   11.69
   1 -14   1  -35.19   13.99
  -1  14  -1  -40.64   13.39
   1 -14   2   22.61   13.88
  -1  14  -2    3.88   11.16
   1 -14   3   18.82   14.39
   1 -14   4  124.90   24.89
  -1  14  -4  168.83   30.67
   1 -14   5    7.96   13.70
  -1  14  -5   23.76   12.62
   1 -14   6   -7.35   13.24
  -1  14  -6   35.46   13.64
   1 -14   7    6.57   13.15
  -1  14  -7   14.14   12.18
   1 -14   8   45.87   14.74
  -1  14  -8   28.59   11.49
   0 -14  -8   25.97   12.77
   0  14   8    2.27   12.49
   0 -14  -7    7.39   12.95
   0  14   7    5.32   12.86
   0 -14  -6  170.77   31.88
   0  14   6  216.04   38.59
   0 -14  -5    1.50   12.44
   0  14   5  -10.50   13.59
   0 -14  -4    5.25   12.82
   0  14   4   35.48   14.25
   0 -14  -2   88.14   20.41
   0  14   2   79.65   19.28
   0 -14  -1   -5.89   12.47
   0  14   1    4.85   12.33
   0 -14   0   53.68   15.75
   0  14   0  111.40   22.46
   0 -14   1   -1.81   12.42
   0  14  -1   -4.66   11.63
   0 -14   2   57.43   16.97
   0  14  -2   67.93   16.61
   0 -14   3    3.73   13.26
   0 -14   4   95.51   21.67
   0  14  -4  164.30   30.05
   0 -14   5   14.76   14.16
   0  14  -5    0.15   12.09
   0 -14   6  229.24   39.89
   0  14  -6  219.64   37.97
   0 -14   7   28.37   13.97
   0  14  -7  -10.46   11.94
   0 -14   8    6.11   12.27
   0  14  -8   10.90   10.81
  -1 -14  -8   23.98   12.84
   1  14   8    7.94   12.29
  -1 -14  -7   -0.51   12.91
   1  14   7    0.75   12.97
  -1 -14  -6    5.43   13.28
   1  14   6  -11.19   13.86
  -1 -14  -5  -10.68   12.88
   1  14   5   19.64   14.50
  -1 -14  -4   74.13   18.84
   1  14   4   74.49   18.84
  -1 -14  -3   11.27   14.47
   1  14   3   -0.38   13.35
  -1 -14  -2    2.21   13.83
   1  14   2   48.74   16.26
  -1 -14  -1   21.36   12.80
   1  14   1   24.40   14.08
  -1 -14   0   35.32   14.16
   1  14   0   75.50   17.69
  -1 -14   1   13.22   12.22
   1  14  -1   18.95   12.40
  -1 -14   3   -4.43   13.55
  -1 -14   4   20.67   13.11
   1  14  -4    3.31   11.30
  -1 -14   5    5.47   13.30
   1  14  -5   21.91   12.91
  -1 -14   7   -9.16   12.51
   1  14  -7    8.12   12.49
  -1 -14   8   18.56   13.04
   1  14  -8   24.53   11.25
  -2 -14  -2    3.31   14.36
  -2 -14  -1    7.02   11.91
  -2 -14   0   -4.24   11.91
  -2 -14   1    3.64   12.22
  -2 -14   2   37.97   14.61
   2  14  -2   12.84   12.44
  -2 -14   3  -14.83   13.26
  -2 -14   4    6.18   13.11
   2  14  -4    4.59   11.30
  -2 -14   5   -8.08   13.06
   2  14  -5   -1.52   11.25
  -2 -14   6   14.91   13.61
   2  14  -6   21.86   12.86
  -2 -14   7    4.99   12.82
   2  14  -7  -16.11   12.29
  -2 -14   8   11.83   12.40
   2  14  -8   -4.10    9.88
 -11  15   2   16.75   15.75
  11 -15  -1    3.75   14.21
 -11  15   1   13.50   16.00
  11 -15   0    7.79   14.01
 -11  15   0   -0.31   13.13
  11 -15   1   23.41   15.53
 -11  15  -1   -3.71   12.55
 -11  15  -2   -0.82   14.27
  10 -15  -3   25.53   15.38
 -10  15   3   -1.04   14.63
 -10  15   2   -1.15   13.48
  10 -15  -1    4.19   13.83
 -10  15   1  -13.64   15.58
  10 -15   0   17.05   15.22
 -10  15   0   11.54   14.36
  10 -15   1  -15.60   15.11
 -10  15  -1   21.03   14.12
  10 -15   2    4.41   14.78
 -10  15  -2    5.78   13.24
  10 -15   3    1.28   13.94
 -10  15  -3   22.22   14.12
   9 -15  -4   -1.46   10.99
  -9  15   4   -1.92   15.02
   9 -15  -3   77.75   20.06
  -9  15   3   60.52   18.51
  -9  15   2   16.46   14.87
   9 -15  -1  -16.48   14.80
  -9  15   1   -9.69   14.94
   9 -15   0   18.25   15.05
  -9  15   0   -9.80   14.16
   9 -15   1   33.34   17.25
  -9  15  -1   11.25   14.34
   9 -15   2   -1.96   15.00
  -9  15  -2    3.82   12.86
   9 -15   3   46.51   17.85
  -9  15  -3   68.15   18.51
   9 -15   4   -5.87   15.89
   8 -15  -5   -0.55   11.78
  -8  15   5   22.24   14.43
   8 -15  -4   -0.79   12.09
  -8  15   4   -7.74   13.66
   8 -15  -3   44.74   16.00
  -8  15   3   63.50   18.29
  -8  15   2   -4.04   15.51
   8 -15  -1  177.32   32.90
  -8  15   1  220.63   39.74
   8 -15   0   -1.06   12.77
  -8  15   0   12.07   12.84
   8 -15   1  124.99   25.66
  -8  15  -1  181.09   33.96
   8 -15   2   -0.40   14.08
  -8  15  -2   -4.17   12.31
   8 -15   3   64.29   19.28
  -8  15  -3   56.83   17.45
   8 -15   4   43.77   17.56
  -8  15  -4    8.19   12.58
   7 -15  -6   38.48   15.51
  -7  15   6    1.19   13.30
   7 -15  -5    6.60   12.22
  -7  15   5   17.08   14.50
   7 -15  -4   -7.77   12.49
  -7  15   4   -1.83   14.30
   7 -15  -3   37.77   15.31
  -7  15   3   29.67   15.44
  -7  15   2   16.72   15.49
   7 -15  -1   16.37   12.91
  -7  15   1   40.49   15.91
   7 -15   0    7.61   13.08
  -7  15   0  -13.39   13.33
   7 -15   1   25.57   14.23
  -7  15  -1   19.70   14.56
   7 -15   2   46.16   15.73
  -7  15  -2   17.41   12.71
   7 -15   3   27.67   14.03
  -7  15  -3   15.53   12.84
   7 -15   4    5.80   13.92
  -7  15  -4   13.48   12.80
   7 -15   5   23.06   13.92
  -7  15  -5   -9.82   11.14
   7 -15   6    7.68   12.62
  -7  15  -6    6.71   11.61
   6 -15  -6   -8.78   12.00
  -6  15   6   29.76   13.90
   6 -15  -5    4.85   13.22
  -6  15   5   35.85   16.13
   6 -15  -4   37.57   15.49
  -6  15   4    9.24   14.76
   6 -15  -3   49.69   15.97
  -6  15   3   -6.13   14.96
  -6  15   2    4.50   14.80
   6 -15  -1   16.28   12.64
  -6  15   1   13.94   13.44
   6 -15   0   37.40   14.61
  -6  15   0   35.48   15.18
   6 -15   1   21.93   14.01
  -6  15  -1   60.74   17.92
   6 -15   2   21.25   14.19
  -6  15  -2   14.74   12.86
   6 -15   3   -4.39   14.61
  -6  15  -3   17.52   13.28
   6 -15   4   33.14   14.98
  -6  15  -4   22.57   12.80
   6 -15   5   14.56   14.65
  -6  15  -5   28.00   13.83
   6 -15   6   26.96   13.90
  -6  15  -6    4.48   12.00
   5 -15  -7  -10.08   12.69
   5 -15  -6   43.16   14.72
  -5  15   6   34.46   15.42
   5 -15  -5   22.44   13.99
  -5  15   5   18.25   14.05
   5 -15  -4  369.56   61.38
  -5  15   4  424.05   70.05
   5 -15  -3    5.69   12.95
  -5  15   3    4.28   14.94
   5 -15  -2   12.62   10.46
  -5  15   2   60.94   18.44
   5 -15  -1    4.43   12.71
  -5  15   1   15.47   14.03
   5 -15   0   21.18   13.39
  -5  15   0   16.11   14.41
   5 -15   1   -6.16   13.55
  -5  15  -1   -8.49   13.15
   5 -15   2   18.64   13.02
  -5  15  -2   34.29   14.74
   5 -15   3   -3.00   14.14
  -5  15  -3  -14.43   13.55
   5 -15   4  391.18   64.91
  -5  15  -4  351.69   58.53
   5 -15   5    1.52   14.19
  -5  15  -5    4.21   12.95
   5 -15   6   11.16   13.57
  -5  15  -6   15.42   12.11
  -5  15  -7  -11.27   12.40
   4 -15  -7    0.97   11.27
  -4  15   7    0.44   13.44
   4 -15  -5   -6.33   12.95
  -4  15   5   19.06   14.23
   4 -15  -4   10.37   12.58
  -4  15   4   12.16   13.57
   4 -15  -3    4.19   12.73
  -4  15   3    6.82   14.08
   4 -15  -2   36.01   12.58
  -4  15   2    8.32   14.74
   4 -15  -1   -2.87   12.60
  -4  15   1   -3.49   13.55
   4 -15   0  207.39   36.93
  -4  15   0  167.86   31.33
   4 -15   1    5.03   13.00
  -4  15  -1   22.61   13.13
   4 -15   2   21.40   13.97
  -4  15  -2   18.93   13.83
   4 -15   3   -5.98   13.30
  -4  15  -3    8.43   12.47
   4 -15   4   -5.05   13.79
  -4  15  -4  -15.16   11.56
   4 -15   5   18.03   13.68
  -4  15  -5   18.84   13.08
   4 -15   6   88.27   20.58
  -4  15  -6   77.40   18.16
   4 -15   7   29.74   13.72
  -4  15  -7    6.97   11.14
   3 -15  -7   -4.72   11.98
  -3  15   7   25.84   13.02
   3 -15  -6   32.74   14.80
  -3  15   6    8.05   12.97
   3 -15  -5   20.70   14.80
  -3  15   5   21.42   13.94
   3 -15  -4   38.04   14.32
  -3  15   4    1.10   13.19
   3 -15  -3   30.95   14.14
  -3  15   3   11.87   13.46
   3 -15  -2   -2.69   11.91
  -3  15   2    0.02   13.02
   3 -15  -1   60.83   16.94
  -3  15   1   95.42   20.58
   3 -15   0   -6.99   13.30
  -3  15   0   18.11   12.91
   3 -15   1   45.56   15.18
  -3  15  -1    3.44   12.66
   3 -15   2   14.52   13.35
  -3  15  -2    7.66   13.00
   3 -15   3    6.40   13.04
  -3  15  -3   28.75   13.15
   3 -15   4   18.49   14.67
  -3  15  -4   27.12   12.47
   3 -15   5    1.85   14.01
  -3  15  -5   21.36   13.72
   3 -15   6   -5.01   13.46
  -3  15  -6    9.75   12.13
   3 -15   7   -9.66   11.89
  -3  15  -7   -8.94   12.31
   2 -15  -7   14.34   12.91
  -2  15   7   12.86   12.53
   2 -15  -6   28.42   14.45
  -2  15   6   -0.42   13.02
   2 -15  -5    6.57   13.83
  -2  15   5   -8.30   12.73
   2 -15  -4   26.59   13.48
  -2  15   4   -2.36   13.35
   2 -15  -3    8.60   12.22
  -2  15   3   -5.27   13.04
   2 -15  -2   19.15   12.86
  -2  15   2   10.24   13.97
   2 -15  -1    6.09   12.38
  -2  15   1    8.47   12.60
   2 -15   0   -3.40   13.61
  -2  15   0   30.76   14.27
   2 -15   1   17.17   13.79
  -2  15  -1   21.11   12.33
   2 -15   2   -9.18   14.30
  -2  15  -2    0.00   12.38
   2 -15   3    3.68   12.38
  -2  15  -3    6.24    9.95
   2 -15   4  -12.73   14.43
  -2  15  -4   -6.07   11.34
   2 -15   5   12.20   14.67
  -2  15  -5    9.02   12.53
   2 -15   6    8.05   14.69
  -2  15  -6   -6.77   12.44
   2 -15   7   22.02   13.41
  -2  15  -7   35.26   13.24
   1 -15  -6   24.20   14.12
  -1  15   6   -3.31   12.60
   1 -15  -5   76.58   19.28
  -1  15   5   63.41   17.72
   1 -15  -4   22.95   13.26
  -1  15   4   27.27   14.76
   1 -15  -3   84.24   19.61
  -1  15   3   82.56   20.06
   1 -15  -2    3.33   11.41
  -1  15   2    9.22   13.13
   1 -15  -1    2.27   12.13
  -1  15   1   11.23   12.93
   1 -15   0   12.36   13.55
  -1  15   0   -1.59   12.71
   1 -15   1   -7.83   14.03
  -1  15  -1   16.79   12.77
   1 -15   2  -21.47   15.71
  -1  15  -2    8.47   13.00
   1 -15   3   94.61   21.11
   1 -15   4   -2.63   13.86
  -1  15  -4   11.32   11.34
   1 -15   5   37.07   15.44
  -1  15  -5   14.78   13.19
   1 -15   6  107.07   23.14
  -1  15  -6   52.84   16.24
   1 -15   7   23.30   13.75
  -1  15  -7    8.78   11.38
   0 -15  -7   73.58   18.62
   0  15   7  139.70   26.94
   0 -15  -6  -18.00   13.72
   0  15   6  -13.70   13.17
   0 -15  -5  328.08   54.94
   0  15   5  210.28   37.60
   0 -15  -4   -6.51   12.97
   0  15   4   15.16   14.21
   0 -15  -3   47.15   15.18
   0  15   3   58.25   17.12
   0 -15  -2    3.93   11.80
   0  15   2   11.63   13.11
   0 -15  -1  535.25   86.49
   0  15   1  454.94   74.37
   0 -15   0  -12.86   13.24
   0  15   0    0.11   13.48
   0 -15   1  388.09   64.16
   0  15  -1  400.00   65.79
   0 -15   2   -7.70   13.88
   0  15  -2    3.66   12.71
   0 -15   3   21.47   14.08
   0 -15   4   -7.94   13.81
   0  15  -4   20.34   12.00
   0 -15   5  233.21   41.02
   0  15  -5  245.34   42.25
   0 -15   6  -19.06   13.88
   0  15  -6  -19.75   13.24
   0 -15   7  103.70   22.31
   0  15  -7  120.00   23.39
  -1 -15  -7   12.82   13.26
   1  15   7   24.58   13.28
  -1 -15  -6    0.99   14.03
   1  15   6   -1.81   13.70
  -1 -15  -5   61.27   18.47
   1  15   5   61.86   18.49
  -1 -15  -4   19.64   13.94
   1  15   4    1.21   14.19
  -1 -15  -3   99.66   21.58
   1  15   3   97.23   21.97
  -1 -15  -2   10.52   12.05
   1  15   2   -6.31   12.58
  -1 -15  -1   17.14   12.22
   1  15   1    6.00   12.88
  -1 -15   0  -10.61   13.35
   1  15   0   31.20   14.83
  -1 -15   1   20.78   13.44
   1  15  -1    4.19   12.91
  -1 -15   2    1.52   13.50
   1  15  -2   22.13   13.64
  -1 -15   3   90.86   20.70
  -1 -15   4   24.49   14.89
   1  15  -4   13.99   11.45
  -1 -15   6   28.35   14.72
   1  15  -6    3.18   12.77
  -2 -15  -4  -11.05   12.22
  -2 -15  -3  -15.05   12.88
  -2 -15  -2    9.07   12.51
  -2 -15  -1    7.72   12.02
  -2 -15   0  -16.06   12.82
  -2 -15   1   19.75   12.86
   2  15  -1   22.17   13.15
  -2 -15   2   -9.29   13.97
   2  15  -2    2.49   12.58
  -2 -15   3   15.71   13.17
  -2 -15   4  -12.09   13.92
   2  15  -4   -0.60   11.36
  -2 -15   5   14.43   14.39
   2  15  -5   12.62   13.15
  -2 -15   6   -1.52   13.24
   2  15  -6    5.52   12.73
  -2 -15   7    7.28   13.86
   2  15  -7   -6.80   11.30
  -9  16   2   54.19   17.85
   9 -16  -1   -5.71   12.18
  -9  16   1   17.76   15.53
   9 -16   0   -4.74   12.84
  -9  16   0    5.30   13.02
   9 -16   1    0.00   13.92
  -9  16  -1   11.14   12.97
   9 -16   2   98.86   22.48
  -9  16  -2   66.23   18.29
   9 -16   3   -1.85   16.24
   8 -16  -4   29.96   15.25
  -8  16   4   61.71   19.77
   8 -16  -3    1.63   13.17
  -8  16   3  -10.55   14.36
  -8  16   2   29.72   15.47
   8 -16  -1   26.19   13.70
  -8  16   1   21.86   16.30
   8 -16   0   15.47   13.75
  -8  16   0   34.13   15.31
   8 -16   1   22.64   13.90
  -8  16  -1    3.64   13.24
   8 -16   2   83.42   20.21
  -8  16  -2   39.05   14.54
   8 -16   3   -6.09   13.90
  -8  16  -3    2.40   12.55
   8 -16   4   94.69   22.06
  -8  16  -4   79.65   18.58
   7 -16  -4   18.29   12.42
  -7  16   4   23.03   16.08
   7 -16  -3   39.93   15.09
  -7  16   3   43.57   16.81
  -7  16   2   -3.53   14.72
   7 -16  -1   17.56   13.75
  -7  16   1   18.60   15.89
   7 -16   0  -30.40   12.80
  -7  16   0  -13.52   14.56
   7 -16   1   10.37   14.23
  -7  16  -1   46.09   17.21
   7 -16   2   42.03   15.42
  -7  16  -2    5.23   12.71
   7 -16   3   74.37   19.83
  -7  16  -3   34.86   14.52
   7 -16   4   15.64   15.16
  -7  16  -4   -5.52   13.13
   6 -16  -5   29.87   13.30
  -6  16   5   10.30   14.03
   6 -16  -4    1.88   11.23
  -6  16   4    6.35   14.12
   6 -16  -3   68.84   18.44
  -6  16   3   71.11   19.39
  -6  16   2   10.92   15.69
   6 -16  -1   47.28   15.82
  -6  16   1   84.04   21.27
   6 -16   0   37.68   15.25
  -6  16   0   70.38   18.40
   6 -16   1   35.52   15.86
  -6  16  -1   50.17   16.79
   6 -16   2   35.37   15.00
  -6  16  -2   31.82   13.86
   6 -16   3   69.12   18.84
  -6  16  -3   45.98   15.55
   6 -16   5   29.39   14.05
  -6  16  -5   -5.30   11.52
   5 -16  -5   16.48   13.24
  -5  16   5   -5.60   13.26
   5 -16  -4   -3.75   11.65
  -5  16   4   -8.52   13.52
   5 -16  -3   55.29   16.90
  -5  16   3   33.78   16.06
   5 -16  -2  -10.04   10.35
  -5  16   2  -12.69   15.07
   5 -16  -1  487.37   79.54
  -5  16   1  509.44   83.31
   5 -16   0   44.74   16.30
  -5  16   0   61.38   17.80
   5 -16   1  613.80   99.11
  -5  16  -1  634.09  102.42
   5 -16   2   -9.64   13.30
  -5  16  -2   -2.40   11.91
   5 -16   3    6.29   12.91
  -5  16  -3   32.61   14.14
   5 -16   4   44.30   16.37
  -5  16  -4    6.75   13.48
   5 -16   5  -25.37   13.28
  -5  16  -5   -5.14   11.38
   4 -16  -6   16.30   13.86
  -4  16   6   28.90   14.96
   4 -16  -5   34.51   15.14
  -4  16   5    2.21   13.15
   4 -16  -4  -15.33   11.94
  -4  16   4   15.11   15.18
   4 -16  -3  164.86   30.71
  -4  16   3  186.81   34.68
   4 -16  -1  143.23   27.58
  -4  16   1  177.26   33.14
   4 -16   0   48.45   16.48
  -4  16   0   52.22   16.57
   4 -16   1  139.00   27.16
  -4  16  -1  235.41   41.57
   4 -16   2   12.86   13.83
  -4  16  -2   13.48   12.62
   4 -16   3  146.92   28.68
  -4  16  -3  120.40   24.29
   4 -16   4   10.02   14.27
  -4  16  -4   -6.40   12.64
   4 -16   5   10.74   13.59
  -4  16  -5   10.37   11.47
   4 -16   6    3.38   13.30
  -4  16  -6  -13.22   11.23
   3 -16  -6   -3.04   13.66
  -3  16   6    3.40   12.64
   3 -16  -5    2.40   15.40
  -3  16   5    0.00   13.72
   3 -16  -4   11.12   13.41
  -3  16   4  -13.00   14.01
   3 -16  -3   46.07   15.62
  -3  16   3   -1.85   13.99
   3 -16  -2  -13.06   14.45
  -3  16   2   25.99   14.91
   3 -16  -1   22.33   13.81
  -3  16   1   55.49   16.90
   3 -16   0   20.87   14.52
  -3  16   0    6.82   12.86
   3 -16   1   47.02   16.41
  -3  16  -1   57.78   17.21
   3 -16   2   60.81   17.45
  -3  16  -2   23.23   13.48
   3 -16   3   22.28   14.16
  -3  16  -3   41.70   15.36
   3 -16   4   -0.42   13.88
  -3  16  -4   -9.73   11.96
   3 -16   5    7.90   14.19
  -3  16  -5  -13.70   12.29
   3 -16   6   22.39   13.37
  -3  16  -6   14.14   11.61
   2 -16  -6    5.71   13.19
  -2  16   6    4.35   13.28
   2 -16  -5    5.45   15.31
  -2  16   5   12.86   13.68
   2 -16  -4    9.49   13.90
  -2  16   4   15.71   14.67
   2 -16  -3   -2.05   13.46
  -2  16   3    9.00   13.77
   2 -16  -2    9.09   14.32
  -2  16   2   21.86   14.58
   2 -16  -1   10.08   13.28
  -2  16   1  -13.86   13.61
   2 -16   0   65.04   18.58
  -2  16   0   50.57   16.83
   2 -16   1   12.62   13.81
  -2  16  -1    0.79   12.84
   2 -16   2   -4.88   13.72
  -2  16  -2    4.13   12.36
   2 -16   3    1.30   14.10
  -2  16  -3    6.91   12.11
   2 -16   4  -11.05   14.47
  -2  16  -4  -15.27   12.00
   2 -16   5   -9.47   14.89
  -2  16  -5    3.68   12.20
   2 -16   6   -5.52   12.73
  -2  16  -6    8.87   11.30
   1 -16  -6  -18.86   12.88
  -1  16   6   20.85   13.57
   1 -16  -5   -2.60   14.50
  -1  16   5  -12.36   13.19
   1 -16  -4    1.83   13.86
  -1  16   4   30.31   15.47
   1 -16  -3    4.10   13.39
  -1  16   3   18.93   14.45
   1 -16  -2  297.85   50.79
  -1  16   2  303.37   51.74
   1 -16  -1   42.91   15.91
  -1  16   1   46.35   16.46
   1 -16   0   27.47   14.58
  -1  16   0   -7.92   13.39
   1 -16   1   44.24   16.39
  -1  16  -1   54.98   16.64
   1 -16   2  193.98   35.63
  -1  16  -2  198.81   36.21
   1 -16   3   18.09   14.27
  -1  16  -3    2.96   11.69
   1 -16   4   49.62   17.30
  -1  16  -4   52.02   15.38
   1 -16   5    8.10   15.42
  -1  16  -5   10.92   12.25
   1 -16   6    2.12   13.35
  -1  16  -6    2.21   11.10
   0 -16  -6   11.43   13.24
   0  16   6   17.47   14.21
   0 -16  -5   12.13   14.87
   0  16   5    7.19   13.99
   0 -16  -4  106.19   23.39
   0  16   4   78.24   19.92
   0 -16  -3    4.63   14.36
   0  16   3   -3.79   13.94
   0 -16  -2  142.62   28.24
   0  16   2  135.53   27.51
   0 -16  -1   -3.11   13.52
   0  16   1    4.04   13.72
   0 -16   1   -3.22   13.57
   0  16  -1    2.58   13.26
   0 -16   2  141.01   28.04
   0  16  -2  168.30   31.51
   0 -16   3  -10.63   13.66
   0 -16   4   63.08   18.36
   0  16  -4   56.81   16.06
   0 -16   5  -16.99   15.82
   0  16  -5   -3.99   12.77
   0 -16   6    3.29   13.22
   0  16  -6    3.40   11.32
  -1 -16  -6   28.17   14.45
   1  16   6   64.67   18.27
  -1 -16  -5    0.79   14.34
   1  16   5   10.28   13.22
  -1 -16  -4   34.37   15.64
   1  16   4   35.72   16.13
  -1 -16  -3   -9.16   14.30
   1  16   3   12.25   14.67
  -1 -16  -2  183.45   34.04
   1  16   2  209.00   37.86
  -1 -16  -1   45.36   16.53
   1  16   1   50.99   16.86
  -1 -16   0   36.27   15.69
   1  16   0   25.77   14.61
  -1 -16   1  484.95   79.27
   1  16  -1  395.15   65.59
  -1 -16   2  313.30   52.95
   1  16  -2  350.36   58.45
  -1 -16   3   15.11   14.27
  -1 -16   4   31.00   15.51
   1  16  -4   56.68   15.97
  -1 -16   5  -18.44   15.36
   1  16  -5   29.76   13.19
  -1 -16   6   42.27   15.40
   1  16  -6   39.98   13.35
  -2 -16  -6   14.50   13.72
  -2 -16  -5   -4.74   14.78
  -2 -16  -4   16.94   13.86
  -2 -16  -3   -6.64   14.23
  -2 -16  -2   -6.91   13.97
  -2 -16  -1    0.62   13.75
   2  16   1   46.53   16.06
  -2 -16   0   73.29   19.81
   2  16   0   62.35   18.03
  -2 -16   1   -9.77   13.46
   2  16  -1    6.24   13.94
  -2 -16   2    9.60   14.69
   2  16  -2   -9.16   13.00
  -2 -16   3  -19.00   13.79
  -2 -16   4   -1.37   14.16
   2  16  -4   14.34   12.42
  -2 -16   5   17.92   15.33
   2  16  -5    8.21   12.53
  -2 -16   6    4.43   12.91
   2  16  -6   -2.63   11.38
   8 -17   0    2.71   13.17
  -8  17   0   -6.71   15.05
  -8  17  -1   16.19   14.08
  -7  17   2   -6.75   13.81
   7 -17  -1   32.76   12.93
  -7  17   1   14.05   14.36
   7 -17   0    9.77   12.47
  -7  17   0   -3.68   12.75
   7 -17   1   12.29   12.42
  -7  17  -1   19.19   13.79
   7 -17   2    9.64   12.71
  -7  17  -2    8.03   12.97
   6 -17  -3    1.13   13.28
  -6  17   3  -14.43   14.52
  -6  17   2   10.50   14.05
   6 -17  -1   -5.52   12.18
  -6  17   1   27.53   16.88
   6 -17   0    0.09   13.35
  -6  17   0   11.01   12.69
   6 -17   1  -14.56   11.52
  -6  17  -1    7.92   13.48
   6 -17   2    2.60   12.66
  -6  17  -2   22.37   13.88
   6 -17   3  -14.85   13.75
  -6  17  -3  -15.40   12.69
   5 -17  -4   -1.68   11.78
  -5  17   4   17.56   15.36
   5 -17  -3   -6.69   13.37
  -5  17   3   12.66   14.03
  -5  17   2    2.07   14.03
   5 -17  -1   -0.24   12.05
  -5  17   1   15.60   15.86
   5 -17   0  -11.08   12.20
  -5  17   0   -1.70   13.35
   5 -17   1   13.15   13.15
  -5  17  -1   25.22   14.78
   5 -17   2   -6.13   13.72
  -5  17  -2   -1.32   13.17
   5 -17   3    6.07   13.50
  -5  17  -3    1.94   12.44
   5 -17   4  -11.69   13.22
  -5  17  -4   14.08   12.75
   4 -17  -4    6.84   12.18
  -4  17   4    1.96   16.81
   4 -17  -3    9.55   13.35
  -4  17   3   21.93   15.07
   4 -17  -2    4.77   11.10
  -4  17   2   -1.59   14.54
   4 -17  -1   -7.26   12.53
  -4  17   1   17.43   15.95
   4 -17   0  -18.29   12.09
  -4  17   0    2.16   13.24
   4 -17   1   33.78   15.47
  -4  17  -1    1.59   14.43
   4 -17   2   10.81   14.16
  -4  17  -2   21.18   14.52
   4 -17   3   38.92   15.36
  -4  17  -3    5.98   13.41
   4 -17   4    8.30   14.56
  -4  17  -4    9.22   12.49
   3 -17  -5   21.49   13.28
  -3  17   5   -5.34   13.50
   3 -17  -4   27.98   13.61
  -3  17   4   23.12   14.87
   3 -17  -3    0.84   13.83
  -3  17   3   -2.80   13.50
   3 -17  -2    6.16   13.55
  -3  17   2   -5.67   14.27
   3 -17  -1   28.17   14.32
  -3  17   1   -9.16   14.10
   3 -17   0   13.81   13.19
  -3  17   0    8.01   12.88
   3 -17   1   26.92   15.05
  -3  17  -1   28.95   15.22
   3 -17   2   15.89   13.39
  -3  17  -2   -2.12   13.00
   3 -17   3   17.80   13.57
  -3  17  -3   -6.02   12.49
   3 -17   4   28.99   14.67
  -3  17  -4    9.20   13.08
   3 -17   5   12.29   12.62
  -3  17  -5  -30.18   13.04
   2 -17  -5   -7.48   12.25
  -2  17   5  -19.11   12.95
   2 -17  -4   -9.38   12.44
  -2  17   4  -30.05   14.23
   2 -17  -3    0.13   13.88
  -2  17   3   11.08   14.39
   2 -17  -2   24.98   15.27
  -2  17   2   36.05   16.11
   2 -17  -1    7.83   13.81
  -2  17   1   16.92   14.94
   2 -17   0   37.40   15.18
  -2  17   0   26.67   14.87
   2 -17   1    9.38   14.52
  -2  17  -1   26.19   14.85
   2 -17   2   -6.64   13.44
  -2  17  -2   29.67   14.39
   2 -17   3    6.42   13.48
  -2  17  -3  -11.27   12.75
   2 -17   4    9.40   14.27
  -2  17  -4  -13.35   12.69
   2 -17   5   25.28   13.86
  -2  17  -5  -10.22   10.94
   1 -17  -5  -12.91   12.60
  -1  17   5   -8.03   13.08
   1 -17  -4    3.91   12.71
  -1  17   4   11.21   14.27
   1 -17  -3   50.26   16.94
  -1  17   3   35.65   15.82
   1 -17  -2   -0.97   13.99
  -1  17   2  -12.44   14.69
   1 -17  -1   35.10   14.96
  -1  17   1   67.27   18.78
   1 -17   0    2.60   14.25
  -1  17   0   28.57   14.65
   1 -17   1   74.84   19.88
  -1  17  -1   91.16   22.42
   1 -17   2   19.06   14.61
  -1  17  -2   16.83   13.00
   1 -17   3   15.47   13.97
  -1  17  -3    2.91   12.42
   1 -17   4    2.67   13.64
  -1  17  -4  -16.02   12.27
   1 -17   5    8.89   12.93
  -1  17  -5   24.20   12.09
   0 -17  -5   46.53   15.47
   0  17   5   18.07   13.86
   0 -17  -4  -11.01   12.02
   0  17   4    8.52   13.50
   0 -17  -3   54.47   17.76
   0  17   3   50.13   17.21
   0 -17  -2   -7.92   14.27
   0  17   2   21.97   15.18
   0 -17  -1  148.26   28.97
   0  17   1   72.54   19.86
   0 -17   0   -0.26   13.99
   0  17   0    9.16   14.16
   0 -17   1   84.79   20.43
   0  17  -1   78.90   20.08
   0 -17   2   19.42   13.79
   0  17  -2   -8.41   13.30
   0 -17   3   42.80   16.02
   0  17  -3   45.56   14.36
   0 -17   4   10.13   14.03
   0  17  -4    5.30   12.31
   0 -17   5   17.50   13.75
   0  17  -5   41.46   14.10
  -1 -17  -5   18.18   13.70
   1  17   5   37.93   15.25
  -1 -17  -4   23.25   13.79
   1  17   4   12.60   14.30
  -1 -17  -3   85.30   21.09
   1  17   3  108.53   23.94
  -1 -17  -2    1.74   13.57
   1  17   2    2.93   15.16
  -1 -17  -1   30.60   15.02
   1  17   1   28.35   14.94
  -1 -17   0   37.49   15.80
   1  17   0  -15.36   13.44
  -1 -17   1  107.36   23.78
   1  17  -1   76.25   20.30
  -1 -17   2   -3.00   13.68
   1  17  -2   10.50   13.17
  -1 -17   3   31.55   14.74
  -1 -17   4    6.35   14.05
   1  17  -4  -25.79   13.11
  -1 -17   5    7.55   13.30
   1  17  -5  -15.71   11.69
  -2 -17  -5    1.28   13.46
  -2 -17  -4    3.44   13.83
  -2 -17  -3   32.17   15.22
   2  17   3    7.10   13.41
  -2 -17  -2    4.21   14.32
   2  17   2    6.95   14.50
  -2 -17  -1    8.60   14.08
   2  17   1   17.61   14.61
  -2 -17   0   26.94   14.78
   2  17   0   20.45   13.99
  -2 -17   1   -8.08   13.81
   2  17  -1   44.30   16.88
  -2 -17   2   -7.94   13.19
   2  17  -2   -6.64   13.68
  -2 -17   3    3.75   13.06
  -2 -17   4  -12.36   13.41
   2  17  -4    7.02   12.33
  -2 -17   5    6.93   13.72
   2  17  -5    8.49   11.67
   5 -18  -1   27.69   13.70
  -5  18   1   45.83   17.25
   5 -18   0   20.30   13.19
  -5  18   0   -4.32   13.17
   4 -18  -2   -0.53   10.66
  -4  18   2   38.79   17.12
   4 -18  -1   67.09   17.54
  -4  18   1   63.03   19.50
   4 -18   0   15.00   13.08
  -4  18   0   19.81   12.86
   4 -18   1   72.50   18.00
  -4  18  -1   16.92   15.02
   4 -18   2   32.06   14.39
  -4  18  -2   14.85   13.17
   3 -18  -3    9.00   13.64
  -3  18   3   14.94   15.09
   3 -18  -2    5.78   12.11
  -3  18   2   21.31   14.50
   3 -18  -1    6.51   12.71
  -3  18   1   -1.99   14.58
   3 -18   0   -6.35   13.48
  -3  18   0   -2.45   12.33
   3 -18   1   10.33   13.13
  -3  18  -1   11.49   13.94
   3 -18   2   23.45   14.14
  -3  18  -2   10.35   13.81
   3 -18   3   17.65   14.03
  -3  18  -3   20.65   12.95
   2 -18  -3    5.93   14.01
  -2  18   3    6.13   13.64
   2 -18  -2  -11.12   12.53
  -2  18   2   17.47   13.97
   2 -18  -1   11.52   13.97
  -2  18   1   62.17   20.03
   2 -18   0    2.40   14.25
  -2  18   0   10.97   12.66
   2 -18   1   -1.41   12.60
  -2  18  -1   10.39   14.12
   2 -18   2   18.82   14.74
  -2  18  -2   30.07   14.76
   2 -18   3   24.56   14.32
  -2  18  -3   -5.69   12.53
   1 -18  -3    9.40   14.14
  -1  18   3  -25.11   13.88
   1 -18  -2   47.35   15.84
  -1  18   2   78.30   19.72
   1 -18  -1   14.32   14.01
  -1  18   1   35.50   17.94
   1 -18   0  112.61   24.64
  -1  18   0   92.14   20.96
   1 -18   1   22.95   13.88
  -1  18  -1    8.01   13.50
   1 -18   2   42.21   16.50
  -1  18  -2   97.25   22.28
   1 -18   3   -6.07   13.19
  -1  18  -3    2.60   12.36
   0 -18  -3    8.63   13.86
   0  18   3   -6.11   13.24
   0 -18  -2  105.00   22.75
   0  18   2   56.15   17.58
   0 -18  -1   14.87   13.72
   0  18   1  -33.67   15.93
   0 -18   0   72.79   19.31
   0  18   0   65.00   17.50
   0 -18   1   -4.35   14.03
   0  18  -1  -13.24   13.13
   0 -18   2  117.00   24.91
   0  18  -2   98.03   22.31
   0 -18   3    3.75   13.57
   0  18  -3   -5.07   11.72
  -1 -18  -3   -7.74   13.28
   1  18   3    2.58   13.48
  -1 -18  -2   36.89   14.72
   1  18   2   49.75   17.19
  -1 -18  -1   17.30   14.25
   1  18   1   30.78   16.90
  -1 -18   1   17.61   13.39
   1  18  -1   17.85   14.34
  -1 -18   2   61.73   18.31
   1  18  -2   48.36   16.70
  -1 -18   3    2.07   13.41
  -2 -18  -3   22.68   14.50
   2  18   3   -0.82   13.94
  -2 -18  -2   29.92   13.72
   2  18   2   12.25   15.38
  -2 -18  -1   10.55   13.46
   2  18   1  -16.88   14.63
  -2 -18   0   12.40   14.08
   2  18   0   35.61   14.56
  -2 -18   1   -3.51   13.44
   2  18  -1   -6.88   13.37
  -2 -18   2    6.09   14.14
   2  18  -2   19.17   14.98
  -2 -18   3   19.17   13.72
   0   0   0    0.00    0.00

_computing_structure_solution     'SHELXT 2014/5 (Sheldrick, 2014)'
;
_shelx_hkl_checksum              26938
loop_
_space_group_symop_operation_xyz
'x, y, z'
'-x+1/2, -y, z+1/2'
'-x, y+1/2, -z'
'x+1/2, -y+1/2, -z+1/2'
'-x, -y, -z'
'x-1/2, y, -z-1/2'
'x, -y-1/2, z'
'-x-1/2, y-1/2, z-1/2'
loop_
_atom_site_label
_atom_site_type_symbol
_atom_site_fract_x
_atom_site_fract_y
_atom_site_fract_z
_atom_site_U_iso_or_equiv
_atom_site_adp_type
_atom_site_occupancy
_atom_site_site_symmetry_order
_atom_site_calc_flag
_atom_site_refinement_flags_posn
_atom_site_refinement_flags_adp
_atom_site_refinement_flags_occupancy
_atom_site_disorder_assembly
_atom_site_disorder_group
Si1 Si 0.4221(8) 1.0561(5) 0.6629(8) 0.017(4) Uiso 1 1 d D . . . .
Si2 Si 0.3076(8) 1.0293(5) 0.8108(8) 0.016(4) Uiso 1 1 d D . . . .
Si3 Si 0.2809(8) 1.0625(5) 1.0299(8) 0.011(4) Uiso 1 1 d D . . . .
Si4 Si 0.1205(8) 1.0644(4) 1.0270(7) 0.009(4) Uiso 1 1 d D . . . .
Si5 Si 0.0727(8) 1.0279(4) 0.8161(7) 0.004(4) Uiso 1 1 d D . . . .
Si6 Si 0.1861(8) 1.0588(5) 0.6696(7) 0.013(4) Uiso 1 1 d D . . . .
Si7 Si 0.4222(8) 0.8287(4) 0.6738(8) 0.015(4) Uiso 1 1 d D . . . .
Si8 Si 0.3080(8) 0.8703(5) 0.8153(8) 0.013(4) Uiso 1 1 d D . . . .
Si9 Si 0.2758(7) 0.8273(4) 1.0303(8) 0.005(4) Uiso 1 1 d D . . . .
Si10 Si 0.1183(7) 0.8271(4) 1.0293(7) 0.007(4) Uiso 1 1 d D . . . .
Si11 Si 0.0708(8) 0.8689(5) 0.8162(8) 0.015(4) Uiso 1 1 d D . . . .
Si12 Si 0.1869(9) 0.8274(4) 0.6800(8) 0.026(5) Uiso 1 1 d D . . . .
O1 O 0.3714(12) 1.0568(13) 0.7530(17) 0.056(9) Uiso 1 1 d D . . . .
O2 O 0.3077(19) 1.0589(11) 0.9195(10) 0.051(8) Uiso 1 1 d D . . . .
O3 O 0.2007(8) 1.0606(12) 1.026(2) 0.059(9) Uiso 1 1 d D . . . .
O4 O 0.0947(17) 1.0635(9) 0.9159(10) 0.031(7) Uiso 1 1 d D . . . .
O5 O 0.1152(12) 1.0533(13) 0.7240(16) 0.053(8) Uiso 1 1 d D . . . .
O6 O 0.2420(12) 1.0532(13) 0.7531(18) 0.053(8) Uiso 1 1 d D . . . .
O7 O 0.3759(13) 0.8453(14) 0.7655(18) 0.067(10) Uiso 1 1 d D . . . .
O8 O 0.3080(18) 0.8458(13) 0.9265(10) 0.057(9) Uiso 1 1 d D . . . .
O9 O 0.1970(7) 0.8440(10) 1.0302(17) 0.035(7) Uiso 1 1 d D . . . .
O10 O 0.091(2) 0.8385(13) 0.9203(13) 0.066(10) Uiso 1 1 d D . . . .
O11 O 0.1148(12) 0.8432(11) 0.7260(16) 0.044(8) Uiso 1 1 d D . . . .
O12 O 0.2401(13) 0.8514(12) 0.760(2) 0.060(10) Uiso 1 1 d D . . . .
O13 O 0.307(2) 0.9498(5) 0.8190(19) 0.050(8) Uiso 1 1 d D . . . .
O14 O 0.081(2) 0.9483(5) 0.8263(17) 0.044(7) Uiso 1 1 d D . . . .
O15 O 0.4197(15) 1.1265(8) 0.6071(14) 0.033(7) Uiso 1 1 d D . . . .
O16 O 0.4104(18) 0.9980(9) 0.5843(14) 0.039(7) Uiso 1 1 d D . . . .
O17 O 0.4003(19) 0.8662(8) 0.5759(13) 0.039(7) Uiso 1 1 d D . . . .
O18 O 0.1898(17) 1.1302(8) 0.6161(15) 0.045(8) Uiso 1 1 d D . . . .
O19 O 0.1905(18) 1.0001(9) 0.5902(15) 0.043(7) Uiso 1 1 d D . . . .
O20 O 0.1944(18) 0.8698(8) 0.5814(12) 0.032(7) Uiso 1 1 d D . . . .
O21 O -0.0039(8) 1.0471(9) 0.7937(15) 0.029(6) Uiso 1 1 d D . . . .
O22 O -0.0052(8) 0.8513(11) 0.7907(18) 0.046(8) Uiso 1 1 d D . . . .
O23 O 0.424(3) 0.750000 0.652(2) 0.024(9) Uiso 1 2 d DS . P . .
O24 O 0.193(2) 0.750000 0.6522(18) 0.014(7) Uiso 1 2 d DS . P . .
O25 O 0.284(3) 0.750000 1.059(2) 0.032(10) Uiso 1 2 d DS . P . .
O26 O 0.112(2) 0.750000 1.0596(19) 0.023(9) Uiso 1 2 d DS . P . .
loop_
_atom_type_symbol
_atom_type_description
_atom_type_scat_dispersion_real
_atom_type_scat_dispersion_imag
_atom_type_scat_source
O O 0.0000 0.0000 'International Tables Vol C Tables 4.2.6.8 and 6.1.1.4'
Si Si 0.0000 0.0000 'International Tables Vol C Tables 4.2.6.8 and 6.1.1.4'
loop_
_geom_angle_atom_site_label_1
_geom_angle_atom_site_label_2
_geom_angle_atom_site_label_3
_geom_angle
_geom_angle_site_symmetry_1
_geom_angle_site_symmetry_3
O1 Si1 O16 115.8(18) . .
O1 Si1 O21 107.2(15) . 6_657
O16 Si1 O21 107.6(16) . 6_657
O1 Si1 O15 110.0(16) . .
O16 Si1 O15 108.2(14) . .
O21 Si1 O15 107.7(14) 6_657 .
O13 Si2 O1 113(2) . .
O13 Si2 O6 109(2) . .
O1 Si2 O6 107.6(18) . .
O13 Si2 O2 107.6(14) . .
O1 Si2 O2 109.5(15) . .
O6 Si2 O2 110.5(18) . .
O3 Si3 O19 110.7(17) . 2_575
O3 Si3 O20 109.8(17) . 2_575
O19 Si3 O20 108.9(15) 2_575 2_575
O3 Si3 O2 107(2) . .
O19 Si3 O2 109.5(15) 2_575 .
O20 Si3 O2 110.5(12) 2_575 .
O17 Si4 O16 111.8(16) 2_575 2_575
O17 Si4 O3 107.7(18) 2_575 .
O16 Si4 O3 110.6(17) 2_575 .
O17 Si4 O4 108.9(13) 2_575 .
O16 Si4 O4 109.5(14) 2_575 .
O3 Si4 O4 108.2(18) . .
O21 Si5 O5 106.1(13) . .
O21 Si5 O4 108.5(16) . .
O5 Si5 O4 112.7(16) . .
O21 Si5 O14 110.3(17) . .
O5 Si5 O14 109.4(16) . .
O4 Si5 O14 109.8(12) . .
O5 Si6 O6 106.0(17) . .
O5 Si6 O19 108.3(17) . .
O6 Si6 O19 113.3(17) . .
O5 Si6 O18 108.3(14) . .
O6 Si6 O18 110.9(18) . .
O19 Si6 O18 109.7(14) . .
O22 Si7 O7 103.0(16) 6_657 .
O22 Si7 O17 111.8(18) 6_657 .
O7 Si7 O17 114.0(18) . .
O22 Si7 O23 109(2) 6_657 .
O7 Si7 O23 111.3(19) . .
O17 Si7 O23 107.9(13) . .
O13 Si8 O7 110(2) . .
O13 Si8 O12 103.8(19) . .
O7 Si8 O12 116.1(18) . .
O13 Si8 O8 105.9(14) . .
O7 Si8 O8 108.2(16) . .
O12 Si8 O8 112.5(19) . .
O25 Si9 O18 106.6(13) . 2_575
O25 Si9 O8 113.6(18) . .
O18 Si9 O8 111.0(16) 2_575 .
O25 Si9 O9 107(2) . .
O18 Si9 O9 108.0(16) 2_575 .
O8 Si9 O9 110.1(18) . .
O26 Si10 O15 110.4(13) . 2_575
O26 Si10 O9 106(2) . .
O15 Si10 O9 109.6(15) 2_575 .
O26 Si10 O10 110.6(16) . .
O15 Si10 O10 112.1(18) 2_575 .
O9 Si10 O10 108(2) . .
O22 Si11 O11 106.3(14) . .
O22 Si11 O10 110(2) . .
O11 Si11 O10 115(2) . .
O22 Si11 O14 110.5(18) . .
O11 Si11 O14 108.6(16) . .
O10 Si11 O14 105.5(15) . .
O24 Si12 O12 113.8(19) . .
O24 Si12 O11 111(2) . .
O12 Si12 O11 105.5(18) . .
O24 Si12 O20 107.7(11) . .
O12 Si12 O20 110.9(17) . .
O11 Si12 O20 108.2(17) . .
Si1 O1 Si2 152(2) . .
Si2 O2 Si3 153(2) . .
Si3 O3 Si4 175(2) . .
Si5 O4 Si4 154.3(14) . .
Si6 O5 Si5 148.8(19) . .
Si2 O6 Si6 160(2) . .
Si8 O7 Si7 153(2) . .
Si8 O8 Si9 156(3) . .
Si10 O9 Si9 155.9(15) . .
Si11 O10 Si10 165(2) . .
Si11 O11 Si12 149.3(19) . .
Si8 O12 Si12 164(3) . .
Si8 O13 Si2 174(2) . .
Si11 O14 Si5 164(2) . .
Si1 O15 Si10 147.0(18) . 2_574
Si4 O16 Si1 162(2) 2_574 .
Si4 O17 Si7 146.3(15) 2_574 .
Si9 O18 Si6 145.5(18) 2_574 .
Si3 O19 Si6 160(2) 2_574 .
Si12 O20 Si3 147.8(16) . 2_574
Si1 O21 Si5 146.4(16) 6_557 .
Si7 O22 Si11 149.2(19) 6_557 .
Si7 O23 Si7 158(2) . 7_575
Si12 O24 Si12 151.1(19) 7_575 .
Si9 O25 Si9 149(2) 7_575 .
Si10 O26 Si10 149(2) 7_575 .
loop_
_geom_bond_atom_site_label_1
_geom_bond_atom_site_label_2
_geom_bond_distance
_geom_bond_site_symmetry_2
Si1 O1 1.604(10) .
Si1 O16 1.608(9) .
Si1 O21 1.608(10) 6_657
Si1 O15 1.610(10) .
Si2 O13 1.599(9) .
Si2 O1 1.605(10) .
Si2 O6 1.608(10) .
Si2 O2 1.611(10) .
Si3 O3 1.608(10) .
Si3 O19 1.610(10) 2_575
Si3 O20 1.612(10) 2_575
Si3 O2 1.614(10) .
Si4 O17 1.603(10) 2_575
Si4 O16 1.606(10) 2_575
Si4 O3 1.608(10) .
Si4 O4 1.615(10) .
Si5 O21 1.610(10) .
Si5 O5 1.611(10) .
Si5 O4 1.611(9) .
Si5 O14 1.612(9) .
Si6 O5 1.609(10) .
Si6 O6 1.610(10) .
Si6 O19 1.612(9) .
Si6 O18 1.614(10) .
Si7 O22 1.599(10) 6_657
Si7 O7 1.603(10) .
Si7 O17 1.606(10) .
Si7 O23 1.609(8) .
Si8 O13 1.599(9) .
Si8 O7 1.603(10) .
Si8 O12 1.605(10) .
Si8 O8 1.609(10) .
Si9 O25 1.611(9) .
Si9 O18 1.611(10) 2_575
Si9 O8 1.612(10) .
Si9 O9 1.613(10) .
Si10 O26 1.608(9) .
Si10 O15 1.611(10) 2_575
Si10 O9 1.612(10) .
Si10 O10 1.614(10) .
Si11 O22 1.603(10) .
Si11 O11 1.608(10) .
Si11 O10 1.610(9) .
Si11 O14 1.612(10) .
Si12 O24 1.604(9) .
Si12 O12 1.606(10) .
Si12 O11 1.608(10) .
Si12 O20 1.609(10) .
