#------------------------------------------------------------------------------
#$Date: 2018-01-11 12:53:52 +0200 (Thu, 11 Jan 2018) $
#$Revision: 205069 $
#$URL: file:///home/coder/svn-repositories/cod/cif/1/54/86/1548628.cif $
#------------------------------------------------------------------------------
#
# This file is available in the Crystallography Open Database (COD),
# http://www.crystallography.net/
#
# All data on this site have been placed in the public domain by the
# contributors.
#
data_1548628
loop_
_publ_author_name
'Gruene, T.'
'Teng, Li.'
'Van Genderen, E.'
'Pinar, A. B.'
'Van Bokhoven, J. A.'
_publ_section_title
;
 Characterization at the level of individual crystals: single crystal MFI
 type zeolite grains
;
_journal_name_full               'Chemistry - A European Journal'
_journal_paper_doi               10.1002/chem.201704213
_journal_year                    2017
_chemical_formula_sum            'O24 Si12'
_chemical_formula_weight         721.20
_space_group_crystal_system      orthorhombic
_space_group_IT_number           62
_space_group_name_Hall           '-P 2ac 2n'
_space_group_name_H-M_alt        'P n m a'
_symmetry_space_group_name_Hall  '-P 2ac 2n'
_symmetry_space_group_name_H-M   'P n m a'
_atom_sites_solution_hydrogens   .
_audit_creation_method           SHELXL-2016/6
_cell_angle_alpha                90
_cell_angle_beta                 90
_cell_angle_gamma                90
_cell_formula_units_Z            8
_cell_length_a                   20.393(4)
_cell_length_b                   20.198(4)
_cell_length_c                   13.469(3)
_cell_measurement_temperature    293(2)
_cell_volume                     5548(2)
_computing_structure_refinement  'SHELXL-2016/6 (Sheldrick, 2016)'
_computing_structure_solution    'SHELXT 2014/5 (Sheldrick, 2014)'
_diffrn_ambient_temperature      293(2)
_diffrn_measured_fraction_theta_full 0.740
_diffrn_measured_fraction_theta_max 0.740
_diffrn_radiation_wavelength     0.02508
_diffrn_reflns_av_R_equivalents  0.2554
_diffrn_reflns_av_unetI/netI     0.2145
_diffrn_reflns_Laue_measured_fraction_full 0.740
_diffrn_reflns_Laue_measured_fraction_max 0.740
_diffrn_reflns_limit_h_max       15
_diffrn_reflns_limit_h_min       -15
_diffrn_reflns_limit_k_max       17
_diffrn_reflns_limit_k_min       -17
_diffrn_reflns_limit_l_max       12
_diffrn_reflns_limit_l_min       -12
_diffrn_reflns_number            4952
_diffrn_reflns_point_group_measured_fraction_full 0.740
_diffrn_reflns_point_group_measured_fraction_max 0.740
_diffrn_reflns_theta_full        0.653
_diffrn_reflns_theta_max         0.653
_diffrn_reflns_theta_min         0.073
_exptl_absorpt_coefficient_mu    0.276
_exptl_crystal_density_diffrn    1.727
_exptl_crystal_F_000             940
_refine_diff_density_max         0.274
_refine_diff_density_min         -0.218
_refine_diff_density_rms         0.049
_refine_ls_extinction_coef       .
_refine_ls_extinction_method     none
_refine_ls_goodness_of_fit_ref   1.234
_refine_ls_hydrogen_treatment    undef
_refine_ls_matrix_type           full
_refine_ls_number_parameters     149
_refine_ls_number_reflns         1682
_refine_ls_number_restraints     48
_refine_ls_restrained_S_all      1.219
_refine_ls_R_factor_all          0.3128
_refine_ls_R_factor_gt           0.1729
_refine_ls_shift/su_max          0.797
_refine_ls_shift/su_mean         0.011
_refine_ls_structure_factor_coef Fsqd
_refine_ls_weighting_details
'w=1/[\s^2^(Fo^2^)+(0.2000P)^2^] where P=(Fo^2^+2Fc^2^)/3'
_refine_ls_weighting_scheme      calc
_refine_ls_wR_factor_gt          0.4239
_refine_ls_wR_factor_ref         0.4966
_reflns_Friedel_coverage         0.000
_reflns_Friedel_fraction_full    .
_reflns_Friedel_fraction_max     .
_reflns_number_gt                597
_reflns_number_total             1682
_reflns_threshold_expression     'I > 2\s(I)'
_cod_data_source_file            zsm5_ChemEurJ.cif
_cod_data_source_block           z2e
_cod_original_cell_volume        5547.9(19)
_cod_database_code               1548628
_shelx_shelxl_version_number     2016/6
_shelx_space_group_comment
;
The symmetry employed for this shelxl refinement is uniquely defined
by the following loop, which should always be used as a source of
symmetry information in preference to the above space-group names.
They are only intended as comments.
;
_shelx_res_file
;
TITL 10_a.res in Pnma
    z2e.res
    created by SHELXL-2016/6 at 11:17:38 on 31-Oct-2017
REM Old TITL 10 in P222
REM SHELXT solution in Pnma
REM R1 0.335,  Rweak 0.016,  Alpha 0.131,  Orientation a'=b, b'=a, c'=-c
REM Formula found by SHELXT:  O2 Si
CELL  0.02508  20.3930  20.1980  13.4690   90.000   90.000   90.000
ZERR    8.000   0.0041   0.0040   0.0027    0.000    0.000    0.000
LATT  1
SYMM 1/2-X, -Y, 1/2+Z
SYMM -X, 1/2+Y, -Z
SYMM 1/2+X, 1/2-Y, 1/2-Z
SFAC O  0.237  0.799  0.649  3.654  0.800 10.924  0.261 29.964  0.035 =
   0.0 0.0 18.200 0.660 16.00
SFAC Si  0.665  1.394  1.312  8.299  2.609 27.621  1.135 78.294  0.106 =
  0.0 0.0 123.000 1.110 28.100
UNIT 192 96
ACTA
L.S. 20
XNPD 0.001
RIGU
ISOR $O
LIST 4
FMAP 2
EQIV $1   x-1/2, y, -z+3/2
EQIV $2   -x+1/2, -y+2, z-1/2
EQIV $3   x, -y+3/2, z
EQIV $4   -x+1/2, -y+2, z+1/2
EQIV $5   x+1/2, y, -z+3/2

DFIX 1.609 0.01 Si1  O1 Si1 O21_$5 Si1 O16 Si1 O15
DFIX 1.609 0.01 Si2  O2 Si2 O13 Si2 O6 Si2 O1
DFIX 1.609 0.01 Si3  O20_$4 Si3 O19_$4 Si3 O2 Si3 O3
DFIX 1.609 0.01 Si4  O4 Si4 O16_$4 Si4 O3 Si4 O17_$4
DFIX 1.609 0.01 Si5  O4 Si5 O5 Si5 O14 Si5 O21
DFIX 1.609 0.01 Si6  O19 Si6 O6 Si6 O5 Si6 O18
DFIX 1.609 0.01 Si7  O23 Si7 O17 Si7 O7 Si7 O22_$5
DFIX 1.609 0.01 Si8  O13 Si8 O8 Si8 O12 Si8 O7
DFIX 1.609 0.01 Si9  O18_$4 Si9 O8 Si9 O25 Si9 O9
DFIX 1.609 0.01 Si10 O15_$4 Si10 O26 Si10 O10 Si10 O9
DFIX 1.609 0.01 Si11 O10 Si11 O14 Si11 O11 Si11 O22
DFIX 1.609 0.01 Si12 O20 Si12 O24 Si12 O11 Si12 O12

PLAN 20
WGHT    0.200000
FVAR       0.41495
SI1   2    0.423134    1.055616    0.662331    11.00000    0.00529
SI2   2    0.307616    1.029363    0.808629    11.00000    0.00881
SI3   2    0.279800    1.062321    1.031177    11.00000    0.00511
SI4   2    0.122002    1.064752    1.026457    11.00000    0.00100
SI5   2    0.071983    1.028168    0.814438    11.00000    0.00692
SI6   2    0.184873    1.058884    0.669779    11.00000    0.00225
SI7   2    0.422694    0.827655    0.674358    11.00000    0.00100
SI8   2    0.308459    0.870482    0.815648    11.00000    0.00497
SI9   2    0.274740    0.827827    1.031976    11.00000    0.00100
SI10  2    0.120395    0.826843    1.026255    11.00000    0.01685
SI11  2    0.069912    0.869831    0.815446    11.00000    0.00437
SI12  2    0.188150    0.827651    0.681486    11.00000    0.01227
O1    1    0.372239    1.055641    0.753010    11.00000    0.04079
O2    1    0.306215    1.060382    0.918838    11.00000    0.03328
O3    1    0.200798    1.059469    1.030924    11.00000    0.05131
O4    1    0.096576    1.063489    0.913753    11.00000    0.04654
O5    1    0.113928    1.055154    0.721838    11.00000    0.02523
O6    1    0.241907    1.051802    0.751653    11.00000    0.05126
O7    1    0.375033    0.843093    0.766752    11.00000    0.06531
O8    1    0.309686    0.842528    0.927505    11.00000    0.04368
O9    1    0.197473    0.845367    1.026774    11.00000    0.03662
O10   1    0.093161    0.834144    0.915242    11.00000    0.04368
O11   1    0.117510    0.844282    0.728679    11.00000    0.04705
O12   1    0.242155    0.846036    0.763281    11.00000    0.03870
O13   1    0.304147    0.949878    0.816025    11.00000    0.07534
O14   1    0.080321    0.948937    0.823664    11.00000    0.04143
O15   1    0.415973    1.124146    0.602365    11.00000    0.03594
O16   1    0.409247    0.997882    0.582934    11.00000    0.03218
O17   1    0.400599    0.866271    0.575368    11.00000    0.04395
O18   1    0.188339    1.130390    0.616734    11.00000    0.02372
O19   1    0.190481    1.000689    0.588480    11.00000    0.02364
O20   1    0.194519    0.870546    0.581671    11.00000    0.04823
O21   1   -0.002929    1.050603    0.795890    11.00000    0.02969
O22   1   -0.005310    0.851011    0.792045    11.00000    0.02694
O23   1    0.421606    0.750000    0.646570    10.50000    0.03723
O24   1    0.193459    0.750000    0.654916    10.50000    0.04493
O25   1    0.282567    0.750000    1.055078    10.50000    0.01984
O26   1    0.111775    0.750000    1.055453    10.50000    0.00716
HKLF 4




REM  10_a.res in Pnma
REM R1 =  0.1729 for     597 Fo > 4sig(Fo)  and  0.3128 for all    1682 data
REM    149 parameters refined using     48 restraints

END

WGHT      0.2000      0.0000

REM Highest difference peak  0.274,  deepest hole -0.218,  1-sigma level  0.049
Q1    1   0.1829  1.2500  0.8612  10.50000  0.05    0.27
Q2    1   0.1188  1.2500  0.8233  10.50000  0.05    0.23
Q3    1   0.2519  0.7500  1.3429  10.50000  0.05    0.21
Q4    1   0.2553  0.9424  0.8099  11.00000  0.05    0.17
Q5    1   0.0608  1.0538  0.4677  11.00000  0.05    0.17
Q6    1   0.0026  0.7500  1.3121  10.50000  0.05    0.16
Q7    1   0.3622  0.9411  0.8081  11.00000  0.05    0.16
Q8    1   0.0895  0.8378  0.8121  11.00000  0.05    0.15
Q9    1   0.3721  0.7500  0.6771  10.50000  0.05    0.15
Q10   1   0.1171  0.8707  0.8340  11.00000  0.05    0.15
Q11   1   0.1806  1.1084  0.5352  11.00000  0.05    0.15
Q12   1   0.2746  0.9483  0.7116  11.00000  0.05    0.15
Q13   1   0.0806  0.8713  0.9197  11.00000  0.05    0.15
Q14   1   0.1282  0.7500  0.8127  10.50000  0.05    0.15
Q15   1   0.2446  0.7500  0.6919  10.50000  0.05    0.14
Q16   1   0.1869  0.8601  0.8629  11.00000  0.05    0.14
Q17   1   0.3507  1.2500  0.8527  10.50000  0.05    0.14
Q18   1   0.1948  1.0188  1.1348  11.00000  0.05    0.14
Q19   1   0.4113  0.7500  0.3988  10.50000  0.05    0.14
Q20   1   0.0579  0.7500  0.4800  10.50000  0.05    0.14
;
_shelx_res_checksum              82734
_shelx_hkl_file
;
  -1   0  -5  353.39   29.25
   1   0   5  344.95   29.31
  -1   0  -4 2180.64  126.94
   1   0   4 2058.57  120.53
  -1   0  -3 1186.32   71.19
   1   0   3 1064.40   64.86
  -1   0  -2  760.44   46.85
   1   0   2  833.68   51.03
  -2   0 -12   11.86   21.26
  -2   0 -11  -14.98   20.72
  -2   0 -10   43.37   19.26
  -2   0  -9  117.29   20.24
   2   0   9  180.09   21.78
  -2   0  -8   31.48   17.75
   2   0   8   85.28   18.55
  -2   0  -7   87.07   19.86
   2   0   7  109.83   20.27
  -2   0  -6   -0.32   18.75
   2   0   6   66.16   20.57
  -2   0  -4  442.01   32.91
   2   0   4  426.18   32.11
  -2   0  -3  349.02   27.67
   2   0   3  456.17   33.03
  -3   0 -12   80.29   21.85
   3   0  12   47.12   20.96
  -3   0 -11  122.13   21.79
   3   0  11  108.67   20.68
  -3   0 -10  -10.22   18.33
   3   0  10   20.69   17.63
  -3   0  -9   29.96   18.51
   3   0   9   44.05   17.54
  -3   0  -8   76.80   19.05
   3   0   8   61.08   17.33
  -3   0  -7  634.45   42.59
   3   0   7  684.33   45.18
  -3   0  -6   57.94   19.08
   3   0   6    6.99   19.20
  -3   0  -5  772.04   48.95
   3   0   5  850.25   53.33
  -3   0  -4   66.67   18.61
   3   0   4   67.38   17.96
  -3   0  -3 5342.34  304.42
   3   0   3 4808.86  274.12
  -3   0  -2  -38.70   14.77
  -4   0 -11   39.51   20.31
   4   0  11    2.80   18.54
  -4   0 -10   31.96   18.04
   4   0  10  -19.32   17.12
  -4   0  -9  329.58   27.77
   4   0   9  303.96   26.28
  -4   0  -8   28.77   16.52
   4   0   8    5.62   16.61
  -4   0  -7   62.13   17.75
   4   0   7   80.20   18.37
  -4   0  -6   -2.74   17.09
   4   0   6    6.37   17.89
  -4   0  -5   24.35   17.56
   4   0   5   52.73   17.96
  -4   0  -4  552.47   36.74
   4   0   4  510.12   34.68
  -4   0  -3 1206.21   71.61
   4   0   3 1075.55   64.15
  -5   0 -11  558.80   40.70
   5   0  11  613.20   42.77
  -5   0 -10  -19.20   17.57
   5   0  10  -10.17   16.98
  -5   0  -9  814.39   52.11
   5   0   9  794.49   50.97
  -5   0  -8   15.61   16.50
   5   0   8  -17.36   15.46
  -5   0  -7   30.35   16.19
   5   0   7   12.43   15.78
  -5   0  -6   31.81   15.70
   5   0   6   22.51   16.80
  -5   0  -5  520.37   35.44
   5   0   5  448.33   31.51
  -5   0  -4   58.07   15.46
   5   0   4   78.03   16.38
  -5   0  -3 2070.63  119.66
   5   0   3 2230.37  128.65
  -6   0 -11   -7.82   18.96
   6   0  11   -6.53   18.67
  -6   0 -10   21.22   18.16
   6   0  10   16.61   17.23
  -6   0  -9  266.74   24.13
   6   0   9  288.14   25.12
  -6   0  -8    6.68   15.51
   6   0   8   -9.51   15.42
  -6   0  -7   48.59   15.93
   6   0   7   56.14   16.11
  -6   0  -6  220.93   20.95
   6   0   6  256.34   22.77
  -6   0  -5  202.69   20.44
   6   0   5  242.63   21.99
  -6   0  -4    4.39   15.25
   6   0   4    0.90   14.84
  -7   0 -11   62.01   19.79
   7   0  11   19.50   17.78
  -7   0 -10   47.56   18.93
   7   0  10   35.70   17.41
  -7   0  -9   54.39   17.18
   7   0   9   27.59   16.28
  -7   0  -8   42.06   15.82
   7   0   8   59.35   15.21
  -7   0  -7    5.85   14.90
   7   0   7   36.30   14.45
  -7   0  -6  314.06   24.67
   7   0   6  321.14   24.90
  -7   0  -5   -8.98   15.34
   7   0   5    3.65   15.37
  -7   0  -4   83.56   16.67
   7   0   4   65.81   15.81
  -8   0 -11  -20.66   20.95
   8   0  11   35.22   18.97
  -8   0 -10   97.13   19.33
   8   0  10  122.67   19.76
  -8   0  -9    9.74   16.37
   8   0   9   15.30   15.70
  -8   0  -8  644.25   41.96
   8   0   8  599.79   39.32
  -8   0  -7    6.53   14.32
   8   0   7   -7.97   14.00
  -8   0  -5  245.19   21.55
   8   0   5  243.68   21.38
  -9   0 -10   15.69   17.69
   9   0  10   11.63   17.35
  -9   0  -9   57.01   16.62
   9   0   9   28.57   16.64
  -9   0  -8   -0.51   14.71
   9   0   8   34.09   14.71
  -9   0  -7   -2.71   13.80
   9   0   7    2.47   13.37
  -9   0  -6  238.26   20.92
   9   0   6  226.80   20.24
  -9   0  -5  101.41   15.63
   9   0   5  113.48   16.25
 -10   0 -10   86.11   19.37
  10   0  10   51.13   17.23
 -10   0  -9   25.12   16.58
  10   0   9   32.33   16.03
 -10   0  -8  299.74   24.49
  10   0   8  336.67   26.21
 -10   0  -7   -0.33   13.92
  10   0   7   -2.17   13.59
 -10   0  -6   -3.59   13.56
  10   0   6   -4.05   13.70
 -11   0  -9   19.61   16.41
  11   0   9   -4.28   15.42
 -11   0  -8   32.70   15.54
  11   0   8   36.06   15.48
 -11   0  -7    7.29   14.05
  11   0   7   14.24   14.11
 -11   0  -6  234.04   20.54
  11   0   6  303.81   23.75
 -12   0  -9    4.79   16.05
  12   0   9   19.91   15.37
 -12   0  -8  101.39   17.77
  12   0   8  112.89   17.63
 -12   0  -7  214.75   20.98
  12   0   7  192.44   19.37
 -13   0  -8   78.08   16.98
  13   0   8   26.54   15.34
 -13   0  -7  246.25   22.59
  13   0   7  261.16   22.94
 -14   0  -8   59.07   18.10
  13  -1   7   15.27   15.88
  13  -1   8    3.18   15.84
 -13   1  -8   15.04   17.09
  12  -1   7   15.09   15.67
 -12   1  -7   11.41   15.91
  12  -1   8   11.20   16.26
 -12   1  -8   -4.52   16.79
  12  -1   9    2.28   15.93
 -12   1  -9   -6.99   17.72
  11  -1   6    3.10   13.97
 -11   1  -6   -7.54   13.85
  11  -1   7   24.96   15.10
 -11   1  -7   33.00   15.28
  11  -1   8  -15.16   15.96
 -11   1  -8   16.20   16.50
  11  -1   9  -11.03   16.56
 -11   1  -9   50.05   17.83
  10  -1   6    6.83   14.45
 -10   1  -6   13.02   14.27
  10  -1   7   -4.73   14.29
 -10   1  -7   39.06   15.25
  10  -1   8   17.16   15.06
 -10   1  -8   12.15   15.60
  10  -1   9   63.14   17.50
 -10   1  -9   65.46   17.74
  10  -1  10    1.37   17.06
 -10   1 -10   -6.92   17.56
   9  -1   5   10.05   15.13
  -9   1  -5   13.02   14.51
   9  -1   6  -21.40   14.08
  -9   1  -6  -12.12   14.87
   9  -1   7   -0.54   14.21
  -9   1  -7  -19.58   15.63
   9  -1   8   -8.33   14.69
  -9   1  -8   10.44   15.60
   9  -1   9  -18.85   16.28
  -9   1  -9  -19.76   16.77
   9  -1  10    1.91   17.29
  -9   1 -10   55.22   18.79
   8  -1   5   56.18   16.19
  -8   1  -5   82.34   16.74
   8  -1   6   10.25   14.96
  -8   1  -6   20.00   15.49
   8  -1   7  241.12   21.63
  -8   1  -7  239.61   22.08
   8  -1   8   18.93   15.19
  -8   1  -8  -26.48   15.55
   8  -1   9   30.46   16.22
  -8   1  -9   24.46   17.41
   8  -1  10    6.54   17.44
  -8   1 -10   42.18   18.91
   8  -1  11    5.77   18.91
   7  -1   4    5.98   16.12
  -7   1  -4   21.64   16.86
   7  -1   5   23.33   16.73
  -7   1  -5   25.41   16.28
   7  -1   6   41.91   15.93
  -7   1  -6   40.48   15.94
   7  -1   7    6.99   14.59
  -7   1  -7   -9.81   15.45
   7  -1   8   18.76   15.43
  -7   1  -8   18.61   15.66
   7  -1   9   -5.73   16.05
  -7   1  -9   18.64   16.52
   7  -1  10  -16.77   17.48
  -7   1 -10   12.96   18.43
   7  -1  11   15.69   17.78
  -7   1 -11   -6.30   18.43
   6  -1   4   -4.33   16.50
  -6   1  -4   42.92   17.56
   6  -1   5   12.30   16.65
  -6   1  -5   12.25   17.57
   6  -1   6   -0.51   16.83
  -6   1  -6    5.20   16.12
   6  -1   7   20.74   15.73
  -6   1  -7   40.45   15.66
   6  -1   8   15.94   15.63
  -6   1  -8   20.15   16.40
   6  -1   9    6.75   16.70
  -6   1  -9   34.71   16.77
   6  -1  10   29.34   17.89
  -6   1 -10   31.83   18.25
   6  -1  11   18.75   18.55
  -6   1 -11   18.04   19.27
   5  -1   3  -28.51   17.41
  -5   1  -3   13.80   17.42
   5  -1   4  287.09   24.85
  -5   1  -4  240.37   23.04
   5  -1   5   25.57   17.23
  -5   1  -5   21.08   17.51
   5  -1   6   20.47   17.36
  -5   1  -6   44.53   17.44
   5  -1   7  -13.47   15.96
  -5   1  -7    0.89   16.47
   5  -1   8   -3.15   15.87
  -5   1  -8   21.13   16.44
   5  -1   9   11.62   17.03
  -5   1  -9   -6.71   16.68
   5  -1  10  225.90   23.72
  -5   1 -10  214.75   24.04
   5  -1  11   -1.10   18.52
  -5   1 -11   23.01   19.76
   4  -1   3   20.09   18.26
  -4   1  -3   -5.18   18.51
   4  -1   4  -30.70   17.07
  -4   1  -4   -4.49   17.24
   4  -1   5   78.47   18.88
  -4   1  -5   36.02   17.95
   4  -1   6  -17.98   18.72
  -4   1  -6   20.95   17.57
   4  -1   7    9.36   17.30
  -4   1  -7   -7.72   17.51
   4  -1   8   -5.65   16.61
  -4   1  -8   -7.58   17.39
   4  -1   9   10.53   16.68
  -4   1  -9   25.36   18.23
   4  -1  10   13.86   17.92
  -4   1 -10   10.37   18.73
   4  -1  11   19.14   18.91
  -4   1 -11    2.98   19.43
   3  -1   2  469.28   33.02
  -3   1  -2  483.60   33.53
   3  -1   3   32.34   19.03
  -3   1  -3   26.82   18.61
   3  -1   4  199.53   22.41
  -3   1  -4  199.98   22.32
   3  -1   5   16.05   18.22
  -3   1  -5   15.72   17.98
   3  -1   6  169.54   22.89
  -3   1  -6  204.80   24.05
   3  -1   7   24.85   18.30
  -3   1  -7   -5.38   18.33
   3  -1   8  -15.88   17.21
  -3   1  -8   28.63   17.44
   3  -1   9   -9.81   17.57
  -3   1  -9   29.48   17.89
   3  -1  10   18.87   18.22
  -3   1 -10   -0.83   18.81
   3  -1  11   37.86   19.65
  -3   1 -11   22.64   20.95
   3  -1  12   48.75   20.86
  -3   1 -12   17.87   23.98
   2  -1   2   75.12   17.84
  -2   1  -2   20.75   17.83
   2  -1   3   52.59   19.86
  -2   1  -3   83.17   20.18
   2  -1   4    9.83   20.13
  -2   1  -4   55.79   19.70
   2  -1   7   28.72   18.45
  -2   1  -7   35.47   19.29
   2  -1   8   11.14   17.47
  -2   1  -8    1.64   17.56
   2  -1   9   22.73   17.07
  -2   1  -9   23.98   18.82
   2  -1  10   -1.27   17.95
  -2   1 -10   15.09   18.70
   2  -1  11    8.64   19.53
  -2   1 -11    4.25   21.28
   2  -1  12   15.36   20.21
  -2   1 -12  -13.85   21.22
  -1   1  -1  410.36   31.12
   1  -1   2  115.71   19.15
   1  -1   3  277.14   26.57
  -1   1  -3  267.34   26.12
   1  -1   4  250.01   26.51
  -1   1  -4  212.49   25.06
   1  -1   5   33.68   19.86
  -1   1  -5   39.60   20.06
   1  -1   6   16.98   19.61
  -1   1  -6   16.68   20.45
   1  -1   7   21.78   19.24
  -1   1  -7   27.17   19.86
   1  -1   8   16.41   18.31
  -1   1  -8   -3.63   18.10
   1  -1   9   38.56   18.37
  -1   1  -9   -2.05   17.59
   1  -1  10   65.72   19.71
  -1   1 -10   21.10   19.08
   1  -1  11   18.40   20.27
  -1   1 -11   31.10   21.75
  -1   1 -12   35.17   22.17
   0  -1   2  -49.25   20.60
   0   1  -2  -35.19   19.58
   0  -1   3 1093.49   67.45
   0  -1   4   21.04   21.58
   0   1  -4    1.69   20.98
   0  -1   5  417.14   33.00
   0   1  -5  359.72   30.55
   0  -1   6   36.94   21.26
   0   1  -6    3.78   21.29
   0  -1   7   82.40   21.11
   0   1  -7   54.84   20.62
   0   1  -8   29.87   19.83
   0   1  -9  406.29   32.39
  -1  -1   0  917.47   54.49
   1   1   0  763.45   45.93
  -1  -1   2  168.78   22.64
   1   1  -2  150.52   22.29
   1   1  -3  389.26   32.37
  -2  -1  -2   62.71   13.64
  -3  -1  -9   -8.97   16.73
  -3  -1  -8  -16.16   17.00
  -3  -1  -7  -18.25   17.57
   3   1   7   10.40   17.06
  -3  -1  -6  121.15   19.41
   3   1   6  127.76   20.30
  -3  -1  -5   -6.77   17.51
   3   1   5    1.43   17.27
  -3  -1  -4  214.15   20.96
   3   1   4  208.57   21.35
  -3  -1  -3   21.20   15.82
   3   1   3   20.87   16.08
  -3  -1  -2  304.42   21.19
   3   1   2  251.22   18.88
  -4  -1 -11    9.40   19.70
   4   1  11  -11.23   17.39
  -4  -1 -10    7.64   18.30
   4   1  10  -13.13   17.16
  -4  -1  -9   20.45   16.79
   4   1   9   16.05   16.03
  -4  -1  -8  -13.91   16.09
   4   1   8  -11.05   15.88
  -4  -1  -7  -17.04   16.40
   4   1   7   -4.70   16.73
  -4  -1  -6   40.69   16.98
   4   1   6   -1.76   17.12
  -4  -1  -5  -17.45   16.12
   4   1   5    6.10   15.60
  -4  -1  -4  -21.73   14.69
   4   1   4  -40.34   15.99
  -4  -1  -3    9.72   14.15
   4   1   3   -1.87   13.13
  -4  -1  -2   34.48   12.21
   4   1   2   41.61   12.73
  -5  -1 -11   18.54   19.23
   5   1  11    3.53   18.25
  -5  -1 -10  178.88   22.20
   5   1  10  229.97   23.40
  -5  -1  -9   24.29   16.38
   5   1   9   19.43   15.81
  -5  -1  -8   24.26   16.09
   5   1   8    4.20   15.24
  -5  -1  -7    2.12   15.57
   5   1   7    6.59   15.60
  -5  -1  -6  -11.88   15.67
   5   1   6   -4.22   15.69
  -5  -1  -5   21.32   15.64
   5   1   5    4.10   15.07
  -5  -1  -4  199.23   18.70
   5   1   4  226.05   19.70
  -5  -1  -3   -8.24   13.26
  -6  -1 -11   15.66   19.06
   6   1  11   10.37   17.89
  -6  -1 -10   35.76   18.61
   6   1  10    9.42   16.76
  -6  -1  -9    0.99   16.26
   6   1   9    3.35   16.12
  -6  -1  -8   12.85   15.48
   6   1   8   -5.86   14.78
  -6  -1  -7   -0.72   14.80
   6   1   7   22.85   14.48
  -6  -1  -6  -25.53   14.84
   6   1   6   -7.34   14.72
  -6  -1  -5   69.26   15.55
   6   1   5  119.14   16.55
  -6  -1  -4   -5.12   13.89
   6   1   4  -17.10   13.11
  -6  -1  -3    2.12   12.15
   6   1   3  -19.92   11.21
  -7  -1 -11   -9.18   19.20
   7   1  11   43.90   18.01
  -7  -1 -10   -1.04   17.23
   7   1  10    4.85   17.24
  -7  -1  -9  -15.25   16.12
   7   1   9   33.94   15.39
  -7  -1  -8   36.26   15.60
   7   1   8   15.82   14.18
  -7  -1  -7   11.29   13.71
   7   1   7   22.02   13.71
  -7  -1  -6    0.50   13.68
   7   1   6   35.99   14.02
  -7  -1  -5   -5.15   13.50
   7   1   5   -4.11   13.20
  -7  -1  -4    1.73   13.88
   7   1   4   10.97   13.47
   8   1  11    8.15   17.92
  -8  -1 -10  -17.32   17.27
   8   1  10   27.68   17.12
  -8  -1  -9   22.29   15.78
   8   1   9   51.03   15.90
  -8  -1  -8   -0.39   14.38
   8   1   8   -7.14   13.68
  -8  -1  -7  101.38   15.48
   8   1   7  157.33   17.04
  -8  -1  -6   20.84   13.20
   8   1   6    5.59   12.96
  -8  -1  -5   44.80   13.14
   8   1   5   40.58   13.55
   8   1   4    9.40   13.13
  -9  -1 -10   43.39   17.24
   9   1  10   -9.51   16.34
  -9  -1  -9   11.26   15.78
   9   1   9   27.10   15.61
  -9  -1  -8  -14.33   13.77
   9   1   8   13.49   13.80
  -9  -1  -7    6.99   12.90
   9   1   7   10.17   13.05
  -9  -1  -6   -1.40   12.49
   9   1   6   14.27   13.10
  -9  -1  -5    3.78   12.22
   9   1   5   23.06   12.79
 -10  -1 -10   -4.73   16.95
  10   1  10   -3.29   15.85
 -10  -1  -9   64.48   16.49
  10   1   9   75.35   16.35
 -10  -1  -8   -9.93   14.33
  10   1   8    0.30   13.77
 -10  -1  -7    8.64   13.19
  10   1   7   34.27   13.44
 -10  -1  -6   -1.13   12.67
  10   1   6  -19.11   12.31
  10   1   5  -11.08   12.46
 -11  -1  -9   21.64   15.88
  11   1   9   11.62   14.84
 -11  -1  -8   23.54   14.86
  11   1   8   -2.65   13.92
 -11  -1  -7    7.67   13.53
  11   1   7    2.32   13.23
 -11  -1  -6   -4.29   12.40
  11   1   6   23.22   12.69
 -12  -1  -9    6.34   15.33
  12   1   9   -2.83   14.33
 -12  -1  -8   -7.60   15.64
  12   1   8   21.66   15.06
 -12  -1  -7   33.41   14.29
  12   1   7   37.30   14.03
  12   1   6   -7.54   12.57
 -13  -1  -8   14.23   15.51
  13   1   8   12.16   14.54
 -13  -1  -7   -0.87   14.65
  13   1   7   17.89   14.44
  14   1   8   10.55   15.55
  14   1   7   14.98   14.66
  13  -2   7   62.59   18.11
  13  -2   8   15.10   17.29
 -13   2  -8    7.20   18.20
  12  -2   7   10.91   16.09
 -12   2  -7   63.64   17.13
  12  -2   8   14.57   17.72
 -12   2  -8   19.71   18.14
  12  -2   9   54.30   18.23
 -12   2  -9    6.07   18.46
  11  -2   6   38.90   15.18
  11  -2   7  -13.50   15.22
 -11   2  -7  -18.70   16.25
  11  -2   8    0.95   16.77
 -11   2  -8  -27.52   17.13
  11  -2   9    2.62   17.45
 -11   2  -9  -30.56   18.36
  10  -2   6   16.95   15.01
 -10   2  -6  -10.68   15.87
  10  -2   7   10.10   15.25
 -10   2  -7   19.62   16.22
  10  -2   8   -6.60   16.11
 -10   2  -8   31.99   17.47
  10  -2   9   18.02   17.36
 -10   2  -9    8.67   17.77
  10  -2  10   30.77   17.98
 -10   2 -10   19.70   18.87
   9  -2   5  -11.30   15.72
   9  -2   6   41.73   15.27
  -9   2  -6   36.54   16.02
   9  -2   7    3.66   15.04
  -9   2  -7   -9.96   15.87
   9  -2   8   -2.53   16.02
  -9   2  -8   18.81   16.46
   9  -2   9   21.60   16.89
  -9   2  -9    3.78   18.13
   9  -2  10   16.28   17.60
  -9   2 -10   29.73   19.18
   8  -2   5   28.15   17.09
  -8   2  -5    1.42   16.83
   8  -2   6   46.84   16.28
  -8   2  -6   42.78   16.88
   8  -2   7   10.37   15.34
  -8   2  -7  -15.24   15.64
   8  -2   8  123.59   18.19
  -8   2  -8  111.99   18.33
   8  -2   9   -4.55   16.50
  -8   2  -9   -5.40   17.39
   8  -2  10   10.55   18.23
  -8   2 -10   -1.24   18.70
   7  -2   4   65.36   18.36
  -7   2  -4  120.23   19.47
   7  -2   5    6.51   17.92
  -7   2  -5  -18.20   16.92
   7  -2   6   36.38   16.32
  -7   2  -6   -2.83   16.23
   7  -2   7   22.05   15.70
  -7   2  -7   -5.35   15.88
   7  -2   8   30.17   15.57
  -7   2  -8   35.52   15.97
   7  -2   9    7.82   17.13
  -7   2  -9   44.85   17.47
   7  -2  10    9.54   17.80
  -7   2 -10   -2.23   18.37
   7  -2  11  -17.72   18.31
  -7   2 -11    8.26   18.67
   6  -2   4   22.74   18.82
  -6   2  -4  -28.17   17.95
   6  -2   5   27.05   18.63
  -6   2  -5   22.35   17.93
   6  -2   6  -12.10   16.95
  -6   2  -6  -22.44   17.44
   6  -2   7   50.94   16.56
  -6   2  -7   19.05   16.35
   6  -2   8  -19.77   15.93
  -6   2  -8   -7.72   16.43
   6  -2   9   -3.29   16.73
  -6   2  -9   29.45   17.30
   6  -2  10    1.54   17.54
  -6   2 -10   45.84   19.21
   6  -2  11   15.12   19.06
  -6   2 -11   55.32   19.97
   5  -2   3  271.56   25.12
  -5   2  -3  281.66   25.95
   5  -2   4   38.56   18.52
  -5   2  -4   34.54   18.48
   5  -2   5   13.29   18.60
  -5   2  -5   23.28   18.31
   5  -2   6   -5.02   18.26
  -5   2  -6    3.71   17.71
   5  -2   7   21.14   16.49
  -5   2  -7   43.45   17.54
   5  -2   8  -31.86   16.65
  -5   2  -8    0.26   16.88
   5  -2   9   32.76   17.18
  -5   2  -9  -23.80   17.12
   5  -2  10   10.35   18.04
  -5   2 -10  -13.86   18.51
   5  -2  11   91.19   20.87
  -5   2 -11  130.18   22.65
   4  -2   3  179.48   23.10
  -4   2  -3  131.50   21.60
   4  -2   4   -7.02   17.71
  -4   2  -4   26.69   18.45
   4  -2   5   96.06   20.63
  -4   2  -5   41.01   18.87
   4  -2   6   46.45   19.26
  -4   2  -6   52.02   19.64
   4  -2   7  186.12   21.90
  -4   2  -7  199.23   22.30
   4  -2   8   -8.08   16.83
  -4   2  -8   21.35   17.35
   4  -2   9   57.04   18.14
  -4   2  -9   28.36   17.71
   4  -2  10  -21.54   17.99
  -4   2 -10   -3.00   18.84
   4  -2  11  -25.98   19.62
  -4   2 -11   13.40   20.40
   3  -2   2  -13.07   19.33
  -3   2  -2   11.42   19.46
   3  -2   3  414.58   33.08
  -3   2  -3  366.35   30.09
   3  -2   4   12.98   18.73
  -3   2  -4   44.22   19.14
   3  -2   5  104.32   20.37
  -3   2  -5   82.63   19.73
   3  -2   6   22.17   19.70
  -3   2  -6   -1.07   19.23
   3  -2   7   59.63   19.17
  -3   2  -7   43.15   18.58
   3  -2   8   46.24   17.95
  -3   2  -8   12.70   17.51
   3  -2   9   24.26   17.04
  -3   2  -9   18.20   17.96
   3  -2  10  -11.80   18.22
  -3   2 -10  -22.73   18.81
   2  -2   2  -32.64   19.56
  -2   2  -2   14.54   18.48
   2  -2   3    9.45   21.17
  -2   2  -3   19.50   20.09
   2  -2   4   27.97   19.91
  -2   2  -4   21.84   19.82
   2  -2   5   -4.64   19.30
  -2   2  -5  -18.52   19.44
   2  -2   6   27.40   20.07
  -2   2  -6   54.93   20.57
   2  -2   7  -25.92   18.51
  -2   2  -7    3.00   19.14
   2  -2   8   11.14   18.11
  -2   2  -8   38.70   18.17
   2  -2   9    6.62   17.66
  -2   2  -9   -6.69   17.63
   2  -2  10  -14.03   18.58
  -2   2 -10    1.61   18.94
   2  -2  11   17.93   20.33
  -2   2 -11   26.43   21.41
   2  -2  12   34.16   20.89
  -2   2 -12   44.31   23.19
   1  -2   1  102.39   20.60
  -1   2  -1  113.25   21.19
   1  -2   2   -4.01   19.61
   1  -2   3  146.24   23.83
  -1   2  -3  140.47   23.09
   1  -2   4  280.76   27.55
  -1   2  -4  261.32   26.67
   1  -2   5    2.91   19.98
  -1   2  -5   17.83   20.25
   1  -2   6   43.69   20.34
  -1   2  -6   67.68   21.46
   1  -2   7    4.60   19.49
  -1   2  -7   16.64   19.43
   1  -2   8    1.55   18.48
  -1   2  -8   16.62   19.14
   1  -2   9  -18.10   17.95
  -1   2  -9    9.43   18.51
   1  -2  10   23.55   18.57
  -1   2 -10    3.44   19.49
   1  -2  11  -33.85   20.60
  -1   2 -11    4.90   20.80
   1  -2  12   -9.28   21.05
  -1   2 -12    4.01   21.66
   0  -2   2  298.99   26.75
   0   2  -2  305.32   27.17
   0  -2   3   -6.10   21.88
   0  -2   4   11.21   21.46
   0   2  -4  -34.30   21.72
   0  -2   5    4.99   21.01
   0   2  -5  -13.91   21.11
   0  -2   6   47.29   22.61
   0   2  -6   55.70   21.52
   0  -2   7  -21.40   20.57
   0   2  -7  -18.25   20.27
   0  -2   8   93.87   19.82
   0   2  -8   84.60   20.47
   0  -2   9    1.75   17.62
   0   2  -9  -57.30   19.58
   0  -2  10   48.65   19.83
   0   2 -10   63.25   20.68
   0  -2  11   -4.04   20.31
   0   2 -11  -20.65   20.57
   0  -2  12   57.91   22.62
   0   2 -12   80.75   22.86
   1   2   0  270.21   23.72
  -1  -2   1   47.32   16.37
   1   2  -1   47.92   19.59
  -1  -2   2    1.99   19.83
   1   2  -2   32.04   20.18
  -1  -2   3  147.14   24.84
   1   2  -3  152.66   25.12
  -1  -2   4  460.09   36.26
  -1  -2   5   -7.87   20.98
   1   2  -5   17.99   21.54
  -1  -2   6   77.14   22.85
   1   2  -6   72.95   23.12
  -1  -2   7  -12.34   19.85
   1   2  -7   -8.91   21.29
  -1  -2   8   -7.29   18.57
   1   2  -8   11.41   19.64
  -1  -2   9    9.19   18.67
   1   2  -9   -2.23   19.21
   1   2 -10   35.14   20.01
   1   2 -11   10.76   22.00
   1   2 -12   -2.70   23.45
   2   2   0  107.83   16.80
  -2  -2   1  -34.90   18.23
   2   2  -1  -65.42   20.36
  -2  -2   2   19.74   20.54
   2   2  -2  -32.84   20.75
  -2  -2   3  -49.07   24.85
   2   2  -3   -8.39   22.97
  -2  -2   4    0.93   21.97
   2   2  -4   -8.59   21.25
  -2  -2   5   18.99   21.23
   2   2  -6   18.73   21.58
  -3  -2  -1  123.86    9.92
   3   2   1  103.82    8.97
  -3  -2   0  -24.84   13.28
   3   2   0  -20.66   15.07
  -4  -2  -5  130.99   17.54
  -4  -2  -4   -8.57   13.50
   4   2   4  -20.13   13.88
  -4  -2  -3  180.54   16.28
  -4  -2  -2   41.31    7.84
   4   2   2   48.07    8.12
  -5  -2 -11   87.71   20.62
  -5  -2 -10    8.77   18.33
  -5  -2  -9    8.41   16.34
   5   2   9  -23.00   15.34
  -5  -2  -8   -6.21   15.06
   5   2   8   17.72   14.93
  -5  -2  -7   27.64   15.43
   5   2   7    7.40   15.33
  -5  -2  -6    3.16   15.18
   5   2   6   22.47   15.67
  -5  -2  -5   52.76   15.21
   5   2   5   41.85   14.50
  -5  -2  -4   26.00   12.81
   5   2   4   27.58   12.52
  -6  -2 -11   26.54   19.40
   6   2  11   21.54   17.45
  -6  -2 -10    8.42   17.39
   6   2  10    2.06   16.61
  -6  -2  -9    4.05   16.00
   6   2   9    9.36   15.12
  -6  -2  -8  -16.02   15.55
   6   2   8  -18.94   14.62
  -6  -2  -7   40.60   14.36
   6   2   7   45.06   14.30
  -6  -2  -6  -17.89   13.43
   6   2   6  -34.24   13.65
  -6  -2  -5   23.48   13.64
   6   2   5    1.28   13.52
  -6  -2  -4   13.08   11.97
   6   2   4   15.07   11.50
  -6  -2  -3  -23.25    9.99
   6   2   3    7.94   11.11
  -7  -2 -11   24.78   18.02
   7   2  11    0.81   17.18
  -7  -2 -10   -0.14   16.88
   7   2  10    2.02   16.29
  -7  -2  -9    7.55   15.58
   7   2   9   24.34   14.77
  -7  -2  -8   34.96   14.53
   7   2   8   14.98   13.65
  -7  -2  -7    0.33   13.41
   7   2   7   -7.97   13.49
  -7  -2  -6   -4.13   12.58
   7   2   6   -8.09   12.98
  -7  -2  -5    9.31   12.43
   7   2   5   -1.61   12.30
  -7  -2  -4   93.80   13.14
   7   2   4   73.99   11.27
  -8  -2 -10   46.01   17.33
   8   2  10   16.23   16.65
  -8  -2  -9  -10.23   15.33
   8   2   9   14.71   15.16
  -8  -2  -8   85.34   15.25
   8   2   8  100.88   15.81
  -8  -2  -7   -4.33   12.73
   8   2   7  -11.29   12.79
  -8  -2  -5  -19.20   11.65
   8   2   5  -22.74   11.62
  -8  -2  -4   68.61   12.16
   8   2   4   47.74   11.17
  -9  -2 -10   16.94   16.85
   9   2  10   -5.24   15.87
  -9  -2  -9   15.79   15.10
   9   2   9  -12.70   14.57
  -9  -2  -8    3.63   13.32
   9   2   8   19.05   13.20
  -9  -2  -7    8.32   12.66
   9   2   7  -12.66   12.42
  -9  -2  -6   71.12   12.54
   9   2   6   42.15   12.18
  -9  -2  -5    4.64   10.47
   9   2   5   17.95   11.27
 -10  -2 -10   34.12   15.93
  10   2  10   47.70   16.12
 -10  -2  -9  -15.28   15.39
  10   2   9   -3.35   14.66
 -10  -2  -8   -0.98   13.65
  10   2   8  -11.60   12.98
 -10  -2  -7   19.05   12.46
  10   2   7   25.94   11.98
 -10  -2  -6  -12.96   11.80
  10   2   6   -3.71   11.51
 -10  -2  -5   -4.01   10.67
  10   2   5    6.24   11.02
 -11  -2  -9   29.87   15.66
  11   2   9    8.33   14.57
 -11  -2  -8   -4.99   14.02
  11   2   8   -7.43   13.44
 -11  -2  -7  -16.62   12.22
  11   2   7   12.63   12.40
 -11  -2  -6  -15.93   11.18
  11   2   6    3.09   11.50
 -12  -2  -9   17.44   14.63
  12   2   9   -6.80   13.89
 -12  -2  -8   34.42   14.45
  12   2   8   17.51   13.74
 -12  -2  -7   25.85   12.88
  12   2   7    9.60   13.01
  12   2   6  -10.40   11.47
 -13  -2  -8    8.27   14.42
  13   2   8   27.61   13.97
 -13  -2  -7   32.40   13.47
  13   2   7   57.07   14.17
  14   2   7   18.46   13.70
  13  -3   8   42.77   18.36
 -13   3  -8   24.29   18.39
  12  -3   7   54.06   17.72
 -12   3  -7  105.04   19.32
  12  -3   8   38.72   18.63
 -12   3  -8   31.20   18.96
  12  -3   9   -5.52   17.93
 -12   3  -9   43.07   19.85
  11  -3   7  -20.37   16.83
 -11   3  -7   -1.57   16.83
  11  -3   8    1.18   17.71
 -11   3  -8   31.03   18.75
  11  -3   9   49.02   18.63
 -11   3  -9   15.09   20.06
  10  -3   6  -11.05   15.55
 -10   3  -6   -6.84   15.72
  10  -3   7   29.28   17.00
 -10   3  -7   31.10   16.91
  10  -3   8   13.23   16.92
 -10   3  -8   -4.81   17.77
  10  -3   9   43.85   17.60
 -10   3  -9   54.33   19.43
  10  -3  10  -13.70   17.99
 -10   3 -10  -18.07   19.23
   9  -3   6   -7.04   15.85
  -9   3  -6    5.44   16.41
   9  -3   7   87.24   17.27
  -9   3  -7   96.49   18.40
   9  -3   8  -15.40   16.49
  -9   3  -8   -9.43   16.43
   9  -3   9    5.98   17.71
  -9   3  -9   27.79   18.66
   9  -3  10   49.49   18.51
  -9   3 -10   26.40   19.05
   8  -3   5   70.59   18.22
  -8   3  -5   82.03   17.75
   8  -3   6  101.32   18.17
  -8   3  -6   77.49   17.63
   8  -3   7   86.82   17.06
  -8   3  -7  109.53   18.48
   8  -3   8    1.88   16.67
  -8   3  -8   -7.22   16.43
   8  -3   9   43.78   17.56
  -8   3  -9   22.95   17.89
   8  -3  10    2.55   18.33
  -8   3 -10   -0.23   19.32
   7  -3   5    7.99   18.64
  -7   3  -5   34.65   18.37
   7  -3   6   32.52   17.23
  -7   3  -6   32.84   17.42
   7  -3   7    2.76   16.25
  -7   3  -7  -25.21   16.28
   7  -3   8   38.08   17.09
  -7   3  -8   37.51   17.26
   7  -3   9   23.54   16.94
  -7   3  -9   30.19   17.87
   7  -3  10    7.25   18.04
  -7   3 -10   41.43   19.82
   7  -3  11    6.72   19.05
  -7   3 -11  -13.43   20.12
   6  -3   4   83.68   20.60
  -6   3  -4  102.18   21.01
   6  -3   5    5.41   19.40
  -6   3  -5   22.27   18.87
   6  -3   6   42.29   17.56
  -6   3  -6   33.89   17.68
   6  -3   7   60.57   16.97
  -6   3  -7   35.13   17.45
   6  -3   8    7.11   16.71
  -6   3  -8   20.19   17.35
   6  -3   9   -9.49   16.71
  -6   3  -9  -15.48   18.11
   6  -3  10   11.80   17.83
  -6   3 -10  -12.81   18.96
   6  -3  11   -7.73   18.99
  -6   3 -11  -19.88   19.53
   5  -3   5   40.69   20.13
  -5   3  -5   20.48   20.01
   5  -3   6  428.74   32.46
  -5   3  -6  447.43   33.43
   5  -3   7   28.54   16.79
  -5   3  -7  -10.16   16.92
   5  -3   8   31.62   17.24
  -5   3  -8  -25.44   17.27
   5  -3   9   -4.42   16.68
  -5   3  -9   -6.07   17.51
   5  -3  10   37.58   18.70
  -5   3 -10    4.97   19.29
   5  -3  11  -18.39   19.44
  -5   3 -11   45.53   20.87
   4  -3   3  -28.15   21.44
  -4   3  -3   -5.47   20.18
   4  -3   4  328.68   28.75
  -4   3  -4  277.29   26.78
   4  -3   5   20.71   19.56
  -4   3  -5   -5.86   18.99
   4  -3   6  473.65   34.96
  -4   3  -6  508.77   36.73
   4  -3   7   -6.19   17.24
  -4   3  -7  -32.31   17.27
   4  -3   8   -6.09   16.47
  -4   3  -8    8.20   17.77
   4  -3   9    8.77   17.36
  -4   3  -9    4.04   17.62
   4  -3  10   43.57   18.91
  -4   3 -10   -8.92   18.85
   4  -3  11    4.13   20.07
  -4   3 -11    9.87   21.19
   3  -3   3  137.44   23.42
  -3   3  -3  165.02   24.73
   3  -3   4   17.57   20.39
  -3   3  -4   13.13   19.83
   3  -3   5   16.14   20.75
  -3   3  -5   21.32   19.73
   3  -3   6   25.11   20.63
  -3   3  -6   96.19   20.47
   3  -3   7   -6.33   17.89
  -3   3  -7   26.40   18.73
   3  -3   8    0.11   17.45
  -3   3  -8  -13.47   18.14
   3  -3   9  -16.31   17.42
  -3   3  -9   14.05   18.05
   3  -3  10   12.33   18.97
  -3   3 -10    1.75   19.35
   3  -3  11   14.80   19.80
  -3   3 -11   28.54   21.37
   2  -3   2  162.15   24.41
   2  -3   3  123.26   23.61
  -2   3  -3  144.67   24.16
   2  -3   4   81.80   20.98
  -2   3  -4  104.74   22.24
   2  -3   5   15.91   20.53
  -2   3  -5   51.40   20.71
   2  -3   6   25.17   20.04
  -2   3  -6   46.02   20.90
   2  -3   7   50.23   18.84
  -2   3  -7   93.12   20.75
   2  -3   8  -23.25   17.93
  -2   3  -8  -19.50   18.07
   2  -3   9   22.79   18.52
  -2   3  -9  -38.93   17.81
   2  -3  10   15.78   18.72
  -2   3 -10   -8.24   19.49
   2  -3  11    9.27   19.92
  -2   3 -11   12.98   20.45
   1  -3   1  198.62   23.04
   1  -3   2   71.10   22.32
  -1   3  -2    6.99   21.41
   1  -3   3 2968.81  171.80
   1  -3   4   37.57   20.54
  -1   3  -4   64.58   22.17
   1  -3   5   26.22   20.66
  -1   3  -5   26.84   21.07
   1  -3   6   73.14   21.78
  -1   3  -6   68.95   21.96
   1  -3   7   86.29   20.72
  -1   3  -7   68.78   20.86
   1  -3   8   10.73   18.43
  -1   3  -8   23.03   18.66
   1  -3   9    6.75   17.86
  -1   3  -9  -11.39   18.82
   1  -3  10   39.72   19.41
  -1   3 -10   70.87   20.65
   1  -3  11   73.09   21.38
  -1   3 -11    2.00   20.65
   1  -3  12   -3.44   23.51
   0  -3   1  317.38   27.67
   0   3  -1  257.25   27.23
   0  -3   2  -38.50   20.60
   0   3  -2  -20.47   21.13
   0  -3   3  382.93   32.25
   0   3  -3  385.94   32.75
   0  -3   4  -28.44   22.00
   0  -3   5  855.53   55.40
   0   3  -5  876.93   56.71
   0  -3   6   -6.84   22.47
   0   3  -6   14.54   22.11
   0  -3   8   35.87   18.31
   0   3  -8  -12.19   18.79
   0  -3   9   46.54   19.26
   0   3  -9   55.88   20.16
   0  -3  10  -22.94   19.56
   0   3 -10  -27.44   20.13
   0  -3  11   44.71   20.62
   0   3 -11   53.82   21.87
   0  -3  12  -13.55   21.88
   0   3 -12   12.21   23.75
   1   3   0  -14.35   17.68
  -1  -3   1  267.34   24.50
   1   3  -1  331.69   28.95
  -1  -3   2   68.03   21.94
   1   3  -2   60.48   21.61
  -1  -3   3 3087.86  178.58
   1   3  -3 3142.11  181.59
  -1  -3   4   70.33   22.08
   1   3  -4   33.06   22.64
  -1  -3   5  120.79   22.70
   1   3  -5   54.37   17.78
  -1  -3   6   15.31   21.63
   1   3  -6   52.50   22.38
  -1  -3   7  120.00   21.73
   1   3  -7  141.54   23.01
  -1  -3   8   10.58   18.63
   1   3  -8   -4.67   18.93
  -1  -3  10  -16.19   18.94
   1   3 -10  -10.25   20.13
  -1  -3  11   -8.91   20.33
   1   3 -11   27.56   22.85
   2   3  -1  -17.30   19.52
  -2  -3   2  199.38   24.61
   2   3  -2  189.13   24.75
  -2  -3   3  157.63   25.66
   2   3  -3  134.26   24.67
  -2  -3   4   79.03   22.48
   2   3  -4   69.73   21.37
  -2  -3   5   73.14   22.67
   2   3  -5   19.46   17.47
  -2  -3   6   17.89   21.81
   2   3  -6   40.73   22.83
  -2  -3   7   67.97   20.75
   2   3  -7   59.77   21.93
  -2  -3   9   12.69   19.18
   2   3  -9   28.09   20.16
  -2  -3  10   10.11   20.47
   2   3 -10   52.34   21.20
  -2  -3  11   26.42   22.05
   2   3 -11   -5.44   22.45
   3   3   1   92.18   12.81
  -3  -3   0  -40.95   14.09
   3   3   0  -14.59   15.39
  -3  -3   1  136.87   20.59
   3   3  -1   86.29   19.85
   3   3  -2  301.85   28.68
  -3  -3   3  150.54   23.77
   3   3  -3  151.30   24.73
  -3  -3   4   22.89   20.95
   3   3  -4   15.90   21.41
  -3  -3   5   37.90   21.97
   3   3  -5   -1.70   22.18
  -3  -3   6   96.37   23.16
  -3  -3   7    5.52   20.42
   3   3  -7    8.08   20.65
   3   3  -8  -14.93   19.92
   3   3  -9  -22.80   20.03
   3   3 -10    2.58   19.67
   4   3   1   94.11   12.09
  -4  -3   0 1036.52   61.74
   4   3   0  898.93   54.28
  -4  -3   2 1594.41   94.53
   4   3  -2 1538.66   91.88
  -4  -3   3  -20.09   19.40
   4   3  -3   30.35   21.37
  -6  -3  -9  -31.23   16.40
  -6  -3  -8   33.62   14.57
  -6  -3  -7  112.36   15.97
  -6  -3  -6   26.33   12.99
   6   3   6   59.65   13.89
  -6  -3  -5   11.65   12.49
   6   3   5   34.93   12.49
  -6  -3  -4   87.75   11.91
  -6  -3  -3    7.99    6.96
   6   3   3  -15.25    6.57
  -7  -3 -11    2.32   18.10
   7   3  11  -21.11   17.98
  -7  -3 -10   11.14   17.00
   7   3  10   44.20   17.44
  -7  -3  -9   39.94   15.28
   7   3   9   -4.29   14.96
  -7  -3  -8   55.10   14.33
   7   3   8   69.22   14.54
  -7  -3  -7   34.30   13.35
   7   3   7   14.80   13.14
  -7  -3  -6   31.72   11.91
   7   3   6   16.49   12.18
  -7  -3  -5    9.67   11.38
   7   3   5    4.75   11.60
  -8  -3 -10   17.29   16.56
   8   3  10   32.87   16.28
  -8  -3  -9   24.31   15.39
   8   3   9   -4.02   14.48
  -8  -3  -8   13.26   13.05
   8   3   8  -23.86   13.31
  -8  -3  -7  102.64   14.29
   8   3   7   58.17   12.93
  -8  -3  -6   84.03   12.46
   8   3   6   66.85   12.24
  -8  -3  -5   84.75   11.03
   8   3   5   72.92   11.12
  -8  -3  -4   -4.93    9.74
   8   3   4   -7.46    9.66
  -9  -3 -10   -3.32   15.70
   9   3  10    8.76   15.21
  -9  -3  -9   38.65   15.36
   9   3   9   12.58   14.48
  -9  -3  -8    4.69   13.26
   9   3   8   -0.86   12.95
  -9  -3  -7   90.27   13.28
   9   3   7   87.12   13.10
  -9  -3  -6   -9.18   10.53
   9   3   6   -8.48   10.67
  -9  -3  -5   97.19   11.44
   9   3   5   60.46    9.46
 -10  -3 -10   -1.67   15.58
  10   3  10   41.17   15.07
 -10  -3  -8  -12.70   12.79
  10   3   8   -1.90   12.88
 -10  -3  -7    9.90   11.08
  10   3   7   24.11   11.47
 -10  -3  -6   12.78   10.19
  10   3   6  -20.18   10.40
 -10  -3  -5   97.41   11.36
  10   3   5   73.35    9.96
 -11  -3  -9   18.64   14.65
  11   3   9   24.64   13.88
 -11  -3  -8   27.94   13.49
  11   3   8   13.88   12.95
 -11  -3  -7   -8.70   10.90
  11   3   7  -28.60   11.57
 -11  -3  -6    7.38   10.17
  11   3   6   -0.27   10.61
 -12  -3  -9   19.38   14.38
  12   3   9   -9.64   13.49
 -12  -3  -8  -15.67   12.98
  12   3   8    2.83   13.01
 -12  -3  -7   39.35   12.30
  12   3   7   84.72   13.56
 -12  -3  -6   34.71   10.68
  12   3   6   43.90   11.18
 -13  -3  -8   22.42   13.37
  13   3   8   19.46   12.87
 -13  -3  -7  -19.30   12.61
  13   3   7   19.18   12.95
 -14  -3  -7    4.70   12.04
  14   3   7    1.43   12.99
  13  -4   8   22.94   18.39
 -13   4  -8  -20.30   19.67
  12  -4   7    9.43   17.99
 -12   4  -7    6.66   18.85
  12  -4   8   -6.71   17.83
 -12   4  -8    0.98   19.44
  11  -4   7  -13.76   17.51
 -11   4  -7   -0.05   17.56
  11  -4   8   19.17   17.95
 -11   4  -8   18.02   19.58
  11  -4   9   11.95   18.58
 -11   4  -9  -10.16   19.59
  10  -4   6    9.00   16.23
 -10   4  -6  -37.55   16.35
  10  -4   7    3.21   17.62
 -10   4  -7   -8.09   17.09
  10  -4   8    7.69   17.86
 -10   4  -8  -36.89   18.16
   9  -4   6  -34.01   16.20
  -9   4  -6    7.38   16.70
   9  -4   7   -9.95   17.12
  -9   4  -7   12.30   17.26
   9  -4   8    2.74   17.23
  -9   4  -8   -4.08   17.98
   9  -4   9   14.92   17.53
  -9   4  -9   44.13   19.61
   9  -4  10   -5.36   18.17
  -9   4 -10   13.10   18.69
   8  -4   5   43.70   17.48
  -8   4  -5  -12.07   17.45
   8  -4   6   11.12   17.03
  -8   4  -6  -10.22   17.41
   8  -4   7    3.89   16.80
  -8   4  -7  -14.35   17.09
   8  -4   8   18.63   17.09
  -8   4  -8   37.69   18.05
   8  -4   9  -24.71   17.87
  -8   4  -9  -12.61   18.54
   8  -4  10  -28.83   18.76
  -8   4 -10    5.08   19.83
   7  -4   5    5.86   18.37
  -7   4  -5  -22.21   18.02
   7  -4   6   24.85   17.12
  -7   4  -6    2.02   17.95
   7  -4   7   -1.64   16.98
  -7   4  -7    9.66   17.00
   7  -4   8   28.41   16.80
  -7   4  -8   -6.66   17.32
   7  -4   9   -8.44   17.44
  -7   4  -9  -32.72   18.55
   7  -4  10    3.41   19.06
  -7   4 -10   -0.65   19.50
   6  -4   4   43.93   20.80
  -6   4  -4   25.74   20.28
   6  -4   5   16.65   19.26
  -6   4  -5   20.31   19.71
   6  -4   6  -31.81   17.27
  -6   4  -6   26.67   17.83
   6  -4   7   -0.45   16.67
  -6   4  -7  -16.95   16.94
   6  -4   8   -4.57   17.03
  -6   4  -8   11.21   17.39
   6  -4   9  -16.14   17.65
  -6   4  -9  -12.42   18.45
   6  -4  10   40.33   18.94
  -6   4 -10    2.55   20.04
   6  -4  11   20.93   19.73
  -6   4 -11   24.64   19.86
   5  -4   4  -10.71   20.19
  -5   4  -4   32.61   19.92
   5  -4   5   41.38   20.56
  -5   4  -5   91.96   21.04
   5  -4   6   -2.35   17.78
  -5   4  -6  -17.84   18.30
   5  -4   7    9.95   17.10
  -5   4  -7    4.72   17.30
   5  -4   8    1.60   16.70
  -5   4  -8   24.13   17.77
   5  -4   9   76.48   18.85
  -5   4  -9   35.81   18.51
   5  -4  10   -9.58   18.97
  -5   4 -10   11.18   19.80
   5  -4  11   16.50   19.92
  -5   4 -11   35.41   21.20
   4  -4   3  -11.77   20.86
  -4   4  -3   -9.72   21.02
   4  -4   4    8.83   20.51
  -4   4  -4   -6.90   20.30
   4  -4   5   26.03   19.79
  -4   4  -5    6.12   20.36
   4  -4   6   44.91   18.99
  -4   4  -6   12.75   19.27
   4  -4   7   24.55   18.07
  -4   4  -7   27.49   18.31
   4  -4   8  -11.74   17.66
  -4   4  -8   19.61   17.62
   4  -4   9    6.33   17.96
  -4   4  -9    1.72   18.42
   4  -4  10    9.92   18.93
  -4   4 -10  -12.12   19.76
   4  -4  11   53.03   20.47
  -4   4 -11    4.07   21.28
   3  -4   4   22.18   20.44
  -3   4  -4   20.62   20.59
   3  -4   5   18.45   20.34
  -3   4  -5  -26.76   20.77
   3  -4   6   23.18   18.99
  -3   4  -6   17.56   20.24
   3  -4   7   20.16   18.34
  -3   4  -7   49.99   19.35
   3  -4   8    9.57   17.83
  -3   4  -8    0.35   17.50
   3  -4   9  -10.96   17.47
  -3   4  -9  -18.45   17.98
   3  -4  10    2.76   19.00
  -3   4 -10    5.18   19.52
   3  -4  11    8.32   20.04
  -3   4 -11   -2.97   21.14
   2  -4   2   36.35   23.31
   2  -4   3    9.54   21.52
  -2   4  -3   16.64   21.91
   2  -4   5   21.82   21.05
  -2   4  -5  -18.94   21.10
   2  -4   6   44.55   20.93
  -2   4  -6    7.22   20.51
   2  -4   7   26.73   18.70
  -2   4  -7    3.60   19.30
   2  -4   8    1.93   18.39
  -2   4  -8   15.06   18.87
   2  -4   9    5.20   17.71
  -2   4  -9  -30.22   18.64
   2  -4  10   -8.42   19.20
  -2   4 -10    1.49   19.41
   2  -4  11  -29.13   20.71
  -2   4 -11   23.42   21.26
   1  -4   2   35.54   22.85
  -1   4  -2   76.98   24.47
   1  -4   3   11.20   21.99
   1  -4   4   -4.36   20.48
  -1   4  -4   -6.99   21.01
   1  -4   5   33.44   20.36
  -1   4  -5   21.88   20.98
   1  -4   6   28.71   20.86
  -1   4  -6   10.40   21.29
   1  -4   7  -14.42   19.59
  -1   4  -7  -23.24   20.57
   1  -4   8   -0.92   18.17
  -1   4  -8   14.87   19.24
   1  -4   9    4.76   17.83
  -1   4  -9   16.19   19.62
   1  -4  10   30.13   19.17
  -1   4 -10   17.77   20.51
   1  -4  11  -10.16   20.78
  -1   4 -11   -0.05   21.25
   0  -4   1   -0.24   20.96
   0   4  -1  -11.00   21.87
   0  -4   2   39.95   24.14
   0   4  -2    6.12   23.61
   0  -4   3    0.15   21.93
   0   4  -3    2.65   22.65
   0  -4   4  135.68   23.42
   0  -4   5    9.27   20.68
   0   4  -5   -1.76   21.37
   0  -4   6   59.59   21.69
   0   4  -6    2.77   22.20
   0  -4   7  -14.12   19.65
   0   4  -7  -33.46   20.12
   0  -4   8   -6.16   18.63
   0   4  -8  -11.06   18.63
   0  -4   9  -12.12   18.52
   0   4  -9   -5.86   19.05
   0  -4  10   39.59   19.97
   0   4 -10   -0.87   19.97
   0  -4  11  -17.26   20.71
   0   4 -11   29.40   22.68
  -1  -4   1    2.23   21.31
   1   4  -1   69.01   21.32
  -1  -4   2   87.69   22.92
   1   4  -2   20.63   22.27
  -1  -4   3  -13.68   22.27
   1   4  -3  -46.81   22.67
  -1  -4   4    4.37   21.22
   1   4  -4   16.92   20.21
  -1  -4   5  -18.55   22.36
  -1  -4   6  -27.46   21.97
   1   4  -6   21.57   22.48
  -1  -4   7  -16.59   19.71
   1   4  -7   -2.02   20.54
  -1  -4   9   24.04   19.37
   1   4  -9    1.67   19.18
  -1  -4  10   51.19   21.01
   1   4 -10   38.85   21.07
  -1  -4  11  -13.08   21.43
   1   4 -11   43.39   22.70
  -2  -4   0  108.28   19.08
   2   4   0  116.85   19.50
   2   4  -1   18.82   19.53
  -2  -4   2   65.86   22.88
   2   4  -2   47.05   21.37
  -2  -4   3   27.61   21.29
   2   4  -3  -29.51   22.15
  -2  -4   4   23.28   21.75
   2   4  -4  -16.17   21.01
  -2  -4   5  -18.39   21.38
   2   4  -5    1.88   22.06
  -2  -4   6   24.01   21.49
  -2  -4   7   21.17   20.24
   2   4  -7   30.34   20.16
  -2  -4   8    2.41   19.61
   2   4  -8    3.89   19.73
  -2  -4   9   18.93   19.18
   2   4  -9    1.36   19.80
  -2  -4  10  -10.38   19.83
   2   4 -10   -7.22   20.13
  -2  -4  11    0.78   20.87
   2   4 -11   67.18   22.95
  -3  -4   0   11.98   16.32
   3   4   0   43.69   17.10
  -3  -4   1   53.29   19.86
   3   4  -1   51.22   19.67
   3   4  -2   36.24   21.87
  -3  -4   3  102.94   23.36
   3   4  -3  112.71   23.75
  -3  -4   4    7.88   20.66
   3   4  -4    6.33   20.31
  -3  -4   5   -2.06   21.44
   3   4  -5    1.39   21.64
  -3  -4   6   -7.16   21.28
   3   4  -6   12.22   21.76
  -3  -4   7    5.50   19.91
  -3  -4   8   -1.24   18.88
   3   4  -8   20.39   20.00
  -3  -4   9  -12.09   18.54
   3   4  -9   18.07   19.73
  -3  -4  10    2.71   19.95
   3   4 -10  -23.16   21.31
  -3  -4  11   40.18   21.84
   3   4 -11   21.38   22.79
  -4  -4  -1   29.10   12.72
   4   4   1   20.63   13.94
  -4  -4   0   54.90   15.90
   4   4   0   25.45   16.92
  -4  -4   1   15.82   17.98
   4   4  -1   48.00   19.17
  -4  -4   2   -5.30   20.48
   4   4  -2    8.00   20.80
   4   4  -3   23.37   21.46
  -4  -4   4  -12.72   21.55
   4   4  -4   11.17   21.23
  -4  -4   5   20.40   21.17
   4   4  -5   48.09   22.64
  -4  -4   6  -22.67   20.60
   4   4  -6  -11.36   21.13
  -4  -4   7   -4.54   19.73
   4   4  -7    2.95   20.71
  -4  -4   8    8.97   19.29
   4   4  -8    4.64   17.12
  -4  -4   9  -17.23   20.09
   4   4  -9    4.33   20.48
  -4  -4  10  -18.20   20.63
   4   4 -10   50.18   22.32
   4   4 -11  109.21   25.12
  -5  -4  -1  112.63   13.46
   5   4   1  106.24   13.46
  -5  -4   0    3.32   15.25
   5   4   0  -13.34   15.27
  -5  -4   1  153.71   20.13
   5   4  -1  176.17   20.54
  -5  -4   2   11.88   18.46
   5   4  -2    5.92   18.79
  -5  -4   3   23.19   20.71
   5   4  -3   63.16   21.35
   5   4  -4   15.97   21.52
  -5  -4   5   17.66   21.43
   5   4  -5   96.13   24.38
   5   4  -6   -9.18   21.32
   5   4  -7   24.81   19.58
   6   4   2    2.71    6.86
  -6  -4  -1  -32.02   11.54
   6   4   1  -12.27   11.08
  -6  -4   0   -4.49   13.95
   6   4   0   17.16   14.50
   6   4  -1   33.17   16.88
  -7  -4  -5  -17.99   10.10
  -7  -4  -4   25.03    8.44
  -8  -4 -10   35.49   16.82
  -8  -4  -9  -11.91   15.24
  -8  -4  -8   22.70   13.46
   8   4   8   40.30   13.08
  -8  -4  -7   17.56   11.98
   8   4   7   15.70   11.95
  -8  -4  -6    3.87   10.07
   8   4   6   11.77   10.70
  -8  -4  -5    3.98    8.74
  -8  -4  -4   58.91    7.85
   8   4   4   56.17    7.87
  -9  -4 -10   44.31   15.96
   9   4  10   30.79   15.33
  -9  -4  -9   17.66   14.98
   9   4   9   10.68   14.47
  -9  -4  -8   31.44   12.69
   9   4   8   23.66   12.54
  -9  -4  -7    5.41   10.56
   9   4   7   15.82   11.21
  -9  -4  -6    2.46    9.52
   9   4   6   -4.49    9.80
  -9  -4  -5   -8.02    8.06
   9   4   5   -5.62    7.67
   9   4   4   -1.10    6.95
 -10  -4  -9   10.14   14.11
  10   4   9   -2.65   14.02
 -10  -4  -8    3.84   12.24
  10   4   8   31.42   12.87
 -10  -4  -7   12.85   10.44
  10   4   7   -3.41   10.90
 -10  -4  -6    6.01    8.94
  10   4   6    1.25    9.46
 -10  -4  -5   12.45    8.08
  10   4   5   -1.09    8.51
 -11  -4  -9   23.78   13.85
  11   4   9    4.54   13.34
 -11  -4  -8   15.99   12.66
  11   4   8   -1.27   12.46
 -11  -4  -7   15.52   10.44
  11   4   7    4.54   11.09
 -11  -4  -6    2.11    8.86
  11   4   6   -8.17    8.44
  11   4   5   -9.42    7.79
 -12  -4  -8   10.71   11.95
  12   4   8    2.82   12.54
 -12  -4  -7   25.15   10.84
  12   4   7   26.72   11.26
 -12  -4  -6   11.12    9.25
  12   4   6   -7.16    9.22
 -13  -4  -8   -2.41   11.78
  13   4   8   19.85   12.16
 -13  -4  -7   57.09   12.19
  13   4   7   35.73   11.77
  13   4   6   -5.88   10.28
 -14  -4  -7   19.64   10.90
  14   4   7   25.45   11.83
  13  -5   8   60.22   21.11
 -13   5  -8   12.76   20.74
  12  -5   7  261.32   26.18
  12  -5   8   60.52   20.09
 -12   5  -8   21.44   20.25
  11  -5   7   79.10   19.55
 -11   5  -7  116.67   20.86
  11  -5   8   36.24   19.15
 -11   5  -8   37.22   20.30
  11  -5   9   39.02   19.08
 -11   5  -9    3.26   19.80
  10  -5   6    4.43   17.15
  10  -5   7   27.49   17.60
 -10   5  -7   40.57   18.45
  10  -5   8    7.17   18.57
 -10   5  -8    7.49   19.88
  10  -5   9  377.81   31.80
 -10   5  -9  391.67   33.27
   9  -5   6   21.61   17.23
  -9   5  -6    3.01   18.25
   9  -5   8  -10.29   18.05
  -9   5  -8   15.36   18.87
   9  -5   9   66.17   19.86
  -9   5  -9   85.66   20.92
   9  -5  10   29.33   19.12
  -9   5 -10   -1.79   20.63
   8  -5   5  372.68   29.88
   8  -5   6  163.66   20.92
  -8   5  -6  144.19   20.74
   8  -5   7 1061.54   66.25
  -8   5  -7 1054.15   66.17
   8  -5   8   -2.62   17.68
  -8   5  -8   34.39   18.96
   8  -5   9  150.07   21.43
  -8   5  -9  162.91   22.91
   8  -5  10   29.79   19.73
  -8   5 -10   13.70   19.70
   7  -5   5   24.49   18.31
  -7   5  -5   24.81   18.45
   7  -5   6    0.72   17.86
  -7   5  -6   32.40   18.07
   7  -5   7   41.43   17.93
  -7   5  -7   16.68   17.80
   7  -5   8  150.52   20.87
  -7   5  -8  166.68   21.93
   7  -5   9  -10.32   18.10
  -7   5  -9   10.50   19.41
   7  -5  10   -2.46   19.86
  -7   5 -10   11.44   20.04
   6  -5   4   27.37   21.01
  -6   5  -4    7.08   19.20
   6  -5   5  -23.48   18.85
  -6   5  -5  -27.62   19.67
   6  -5   6   36.15   18.30
  -6   5  -6    9.63   18.61
   6  -5   7   26.49   17.38
  -6   5  -7   40.72   18.48
   6  -5   8  -17.74   17.13
  -6   5  -8    6.31   17.72
   6  -5   9   20.31   18.25
  -6   5  -9   25.71   18.76
   6  -5  10   27.46   20.18
  -6   5 -10    0.84   21.22
   6  -5  11   -1.88   19.61
  -6   5 -11   70.15   23.28
   5  -5   4   80.43   21.19
  -5   5  -4   55.04   21.44
   5  -5   5   24.81   19.35
  -5   5  -5    1.52   20.92
   5  -5   6  -24.26   18.04
  -5   5  -6   -6.10   18.78
   5  -5   7    2.79   17.54
  -5   5  -7   37.43   18.55
   5  -5   8   34.77   17.53
  -5   5  -8   22.59   17.50
   5  -5   9   -8.91   17.77
  -5   5  -9   -6.62   18.23
   5  -5  10  788.92   52.87
  -5   5 -10  831.12   55.88
   5  -5  11  -27.50   19.59
  -5   5 -11  -14.24   20.47
   4  -5   3   12.24   21.20
  -4   5  -3    0.17   21.76
   4  -5   4   36.79   22.18
  -4   5  -4   -0.38   21.69
   4  -5   5    3.41   20.39
  -4   5  -5   33.67   21.78
   4  -5   6  192.44   22.88
  -4   5  -6  213.54   24.50
   4  -5   7   25.68   17.92
  -4   5  -7   -0.54   18.37
   4  -5   8    2.64   18.04
  -4   5  -8   12.01   17.80
   4  -5   9   24.17   18.20
  -4   5  -9    2.53   18.31
   4  -5  10   51.66   20.51
  -4   5 -10   80.84   21.34
   4  -5  11   43.30   20.30
  -4   5 -11   14.92   21.55
   3  -5   3    2.41   22.45
  -3   5  -3  -16.85   22.47
   3  -5   4  512.99   38.22
  -3   5  -4  429.20   35.14
   3  -5   5  160.04   24.20
  -3   5  -5  170.89   24.52
   3  -5   6  750.94   49.84
  -3   5  -6  657.06   45.17
   3  -5   7   -5.26   18.02
  -3   5  -7   10.04   19.05
   3  -5   8   36.94   18.43
  -3   5  -8   25.00   18.49
   3  -5   9  -35.49   17.95
  -3   5  -9   23.55   19.18
   3  -5  10   80.17   21.04
  -3   5 -10   30.86   20.40
   3  -5  11   58.37   22.23
  -3   5 -11   61.32   21.51
   2  -5   2  289.35   29.43
  -2   5  -2  231.93   28.36
   2  -5   3   59.30   22.45
   2  -5   4   71.45   21.49
  -2   5  -4   91.34   22.71
   2  -5   5   41.94   22.29
  -2   5  -5   -5.85   21.70
   2  -5   6    4.14   19.65
  -2   5  -6    3.96   20.71
   2  -5   8   -1.07   18.31
  -2   5  -8   -7.78   18.26
   2  -5   9   11.26   18.25
  -2   5  -9   17.24   18.96
   2  -5  11  158.84   24.28
  -2   5 -11  146.98   24.99
   1  -5   2  426.33   34.81
  -1   5  -2  426.63   35.17
   1  -5   3  991.31   62.71
  -1   5  -3 1066.66   67.12
   1  -5   4  212.64   25.09
   1  -5   5   63.67   21.58
  -1   5  -5   87.89   22.54
   1  -5   6   40.92   20.96
  -1   5  -6   28.50   21.37
   1  -5   7   -6.25   18.94
  -1   5  -7    5.91   19.50
   1  -5   8   -8.64   18.36
  -1   5  -8   28.98   18.91
   1  -5   9   75.95   20.15
  -1   5  -9   91.42   20.57
   1  -5  10  139.94   22.98
  -1   5 -10  136.05   23.86
   1  -5  11    8.62   20.99
  -1   5 -11   21.60   22.71
   0  -5   1 9973.38  567.54
   0   5  -1 9999.00  568.74
   0  -5   2    4.84   23.31
   0   5  -2   38.73   23.72
   0  -5   3 2038.98  119.91
   0   5  -3 2038.98  119.99
   0  -5   4  -20.16   20.95
   0   5  -4  -15.10   20.66
   0  -5   5  141.15   23.48
   0  -5   6  -11.68   20.86
   0   5  -6    9.13   20.81
   0  -5   7   55.20   20.01
   0   5  -7   54.98   20.31
   0  -5   8    3.68   19.02
   0   5  -8  -32.90   19.09
   0  -5  10    0.68   19.43
   0   5 -10    7.55   20.84
   0  -5  11  506.66   39.85
   0   5 -11  487.37   39.45
   1   5  -1 2233.39  130.69
  -1  -5   2  377.66   32.19
   1   5  -2  375.55   32.30
  -1  -5   3  933.59   58.97
   1   5  -3 1074.95   67.12
  -1  -5   4  183.25   24.41
   1   5  -4  202.84   25.14
  -1  -5   5   41.99   22.74
   1   5  -5   80.02   21.47
  -1  -5   6   -5.14   20.75
   1   5  -6    0.27   19.11
  -1  -5   7  -11.30   19.29
   1   5  -7   -9.33   19.74
  -1  -5   8   12.78   19.23
   1   5  -8    9.24   20.06
  -1  -5   9   47.64   19.12
   1   5  -9   22.35   20.81
  -1  -5  10  134.00   23.27
   1   5 -10  181.29   25.05
  -1  -5  11   59.57   21.76
   1   5 -11   57.72   23.18
  -2  -5   0  416.39   32.02
   2   5   0  466.12   34.34
  -2  -5   1   41.94   20.71
   2   5  -1   25.32   21.97
   2   5  -2  215.20   25.48
  -2  -5   3    9.16   21.46
   2   5  -3   79.22   21.73
  -2  -5   4  131.38   22.79
   2   5  -4   93.00   21.29
  -2  -5   5   60.63   21.70
   2   5  -5   10.04   21.72
  -2  -5   6   75.49   22.17
  -2  -5   7  305.62   29.06
   2   5  -7  312.10   28.96
  -2  -5   8   15.36   19.05
   2   5  -8   21.37   19.37
  -2  -5   9   54.49   19.70
   2   5  -9   29.46   20.21
  -2  -5  10   60.66   21.79
   2   5 -10   19.41   21.54
  -2  -5  11  185.06   26.03
   2   5 -11  132.18   26.15
  -3  -5   0   28.03   18.04
   3   5   0   20.50   18.64
  -3  -5   1  117.71   19.94
   3   5  -1   76.66   19.80
  -3  -5   2 1015.42   62.96
   3   5  -2 1129.20   69.35
   3   5  -3   18.84   20.95
  -3  -5   4  552.32   40.51
   3   5  -4  552.77   40.27
  -3  -5   5  145.08   24.56
   3   5  -5  114.98   23.72
  -3  -5   6 1104.64   69.59
   3   5  -6 1029.29   65.16
  -3  -5   7  -18.08   20.24
  -3  -5   8   -8.85   18.87
   3   5  -8   17.59   19.58
  -3  -5   9   35.75   20.30
   3   5  -9   14.60   20.99
  -3  -5  10   39.71   21.32
   3   5 -10   14.39   21.88
  -3  -5  11   44.26   22.36
   3   5 -11   78.79   23.77
  -4  -5  -1  115.50   16.08
   4   5   1   92.88   15.87
  -4  -5   0  210.38   20.30
   4   5   0  202.99   20.57
  -4  -5   1   80.35   18.81
   4   5  -1  109.48   19.29
  -4  -5   2   72.13   19.26
   4   5  -2   78.68   20.50
  -4  -5   3   64.20   19.82
   4   5  -3   47.73   21.75
  -4  -5   4   46.46   19.62
   4   5  -4  -24.16   21.20
  -4  -5   5   20.18   21.02
   4   5  -5   43.03   23.64
  -4  -5   6  252.88   26.98
   4   5  -6  288.89   29.13
  -4  -5   7   -3.00   20.92
   4   5  -7   35.22   19.98
  -4  -5   8  -11.60   19.21
  -4  -5   9   23.34   19.97
   4   5  -9    2.05   20.86
  -4  -5  10   72.95   21.75
   4   5 -10   50.06   22.92
  -4  -5  11   46.10   22.73
   4   5 -11   31.77   23.86
  -5  -5  -1    3.74   12.36
   5   5   1  -21.17   13.14
  -5  -5   0    3.33   14.92
   5   5   0  -23.27   15.33
  -5  -5   1    9.43   16.64
   5   5  -1  -23.54   16.65
  -5  -5   2  936.46   58.23
   5   5  -2 1090.92   66.78
  -5  -5   3   -4.43   20.06
   5   5  -3   10.58   20.27
   5   5  -4   94.40   22.23
  -5  -5   5   77.17   22.18
   5   5  -5   29.19   21.07
  -5  -5   6  -19.02   19.61
   5   5  -6    8.88   20.62
  -5  -5   7    8.59   19.14
   5   5  -7   52.65   20.54
  -5  -5   8   20.31   19.30
   5   5  -8   15.51   20.24
  -5  -5   9   17.15   20.44
  -5  -5  11   -8.67   22.85
   5   5 -11   39.63   22.74
  -6  -5  -2  356.11   22.77
   6   5   2  381.73   24.19
  -6  -5   0  352.04   26.06
   6   5   0  358.52   26.99
  -6  -5   1  142.53   18.75
   6   5  -1  104.51   18.23
  -6  -5   2  460.54   34.37
   6   5  -2  514.79   36.53
  -6  -5   3   17.65   20.84
   6   5  -3   22.14   20.63
  -6  -5   4   45.17   21.14
   6   5  -4   72.79   20.83
   6   5  -5   20.74   20.44
  -6  -5   6   22.76   19.56
   6   5  -6   57.40   20.62
  -6  -5   7   66.62   20.33
   6   5  -7   36.50   19.56
   6   5  -8   38.72   21.11
   6   5  -9   -9.40   22.44
  -7  -5  -2   74.51   10.02
   7   5   2  100.16   10.85
  -7  -5   0   16.20   14.53
   7   5   0    0.72   15.21
  -7  -5   1   58.37   17.36
   7   5  -1   55.70   16.91
  -7  -5   2  130.05   21.40
   7   5  -2  142.74   21.22
  -7  -5   3   67.18   21.91
   7   5  -3   70.27   21.32
   7   5  -4  -24.14   19.71
   8   5   2   58.73   10.08
  -9  -5  -8   13.50   12.06
  -9  -5  -7   95.39   12.27
  -9  -5  -6   14.36    8.83
  -9  -5  -5   77.64    8.42
   9   5   5   79.68    8.82
 -10  -5  -9  535.29   35.29
  10   5   9  421.21   29.36
 -10  -5  -8    8.45   12.03
  10   5   8    6.90   12.55
 -10  -5  -7   23.00   10.19
  10   5   7   12.92   10.14
 -10  -5  -6  -14.59    8.09
 -11  -5  -9    1.18   13.04
  11   5   9   26.34   13.08
 -11  -5  -8   59.51   12.85
  11   5   8   65.95   13.26
 -11  -5  -7  105.13   11.92
  11   5   7  115.98   12.48
 -11  -5  -6   30.14    7.99
  11   5   6   41.74    7.55
 -11  -5  -5    7.54    6.68
  11   5   5   14.03    6.57
 -12  -5  -8   28.17   11.60
  12   5   8   21.43   11.85
 -12  -5  -7  233.74   17.35
  12   5   7  221.08   17.26
 -12  -5  -6   63.81    9.36
  12   5   6   71.30    9.25
 -13  -5  -8   25.32   11.48
  13   5   8    2.62   11.17
 -13  -5  -7    0.27   10.07
  13   5   7    6.54    9.86
  13   5   6  587.88   35.20
 -14  -5  -7    7.55    9.61
  14   5   7    1.22    9.69
  12  -6   8   41.73   19.55
 -12   6  -8    1.13   19.58
  11  -6   7  -12.70   18.72
 -11   6  -7   -1.21   19.38
  11  -6   8   31.62   19.53
 -11   6  -8    2.43   20.47
  10  -6   7   -7.69   18.33
 -10   6  -7   -0.86   18.85
  10  -6   8   39.94   19.55
 -10   6  -8    1.19   20.86
  10  -6   9    3.96   19.95
 -10   6  -9   21.14   21.14
   9  -6   6    3.51   17.60
  -9   6  -6   29.16   18.02
   9  -6   7   -7.64   17.71
  -9   6  -7   -1.49   18.87
   9  -6   8   23.25   18.61
  -9   6  -8  -19.61   19.88
   9  -6   9   -0.62   20.07
  -9   6  -9   39.85   21.07
   8  -6   6   -5.86   17.35
  -8   6  -6   23.92   18.37
   8  -6   7   12.27   17.95
  -8   6  -7    6.15   18.78
   8  -6   8  121.53   20.96
  -8   6  -8  125.62   21.99
   8  -6   9   37.75   19.94
  -8   6  -9   31.92   21.20
   8  -6  10   75.82   20.28
  -8   6 -10   44.83   21.01
   7  -6   5  -26.28   18.43
  -7   6  -5   18.45   18.49
   7  -6   6    6.37   18.28
  -7   6  -6    4.34   18.42
   7  -6   7   -6.19   17.38
  -7   6  -7   19.68   18.84
   7  -6   8  -17.15   17.80
  -7   6  -8   28.59   18.94
   7  -6   9  -18.82   18.99
  -7   6  -9  -16.08   20.16
   7  -6  10   23.57   20.18
  -7   6 -10   35.76   21.41
   6  -6   5   -1.05   18.16
  -6   6  -5  -13.17   19.56
   6  -6   6  -13.52   18.13
  -6   6  -6  -27.31   18.60
   6  -6   7   14.03   18.05
  -6   6  -7   19.30   18.26
   6  -6   8   10.11   18.42
  -6   6  -8   -0.78   18.36
   6  -6   9   16.06   18.88
  -6   6  -9   31.86   19.67
   6  -6  10  -42.03   19.65
  -6   6 -10   -6.50   20.95
   5  -6   4   48.50   21.47
  -5   6  -4  -15.40   21.47
   5  -6   5   10.65   19.77
  -5   6  -5   17.00   20.42
   5  -6   6  -20.37   18.51
  -5   6  -6   26.96   19.94
   5  -6   7   46.70   18.63
  -5   6  -7   58.80   19.06
   5  -6   8    3.89   17.59
  -5   6  -8  -20.15   17.63
   5  -6   9   41.89   18.97
  -5   6  -9  -17.96   19.15
   5  -6  10   -7.93   19.70
  -5   6 -10    3.87   21.40
   5  -6  11   35.41   21.26
  -5   6 -11   40.70   23.95
   4  -6   3   33.59   20.47
   4  -6   4   24.67   23.04
  -4   6  -4   11.50   22.18
   4  -6   5   15.25   20.92
  -4   6  -5   33.15   21.44
   4  -6   6    7.69   18.17
  -4   6  -6    9.24   19.44
   4  -6   7   18.79   18.33
  -4   6  -7   46.37   18.84
   4  -6   8   24.46   17.77
  -4   6  -8   12.01   18.51
   4  -6   9   17.69   18.72
  -4   6  -9   52.99   20.07
   4  -6  10   -1.88   20.44
  -4   6 -10   14.41   20.78
   4  -6  11   -0.21   21.49
  -4   6 -11   22.33   21.88
   3  -6   3   88.05   22.24
  -3   6  -3   19.70   22.24
   3  -6   4   -8.92   21.57
  -3   6  -4    9.04   22.74
   3  -6   5   24.22   20.92
  -3   6  -5   31.07   22.35
   3  -6   6   -0.15   19.70
  -3   6  -6  -10.04   20.45
   3  -6   7   50.64   18.75
  -3   6  -7   56.27   19.44
   3  -6   8   -4.90   18.04
  -3   6  -8   -6.75   18.55
   3  -6   9   53.27   19.08
  -3   6  -9  -10.41   19.17
   3  -6  10  -35.64   19.92
  -3   6 -10   -4.43   19.70
   3  -6  11   40.49   20.63
  -3   6 -11    8.35   21.13
   2  -6   2    4.42   21.22
   2  -6   3   18.37   21.54
   2  -6   4  -12.88   21.34
  -2   6  -4   -4.79   22.06
   2  -6   5   44.37   21.52
  -2   6  -5  -29.88   22.32
   2  -6   6   72.71   20.36
  -2   6  -6   56.68   21.07
   2  -6   7   41.14   18.73
  -2   6  -7   -4.85   19.09
   2  -6   8    5.50   18.16
  -2   6  -8  -31.86   18.64
   2  -6   9    4.23   18.69
  -2   6  -9    6.86   19.44
   2  -6  10   25.06   19.88
  -2   6 -10  -37.65   21.04
   2  -6  11   26.95   20.53
  -2   6 -11   -6.47   21.82
   1  -6   2   -6.43   21.64
  -1   6  -2   41.46   23.31
   1  -6   3  -26.79   21.41
  -1   6  -3  -20.50   21.79
   1  -6   4   29.07   23.06
   1  -6   5    8.12   21.78
  -1   6  -5   11.41   22.85
   1  -6   6    1.67   19.58
  -1   6  -6   23.81   20.07
   1  -6   7   14.35   18.10
  -1   6  -7   11.92   19.08
   1  -6   8   -8.64   18.49
  -1   6  -8  -12.48   19.08
   1  -6   9    2.28   19.20
  -1   6  -9   40.40   19.52
   1  -6  10  -18.75   19.76
  -1   6 -10   15.39   20.75
   1  -6  11   19.43   21.37
  -1   6 -11    1.61   21.91
   0  -6   1   -6.77   22.03
   0   6  -1    1.64   21.78
   0  -6   2   82.90   22.18
   0   6  -2  128.85   24.90
   0  -6   3  -19.40   20.83
   0   6  -3   -6.21   21.58
   0  -6   4   17.00   21.85
   0   6  -4   17.39   21.46
   0  -6   5   27.97   21.75
   0  -6   6   40.24   19.77
   0   6  -6   43.85   20.71
   0  -6   7   17.90   18.94
   0   6  -7   -2.80   19.30
   0  -6   8   34.03   19.46
   0   6  -8   37.46   20.07
   0  -6   9   -8.27   18.63
   0   6  -9   -5.05   20.36
   0  -6  10   81.76   22.21
   0   6 -10   38.52   21.88
   0  -6  11   -4.57   20.44
   0   6 -11   27.65   23.06
   1   6  -1   54.07   22.91
  -1  -6   2   21.19   22.73
   1   6  -2    4.19   22.33
  -1  -6   3   -9.54   21.08
   1   6  -3    9.52   20.19
  -1  -6   4   68.37   21.81
   1   6  -4   61.62   22.02
  -1  -6   5    5.29   21.43
   1   6  -5   23.69   21.90
  -1  -6   6    6.36   20.13
  -1  -6   7   27.64   18.87
   1   6  -7   -9.86   19.52
  -1  -6   8   18.40   18.78
   1   6  -8    6.72   19.17
  -1  -6   9  -13.64   18.87
   1   6  -9   39.91   20.90
  -1  -6  10    1.99   20.51
   1   6 -10    7.13   21.16
  -1  -6  11   42.03   21.41
   1   6 -11   49.64   23.63
  -2  -6   0   19.88   19.18
   2   6   0   28.60   19.23
  -2  -6   1  -36.08   20.90
   2   6  -1  -27.71   21.16
   2   6  -2   13.77   21.20
  -2  -6   3  -10.58   21.64
   2   6  -3    4.64   20.90
  -2  -6   4   -7.20   21.20
   2   6  -4   -4.31   21.31
  -2  -6   5   49.66   21.78
   2   6  -5   11.29   22.14
  -2  -6   6  100.71   22.09
   2   6  -6   63.52   21.49
  -2  -6   7  -10.50   19.46
  -2  -6   8   19.77   19.44
   2   6  -8    9.58   19.23
  -2  -6   9    8.70   18.76
   2   6  -9  -14.77   20.27
  -2  -6  10   24.96   20.95
   2   6 -10  -28.33   22.36
  -2  -6  11    3.89   22.21
   2   6 -11    8.73   23.06
  -3  -6   0   33.35   18.20
   3   6   0  -28.56   17.87
  -3  -6   1   43.15   19.61
   3   6  -1   36.97   18.70
  -3  -6   2   -8.80   19.26
   3   6  -2   21.19   20.84
   3   6  -3   25.50   21.28
  -3  -6   4  -25.57   22.23
   3   6  -4   10.91   21.05
  -3  -6   5   52.31   21.55
   3   6  -5   47.59   22.53
  -3  -6   6  -29.18   19.98
   3   6  -6   29.84   21.07
  -3  -6   7  109.86   21.88
   3   6  -7   36.17   21.22
  -3  -6   8   -2.88   18.75
  -3  -6   9  -29.73   19.56
   3   6  -9   -8.38   20.74
  -3  -6  10   37.54   22.09
   3   6 -10   26.12   22.11
  -3  -6  11   -8.77   21.19
   3   6 -11   14.21   22.70
  -4  -6  -1   -2.68   14.96
   4   6   1    4.20   15.49
  -4  -6   0   30.53   15.78
   4   6   0  -10.29   17.07
  -4  -6   1    9.71   18.40
   4   6  -1  -20.60   17.32
  -4  -6   2   -0.59   18.60
   4   6  -2  -10.37   19.53
  -4  -6   3   36.80   21.16
   4   6  -3   -4.46   20.44
   4   6  -4   15.15   21.88
  -4  -6   5  -12.48   20.19
   4   6  -5   27.85   21.25
  -4  -6   7   36.91   19.68
   4   6  -7    9.27   20.01
  -4  -6   8   -5.23   19.85
   4   6  -8    9.45   19.50
  -4  -6   9   -4.51   19.89
   4   6  -9   38.13   19.89
  -4  -6  10   -3.19   20.80
   4   6 -10   44.71   23.33
  -4  -6  11   15.15   22.67
   4   6 -11    6.92   22.68
  -5  -6  -1  114.97   15.48
   5   6   1  128.95   16.83
  -5  -6   0   -0.87   15.93
   5   6   0   -6.72   16.03
  -5  -6   1   68.40   17.60
   5   6  -1  116.42   19.32
  -5  -6   2  -21.02   19.23
   5   6  -2  -22.20   19.09
  -5  -6   3  -22.15   20.45
   5   6  -3   41.83   21.47
  -5  -6   4   37.18   21.28
   5   6  -4  -10.93   20.34
   5   6  -5   -9.78   20.78
  -5  -6   6    1.79   19.61
   5   6  -6  -13.80   19.74
  -5  -6   7   57.93   19.53
   5   6  -7   46.64   19.58
  -5  -6   8   -0.33   19.68
   5   6  -8  -26.16   20.30
  -5  -6   9   14.86   20.30
   5   6  -9   28.42   17.89
  -5  -6  10   -9.49   22.11
   5   6 -10    4.48   22.59
  -6  -6  -2    9.10   11.42
   6   6   2   15.70   11.83
  -6  -6  -1   24.79   12.92
   6   6   1   27.04   13.26
  -6  -6   0   44.61   15.34
   6   6   0    5.64   15.25
  -6  -6   1  -28.63   17.15
   6   6  -1   22.91   17.15
  -6  -6   2   16.92   19.32
   6   6  -2   26.84   19.08
  -6  -6   3   21.32   20.69
   6   6  -3    5.74   21.04
  -6  -6   4   20.39   20.75
   6   6  -4   25.29   20.40
  -6  -6   5   -3.96   20.36
   6   6  -5  -25.95   20.22
   6   6  -6    5.95   20.12
  -6  -6   7    5.20   19.20
   6   6  -7   16.49   20.45
  -6  -6   8    3.69   19.49
   6   6  -8    7.87   20.00
  -6  -6   9   19.15   20.71
   6   6  -9   -3.83   21.57
  -6  -6  10   23.28   21.41
  -7  -6  -2   10.44   10.22
   7   6   2    6.96   10.87
  -7  -6  -1   19.89   12.78
   7   6   1   15.87   13.04
  -7  -6   0   25.17   15.39
   7   6   0    0.08   15.33
  -7  -6   1    9.09   16.80
   7   6  -1  -16.35   17.26
  -7  -6   2   10.78   18.75
   7   6  -2  -30.59   19.09
  -7  -6   3    3.50   18.85
   7   6  -3    4.13   19.55
  -7  -6   4   34.07   19.73
   7   6  -4   -8.54   20.04
  -7  -6   5   48.19   19.77
   7   6  -5   10.79   19.62
  -7  -6   6  -20.09   17.01
   7   6  -6   -2.89   19.64
  -7  -6   7   -6.10   17.47
   7   6  -7  -21.29   19.92
  -7  -6   8   -8.41   20.00
   7   6  -8    4.14   20.63
  -7  -6   9   23.63   21.47
   7   6  -9   37.10   23.18
  -7  -6  10   43.22   22.08
   7   6 -10    3.77   23.18
  -8  -6  -3   -7.04    7.05
   8   6   3    6.78    7.38
  -8  -6  -2    6.03   10.07
   8   6   2   27.13   10.10
  -8  -6  -1   -7.16   13.17
   8   6   1    6.93   13.14
  -8  -6   0   66.82   15.82
   8   6   0  113.09   17.03
  -8  -6   1   -5.68   16.79
   8   6  -1   11.36   16.65
  -8  -6   2   -2.88   18.78
   8   6  -2   26.79   18.64
  -8  -6   3   29.55   18.22
   8   6  -3   -5.77   18.60
  -8  -6   4   44.65   18.96
   8   6  -4   10.40   18.70
  -8  -6   5  -24.67   17.71
   8   6  -5   21.97   19.35
   8   6  -6   -2.49   19.56
   8   6  -7  -28.27   20.78
   8   6  -8  136.76   24.62
  -9  -6  -3    2.71    6.04
   9   6   3   -3.51    6.56
  -9  -6  -2    4.60    9.22
   9   6   2   16.17   10.04
  -9  -6  -1   -9.18   12.22
   9   6   1  -21.41   12.60
  -9  -6   0  -29.48   14.21
   9   6   0   13.11   14.23
   9   6  -1    5.46   16.09
 -10  -6  -5   14.56    5.05
 -11  -6  -9    0.68   13.29
 -11  -6  -8   24.97   11.68
 -11  -6  -7   21.43    9.74
 -11  -6  -6    4.73    7.14
  11   6   6    1.70    7.57
 -11  -6  -5    7.34    4.69
  11   6   5    2.95    4.61
 -12  -6  -8   18.94   10.28
  12   6   8   27.91   11.09
 -12  -6  -7   20.60    9.43
 -12  -6  -6   14.81    6.98
  12   6   6   -8.15    7.19
 -13  -6  -7   81.17   10.08
 -13  -6  -6   17.41    7.43
  13   6   6   29.19    8.15
  12  -7   8   14.89   20.22
  11  -7   7    3.66   19.33
 -11   7  -7    5.14   19.40
  11  -7   8   -1.40   20.54
 -11   7  -8    6.33   20.75
  10  -7   7   -5.17   18.81
 -10   7  -7   26.87   20.07
  10  -7   8  -18.85   20.50
 -10   7  -8    3.68   20.83
  10  -7   9  -13.17   21.05
 -10   7  -9  -38.20   21.31
   9  -7   6   26.87   18.28
  -9   7  -6   -3.35   18.22
   9  -7   7   55.65   19.77
  -9   7  -7   32.37   19.64
   9  -7   8    0.14   19.62
  -9   7  -8    1.22   21.02
   9  -7   9   17.90   20.47
  -9   7  -9    3.89   21.64
   8  -7   6   10.08   17.35
  -8   7  -6    9.55   18.26
   8  -7   7   36.06   19.08
  -8   7  -7    7.14   19.33
   8  -7   8  -13.23   19.61
  -8   7  -8   -1.33   20.56
   8  -7   9   23.96   20.13
  -8   7  -9   13.70   21.82
   7  -7   5   83.43   19.76
  -7   7  -5  105.20   20.98
   7  -7   6   11.77   18.82
  -7   7  -6   -7.46   18.79
   7  -7   7    1.13   18.37
  -7   7  -7   33.44   18.93
   7  -7   8    3.33   19.29
  -7   7  -8   12.58   19.58
   7  -7   9  -15.51   19.89
  -7   7  -9   45.99   22.11
   7  -7  10    6.84   19.53
  -7   7 -10  -46.48   21.28
   6  -7   5  -16.56   18.61
  -6   7  -5  -24.84   20.12
   6  -7   6   -3.78   18.84
  -6   7  -6   10.22   19.67
   6  -7   7   -9.96   18.02
  -6   7  -7   -9.31   18.23
   6  -7   8   26.61   18.64
  -6   7  -8   26.28   19.35
   6  -7   9   22.35   20.27
  -6   7  -9   22.77   20.19
   6  -7  10    1.67   19.88
  -6   7 -10   15.04   22.02
   5  -7   4   -1.34   20.50
  -5   7  -4   34.57   21.93
   5  -7   5   27.92   20.22
  -5   7  -5   22.94   20.57
   5  -7   6    8.38   19.30
  -5   7  -6   43.96   19.67
   5  -7   7   10.29   18.01
  -5   7  -7   14.74   19.50
   5  -7   8   30.03   18.67
  -5   7  -8   21.47   19.49
   5  -7   9   22.21   19.65
  -5   7  -9  -14.71   19.11
   5  -7  10   19.67   20.95
  -5   7 -10   20.07   20.65
   4  -7   4   17.36   20.98
  -4   7  -4  -21.23   22.71
   4  -7   5   43.82   20.07
  -4   7  -5  -28.42   21.37
   4  -7   6  107.21   20.68
  -4   7  -6   72.67   20.62
   4  -7   7    5.15   18.48
  -4   7  -7   12.06   18.42
   4  -7   8  133.96   20.96
  -4   7  -8  130.64   21.41
   4  -7   9  -19.30   18.97
  -4   7  -9   11.03   20.44
   4  -7  10   98.18   22.47
  -4   7 -10   80.87   22.92
   3  -7   3   59.36   22.76
   3  -7   4   72.47   23.21
  -3   7  -4   82.04   23.87
   3  -7   5   19.30   20.39
  -3   7  -5    9.58   21.43
   3  -7   6   46.05   19.09
  -3   7  -6   29.25   20.16
   3  -7   7  -11.41   18.19
  -3   7  -7  -15.02   18.46
   3  -7   8  -15.97   18.14
  -3   7  -8  -18.67   18.94
   3  -7   9   -7.76   19.23
  -3   7  -9   20.96   20.10
   3  -7  10   35.97   20.81
  -3   7 -10  -10.31   21.91
   3  -7  11   13.05   21.87
  -3   7 -11   20.37   23.48
   2  -7   3   28.92   22.68
  -2   7  -3  -28.84   21.69
   2  -7   4   22.64   22.59
   2  -7   5   16.38   20.44
  -2   7  -5   22.33   21.28
   2  -7   6   -4.20   19.23
  -2   7  -6   -5.65   19.21
   2  -7   7  -33.34   18.23
  -2   7  -7  -25.32   19.29
   2  -7   8   -3.35   19.02
  -2   7  -8   44.97   19.49
   2  -7   9   -8.18   19.61
  -2   7  -9   11.68   20.13
   2  -7  10    4.17   20.81
  -2   7 -10   20.65   22.33
   2  -7  11  -21.76   21.46
  -2   7 -11   -4.11   21.76
   1  -7   2    5.46   21.82
  -1   7  -2   35.93   21.60
   1  -7   3  369.97   32.67
  -1   7  -3  331.54   31.09
   1  -7   4    8.12   22.09
  -1   7  -4  -11.62   22.26
   1  -7   5   56.96   21.37
   1  -7   6    6.28   19.94
  -1   7  -6   23.42   19.91
   1  -7   7   50.56   19.70
  -1   7  -7   53.26   19.94
   1  -7   8   58.89   19.46
  -1   7  -8   27.89   19.65
   1  -7   9   -8.11   19.91
  -1   7  -9   -4.81   20.13
   1  -7  10   -1.31   21.61
  -1   7 -10   22.27   22.38
   1  -7  11   43.39   21.72
  -1   7 -11   34.59   22.79
   0  -7   2   -9.75   22.09
   0   7  -2  -41.34   22.12
   0  -7   3   69.44   22.89
   0   7  -3   52.32   22.20
   0  -7   4   19.82   21.38
   0   7  -4  -30.19   21.75
   0  -7   5    8.79   21.11
   0   7  -5   31.90   20.47
   0  -7   6  -22.48   19.00
   0   7  -6    4.04   18.40
   0  -7   7   67.88   19.85
   0   7  -7   92.98   20.98
   0  -7   8  -20.15   18.73
   0   7  -8  -10.16   19.03
   0  -7   9   39.88   20.03
   0   7  -9   25.06   20.24
   0  -7  10   30.59   21.51
   0   7 -10   -3.12   21.73
   0  -7  11   -6.34   21.22
   0   7 -11   46.72   23.42
  -1  -7   1   42.14   20.92
   1   7  -1  -23.22   22.00
   1   7  -2  -18.28   22.08
  -1  -7   3  417.89   34.37
   1   7  -3  442.46   35.14
  -1  -7   4   40.52   21.13
   1   7  -4   43.66   22.62
  -1  -7   5    6.00   21.73
   1   7  -5   46.01   21.90
  -1  -7   6   -9.19   19.38
   1   7  -6   20.24   17.19
  -1  -7   7   32.49   19.35
   1   7  -7   25.23   20.06
  -1  -7   8   21.04   18.90
   1   7  -8  -16.11   18.94
  -1  -7   9   -3.16   18.93
   1   7  -9    9.64   20.39
  -1  -7  10  -30.52   20.22
   1   7 -10   33.02   22.30
  -1  -7  11   10.61   22.21
   1   7 -11   39.98   23.80
  -2  -7   1  -31.03   19.50
   2   7  -1  -27.29   20.47
  -2  -7   2   20.21   20.93
   2   7  -2   43.70   21.61
   2   7  -3   20.00   21.01
  -2  -7   4   18.64   22.24
   2   7  -4  -17.72   22.00
  -2  -7   5  -17.16   20.50
   2   7  -5   -1.21   22.18
  -2  -7   6   15.06   19.58
   2   7  -6   -3.56   20.72
  -2  -7   7   37.39   19.58
  -2  -7   8  -14.00   18.79
   2   7  -8   -1.73   20.09
  -2  -7   9    2.47   19.47
   2   7  -9   49.61   21.97
  -2  -7  10    1.52   21.47
   2   7 -10  -12.57   21.76
  -2  -7  11  -30.44   21.54
   2   7 -11  -12.45   22.54
  -3  -7   0  -21.67   18.02
   3   7   0    9.78   18.33
  -3  -7   1  -23.72   18.88
   3   7  -1   -0.11   18.91
  -3  -7   2   79.15   20.04
   3   7  -2   74.37   21.51
  -3  -7   3   22.57   20.51
   3   7  -3    6.50   20.66
  -3  -7   4   38.11   18.79
   3   7  -4   62.95   22.39
  -3  -7   5    2.79   19.79
   3   7  -5   -4.37   20.93
  -3  -7   6   19.49   20.01
   3   7  -6  -44.35   20.09
  -3  -7   7   18.75   19.56
   3   7  -7   16.73   19.33
  -3  -7   8   21.43   19.70
  -3  -7   9   34.21   20.22
   3   7  -9  -10.97   20.95
  -3  -7  10   30.16   21.38
   3   7 -10   31.23   22.68
  -3  -7  11   40.43   23.25
   3   7 -11   -3.87   23.98
  -4  -7   0  494.00   34.45
   4   7   0  447.28   32.33
  -4  -7   1   29.90   18.94
   4   7  -1    7.97   18.16
  -4  -7   2  280.60   26.31
   4   7  -2  314.06   28.06
  -4  -7   3   32.05   20.56
   4   7  -3   -3.21   19.94
  -4  -7   4   -3.74   17.98
   4   7  -4    9.51   20.92
  -4  -7   5  -14.41   20.00
   4   7  -5   30.41   20.21
  -4  -7   6   78.73   21.05
   4   7  -6   33.58   20.83
  -4  -7   7   22.79   19.03
   4   7  -7  -12.90   19.17
  -4  -7   8  147.72   22.44
   4   7  -8  143.21   23.54
  -4  -7   9   22.39   20.80
  -4  -7  10   93.25   23.95
   4   7 -10   68.96   23.66
  -5  -7  -1    7.37   14.47
   5   7   1   23.10   15.79
  -5  -7   0   10.29   17.03
   5   7   0    5.97   16.34
  -5  -7   1    1.34   18.26
   5   7  -1   22.86   18.51
  -5  -7   2   11.50   19.59
   5   7  -2   35.58   19.33
  -5  -7   3   23.37   20.54
   5   7  -3   43.16   20.60
  -5  -7   4   36.58   20.45
   5   7  -4   27.26   20.72
   5   7  -5   19.83   20.62
  -5  -7   6    9.25   18.61
   5   7  -6   15.73   20.34
  -5  -7   7   16.61   18.88
   5   7  -7  -28.06   19.89
  -5  -7   8   57.51   20.92
   5   7  -8   20.99   20.83
  -5  -7   9   17.44   21.38
   5   7  -9  -25.33   22.03
  -5  -7  10   -5.88   21.66
  -6  -7  -2   63.70   13.62
  -6  -7  -1   26.27   14.11
   6   7   1   -0.93   14.24
  -6  -7   0   14.51   16.56
   6   7   0   28.83   16.26
  -6  -7   1   -9.69   17.92
   6   7  -1   11.77   18.11
  -6  -7   2   59.57   19.61
   6   7  -2   73.66   20.18
  -6  -7   3   25.59   19.80
   6   7  -3   -7.07   19.97
  -6  -7   4   -4.52   19.43
   6   7  -4    5.88   19.67
  -6  -7   5  -22.45   19.02
   6   7  -5   22.20   19.43
   6   7  -6  -17.04   19.46
  -6  -7   7   -9.66   18.73
   6   7  -7  -33.62   20.30
  -6  -7   8   17.71   20.19
   6   7  -8   27.38   20.33
  -6  -7   9   43.49   21.96
   6   7  -9   10.43   22.92
  -6  -7  10  -10.58   21.10
   6   7 -10   40.46   24.13
  -7  -7  -2  -11.44   11.75
   7   7   2   17.98   12.64
  -7  -7   0    5.46   15.49
   7   7   0   42.75   16.09
  -7  -7   1   46.45   17.62
   7   7  -1   88.27   18.36
  -7  -7   2   27.44   18.42
   7   7  -2   14.86   18.52
  -7  -7   3   23.51   18.33
   7   7  -3   30.43   18.87
  -7  -7   4  -13.37   18.45
   7   7  -4   23.68   19.21
  -7  -7   5   95.65   20.03
   7   7  -5   75.64   20.24
  -7  -7   6   30.55   18.73
   7   7  -6   39.56   19.89
   7   7  -7   23.69   20.63
  -7  -7   8    0.87   20.44
   7   7  -8   -3.26   21.22
  -7  -7   9  -37.00   22.21
   7   7  -9   38.25   22.48
  -7  -7  10   31.10   22.39
   7   7 -10   52.04   24.31
  -8  -7  -3    5.97    8.35
  -8  -7  -2    5.56   10.16
   8   7   2    6.62   10.99
  -8  -7  -1   13.04   12.70
   8   7   1   45.95   13.23
  -8  -7   0   30.50   14.95
   8   7   0   11.26   15.28
  -8  -7   1   34.59   16.55
   8   7  -1   21.94   16.62
  -8  -7   2   16.47   17.16
   8   7  -2   -7.22   17.63
  -8  -7   3  -16.70   17.95
   8   7  -3   39.82   18.51
  -8  -7   4   -3.93   18.04
   8   7  -4   19.17   18.14
  -8  -7   5  101.93   19.67
   8   7  -5   89.18   20.06
  -8  -7   6    4.07   18.61
   8   7  -6  -21.17   19.41
  -8  -7   7   35.11   19.86
   8   7  -7    3.24   20.65
   8   7  -8   18.33   21.61
  -8  -7   9   26.01   22.61
   8   7  -9   63.81   23.93
  -9  -7  -3   82.27    8.88
   9   7   3  100.13   10.16
  -9  -7  -2    9.77    9.61
   9   7   2    6.34   10.62
  -9  -7  -1   45.12   12.19
   9   7   1   48.42   12.63
  -9  -7   0    0.63   14.00
   9   7   0  -23.75   14.35
  -9  -7   1   32.16   15.66
   9   7  -1   46.58   16.26
  -9  -7   2    8.09   16.14
   9   7  -2   -2.76   16.77
  -9  -7   3  113.58   18.99
   9   7  -3  165.92   20.78
  -9  -7   4  -10.05   16.71
   9   7  -4    4.29   17.89
  -9  -7   5  177.07   22.30
   9   7  -5  176.02   23.24
  -9  -7   6  -13.91   18.26
   9   7  -6  -31.48   19.97
  -9  -7   7   60.79   20.27
   9   7  -7   39.05   21.35
   9   7  -8   26.52   22.68
   9   7  -9  -12.90   22.44
 -10  -7  -4    0.51    4.99
 -10  -7  -3   13.64    7.02
  10   7   3    8.85    7.70
 -10  -7  -2    7.43    9.03
  10   7   2    1.49   10.29
 -10  -7  -1    5.46   11.56
  10   7   1   -8.42   11.95
 -10  -7   0   15.36   13.11
  10   7   0  -13.16   13.62
 -10  -7   1   28.54   14.87
  10   7  -1   -0.71   15.40
 -10  -7   2   -8.48   15.70
  10   7  -2  -11.66   15.54
  10   7  -3   25.24   17.59
  10   7  -4    2.35   17.99
  10   7  -5   24.10   18.54
 -11  -7  -4    3.44    4.54
  11   7   4    1.51    4.91
 -11  -7  -3   -0.21    7.20
  11   7   3   -3.41    7.82
  11   7   2   12.66   10.19
  11   7   1   20.89   12.12
 -12  -7  -8   33.34   10.17
 -12  -7  -7   18.78    8.48
 -12  -7  -6   43.25    6.59
 -13  -7  -7    2.50    7.76
  13   7   7   -0.47    8.11
 -13  -7  -6    9.39    5.59
  13   7   6   12.48    6.19
  14   7   6    6.78    6.03
  11  -8   7   22.80   20.99
  11  -8   8   -2.14   20.60
 -11   8  -8   25.48   21.96
  10  -8   7   -4.46   20.22
 -10   8  -7   -2.35   21.34
  10  -8   8    1.79   20.75
 -10   8  -8   40.06   22.05
   9  -8   6   45.32   19.67
   9  -8   7   33.32   19.92
  -9   8  -7  -10.76   20.33
   9  -8   8  124.00   22.73
  -9   8  -8  140.51   25.02
   9  -8   9   14.14   20.63
  -9   8  -9  -14.65   21.70
   8  -8   6   69.47   19.82
  -8   8  -6   80.93   20.37
   8  -8   7   26.42   19.98
  -8   8  -7   31.12   20.10
   8  -8   8   41.10   21.02
  -8   8  -8   57.06   22.18
   8  -8   9   18.37   20.59
  -8   8  -9   -9.54   22.41
   7  -8   5   33.35   19.11
  -7   8  -5    7.88   19.56
   7  -8   6   33.65   18.48
  -7   8  -6   -2.95   19.43
   7  -8   7   -3.39   18.42
  -7   8  -7    0.44   19.56
   7  -8   9   20.54   20.36
  -7   8  -9   49.35   21.84
   6  -8   5   35.28   18.99
  -6   8  -5   -7.52   19.35
   6  -8   6   19.91   18.58
  -6   8  -6   43.75   19.80
   6  -8   7  302.16   28.24
  -6   8  -7  345.56   30.83
   6  -8   8   41.44   19.89
  -6   8  -8   10.76   20.40
   6  -8   9  118.78   22.80
  -6   8  -9  163.66   24.78
   6  -8  10   23.89   20.72
  -6   8 -10   15.72   21.34
   5  -8   4    0.51   19.59
  -5   8  -4   12.78   20.66
   5  -8   5  264.78   26.40
  -5   8  -5  314.66   29.51
   5  -8   6   10.93   18.79
  -5   8  -6  -19.71   19.46
   5  -8   7  146.07   22.05
  -5   8  -7  211.13   25.08
   5  -8   8   14.87   18.81
  -5   8  -8    6.60   19.92
   5  -8   9   54.06   20.89
  -5   8  -9   21.49   21.16
   5  -8  10   33.97   20.07
  -5   8 -10  -28.65   20.83
   4  -8   4  -14.08   20.28
  -4   8  -4    3.63   21.08
   4  -8   5  326.72   29.79
  -4   8  -5  243.98   27.02
   4  -8   6   47.06   19.38
  -4   8  -6   26.85   19.71
   4  -8   7  819.21   53.94
  -4   8  -7  766.01   51.36
   4  -8   8   10.59   18.58
  -4   8  -8   -6.18   19.06
   4  -8   9   56.81   20.31
  -4   8  -9   59.06   22.30
   4  -8  10   -8.21   20.78
  -4   8 -10   -9.21   22.39
   3  -8   3   79.21   23.00
   3  -8   4  263.43   27.61
  -3   8  -4  287.54   29.37
   3  -8   5   29.04   20.63
  -3   8  -5   67.51   21.67
   3  -8   6    4.39   18.49
  -3   8  -6  -56.72   19.77
   3  -8   7  -11.30   18.51
  -3   8  -7   -6.57   19.35
   3  -8   8   25.12   19.14
  -3   8  -8   46.72   19.82
   3  -8   9   20.01   19.95
  -3   8  -9   58.16   21.26
   3  -8  10    1.36   20.96
  -3   8 -10   21.61   22.51
   2  -8   3   20.15   22.67
  -2   8  -3  -11.51   22.35
   2  -8   4  187.62   25.65
   2  -8   5  -19.55   19.59
  -2   8  -5  -17.99   21.67
   2  -8   6    7.99   18.94
  -2   8  -6  -11.80   19.56
   2  -8   7   29.63   18.94
  -2   8  -7   19.27   19.46
   2  -8   8    3.03   18.20
  -2   8  -8  -16.52   19.92
   2  -8   9   94.88   21.94
  -2   8  -9   90.35   22.42
   2  -8  10   13.35   21.38
  -2   8 -10   11.06   22.64
   1  -8   2   67.11   22.73
  -1   8  -2   91.97   22.91
   1  -8   3   30.49   22.59
  -1   8  -3   30.59   23.13
   1  -8   4  507.56   38.85
  -1   8  -4  497.01   38.73
   1  -8   5   26.21   20.03
   1  -8   6  490.68   36.61
  -1   8  -6  521.58   38.65
   1  -8   7   73.56   19.73
  -1   8  -7   34.95   19.83
   1  -8   8  493.24   37.61
  -1   8  -8  565.43   41.52
   1  -8   9   20.89   20.21
  -1   8  -9    7.90   20.84
   1  -8  10   39.30   21.87
  -1   8 -10   61.37   22.95
   0  -8   2   27.58   22.59
   0   8  -2   23.10   22.00
   0  -8   3    8.20   21.96
   0   8  -3    4.51   22.54
   0  -8   4  870.90   57.00
   0   8  -4  777.77   52.49
   0  -8   5   -2.05   21.02
   0   8  -5  -13.10   20.47
   0  -8   6  324.61   29.43
   0  -8   7   26.98   18.96
   0   8  -7   -1.90   18.87
   0  -8   8   -3.60   18.82
   0   8  -8   -8.35   19.30
   0  -8   9   19.49   20.22
   0   8  -9   18.22   21.10
   0  -8  10   41.52   21.84
   0   8 -10   40.96   22.73
  -1  -8   1   18.81   21.05
   1   8  -1   17.68   21.54
   1   8  -2   41.53   21.79
  -1  -8   3    9.57   22.74
   1   8  -3    4.85   22.05
  -1  -8   4  580.80   41.50
   1   8  -4  509.07   39.11
  -1  -8   5   -2.62   20.04
   1   8  -5   36.24   21.14
  -1  -8   6  436.13   34.81
   1   8  -6  505.45   38.16
  -1  -8   7   50.24   19.71
  -1  -8   8  476.37   37.24
   1   8  -8  555.63   41.32
  -1  -8   9   -5.14   19.49
   1   8  -9  -33.46   20.31
  -1  -8  10   32.22   21.87
   1   8 -10   30.37   23.10
  -2  -8   1   -8.94   19.86
   2   8  -1   -0.38   20.51
  -2  -8   2   62.78   21.57
   2   8  -2   65.66   22.36
   2   8  -3   49.04   22.27
  -2  -8   4  146.68   22.89
   2   8  -4  160.95   24.23
  -2  -8   5   28.03   19.86
   2   8  -5  -29.84   21.07
  -2  -8   6   10.96   19.59
   2   8  -6    0.15   19.98
  -2  -8   7   41.47   19.80
   2   8  -7   13.47   20.04
  -2  -8   8    2.68   19.70
  -2  -8   9   56.47   20.65
   2   8  -9   76.93   22.94
  -2  -8  10    1.01   22.54
   2   8 -10    1.52   22.06
  -3  -8   0   -2.29   19.21
   3   8   0   17.71   19.41
  -3  -8   1   21.13   20.24
   3   8  -1   65.99   20.63
  -3  -8   2    1.90   20.72
   3   8  -2   -1.52   21.29
  -3  -8   3   37.71   21.22
   3   8  -3   54.04   21.67
   3   8  -4  234.94   26.16
  -3  -8   5   40.45   19.32
   3   8  -5   60.72   20.90
  -3  -8   6   -4.43   19.80
   3   8  -6   12.39   19.88
  -3  -8   7   -2.44   19.03
   3   8  -7   -2.59   19.26
  -3  -8   8   -4.42   19.97
   3   8  -8   59.42   21.66
  -3  -8   9    2.47   20.87
  -3  -8  10   12.00   21.64
   3   8 -10   13.85   23.24
  -4  -8   0   16.41   18.69
   4   8   0   29.27   18.16
  -4  -8   1  261.32   25.89
   4   8  -1  216.26   24.19
  -4  -8   2   21.01   20.45
   4   8  -2   34.68   20.92
  -4  -8   3  638.37   44.14
   4   8  -3  521.27   37.89
  -4  -8   4    4.23   19.91
   4   8  -4   18.52   20.30
   4   8  -5  239.16   26.27
  -4  -8   6  -13.68   18.17
   4   8  -6   35.11   20.24
  -4  -8   7  776.41   51.75
   4   8  -7  824.48   54.78
  -4  -8   8   27.31   20.62
   4   8  -8   14.02   20.62
  -4  -8   9   35.75   21.01
   4   8  -9    4.05   20.06
  -4  -8  10  -15.79   22.45
   4   8 -10   -0.17   21.29
  -5  -8  -1   75.32   17.30
   5   8   1   64.79   17.32
  -5  -8   0   -3.35   17.27
   5   8   0  -11.83   18.26
  -5  -8   1   36.26   18.67
   5   8  -1   60.33   19.53
  -5  -8   2   22.29   18.69
   5   8  -2   47.37   19.73
  -5  -8   3   46.93   19.44
   5   8  -3   -8.82   20.22
  -5  -8   4   22.65   19.06
   5   8  -4   25.38   19.76
  -5  -8   5  161.10   22.33
   5   8  -5  206.46   24.04
   5   8  -6   21.91   19.80
  -5  -8   7  176.77   23.31
   5   8  -7  190.79   24.73
  -5  -8   8  -19.32   19.80
   5   8  -8   -8.50   20.54
  -5  -8   9   55.01   22.36
   5   8  -9   45.63   23.25
  -5  -8  10    9.22   21.40
  -6  -8  -1   -4.40   15.30
   6   8   1  -10.28   15.90
  -6  -8   0   50.21   16.82
   6   8   0   22.26   16.79
  -6  -8   1  -14.39   18.01
   6   8  -1  -18.10   17.77
  -6  -8   2    5.52   17.50
   6   8  -2    1.67   17.86
  -6  -8   3  102.91   20.24
   6   8  -3   87.09   19.41
  -6  -8   4  -18.84   18.72
   6   8  -4  -11.75   19.15
  -6  -8   5   42.32   19.18
   6   8  -5   24.65   19.50
  -6  -8   6   21.57   18.26
   6   8  -6   21.41   19.43
   6   8  -7  322.95   30.23
  -6  -8   8   43.30   20.59
   6   8  -8    3.42   20.89
  -6  -8   9  148.41   25.09
   6   8  -9  112.20   24.65
  -6  -8  10   17.65   23.07
   6   8 -10  -41.82   23.28
  -7  -8  -2   -6.60   12.09
   7   8   2   27.97   12.96
  -7  -8  -1  101.04   15.58
   7   8   1   92.30   15.21
  -7  -8   0   -8.56   15.33
   7   8   0   16.49   16.00
  -7  -8   1   69.28   17.59
   7   8  -1   93.48   18.01
  -7  -8   2   56.54   18.07
   7   8  -2   27.29   17.69
  -7  -8   3  134.88   20.66
   7   8  -3  165.92   21.73
  -7  -8   4  159.59   21.19
   7   8  -4   89.91   19.64
  -7  -8   5   20.16   17.95
   7   8  -5   74.61   19.55
  -7  -8   6    2.98   18.64
   7   8  -6  -15.76   19.05
  -7  -8   7  -26.54   17.42
   7   8  -7   37.03   20.74
  -7  -8   8  -17.87   19.03
   7   8  -8   54.78   22.03
  -7  -8   9   13.76   21.40
   7   8  -9   34.18   23.46
  -8  -8  -2    3.69   11.12
   8   8   2   -5.06   11.83
  -8  -8  -1  -15.67   12.78
   8   8   1   -0.02   12.76
  -8  -8   1   15.97   16.02
   8   8  -1   20.75   15.88
  -8  -8   2   27.85   16.67
   8   8  -2    7.55   17.45
  -8  -8   3   74.99   17.95
   8   8  -3   26.89   17.59
  -8  -8   4  125.53   19.73
   8   8  -4  122.40   20.28
  -8  -8   5  160.04   21.63
   8   8  -5  128.25   21.29
  -8  -8   6   74.07   19.09
   8   8  -6   91.76   21.35
  -8  -8   7   20.27   19.43
   8   8  -7   12.09   20.65
   8   8  -8   90.62   23.69
  -8  -8   9   18.70   21.90
   8   8  -9    1.87   22.11
  -9  -8  -3   20.89    8.74
   9   8   3    0.29    9.52
  -9  -8  -2   16.56    9.84
   9   8   2   32.78   11.21
  -9  -8  -1   -2.94   12.13
   9   8   1    9.77   12.37
  -9  -8   0    8.33   13.65
   9   8   0   11.03   14.42
  -9  -8   2    5.55   15.54
   9   8  -2    8.70   15.46
  -9  -8   3   -9.51   16.65
   9   8  -3   30.50   17.27
  -9  -8   4  983.47   61.43
   9   8  -4 1098.01   68.33
  -9  -8   5   17.59   18.20
   9   8  -5   24.44   19.43
  -9  -8   6   63.87   19.82
   9   8  -6   98.71   21.60
  -9  -8   7  -14.05   19.70
   9   8  -7   30.11   21.29
  -9  -8   8  101.21   22.89
   9   8  -8  151.00   25.78
   9   8  -9   -1.64   23.13
 -10  -8  -3   -3.03    7.82
  10   8   3  -12.24    8.56
 -10  -8  -2    9.87    9.77
  10   8   2    2.16   10.31
 -10  -8  -1    2.29   11.47
  10   8   1    8.94   12.40
 -10  -8   0    1.67   12.72
  10   8   0   -8.35   13.55
 -10  -8   1  -18.01   14.77
  10   8  -1    7.40   15.25
 -10  -8   2   23.55   16.08
  10   8  -2   17.44   16.06
 -10  -8   3   10.62   16.02
  10   8  -3    5.36   17.10
 -10  -8   4   32.49   17.71
  10   8  -4   64.79   18.93
 -10  -8   5    4.90   17.80
  10   8  -5   51.87   19.71
 -10  -8   6   74.91   20.24
  10   8  -6   64.70   21.76
 -10  -8   7    4.82   20.06
  10   8  -7  -20.44   21.72
 -10  -8   8  -28.20   21.73
  10   8  -8    1.07   22.35
 -11  -8  -4   -7.87    6.07
  11   8   4   13.41    6.95
 -11  -8  -2   64.33   10.79
  11   8   2   36.05   10.71
 -11  -8  -1   25.66   11.94
  11   8   1   -3.07   12.64
 -11  -8   0   19.49   12.93
  11   8   0   -5.17   13.95
 -11  -8   1   31.83   14.59
  11   8  -1   -1.36   15.60
 -11  -8   3    0.51   16.97
  11   8  -3  -28.53   17.03
 -11  -8   4    9.99   17.71
  11   8  -4    9.80   18.78
 -11  -8   5    5.88   17.75
  11   8  -5   -7.66   20.13
  11   8  -6   87.78   22.88
  11   8  -7    4.07   22.65
  11   8  -8   81.62   24.13
 -12  -8  -3  126.59   11.50
  12   8   3  115.65   11.53
 -12  -8  -2  162.00   14.38
  12   8   2  149.25   14.77
 -12  -8   0   62.86   14.56
  12   8   0   42.89   14.57
  12   8  -1  269.45   23.61
  12   8  -2  159.89   19.94
  13   8   4   77.45    8.91
  13   8   3  343.90   22.74
  11  -9   7   -8.86   20.36
  10  -9   7   26.16   21.10
 -10   9  -7  -12.45   21.75
  10  -9   8   14.69   20.69
 -10   9  -8   40.52   23.01
   9  -9   6   37.49   19.47
   9  -9   7  -30.71   21.10
  -9   9  -7    6.47   20.57
   9  -9   8  -15.02   21.04
  -9   9  -8    4.40   21.85
   8  -9   6   -2.02   19.02
  -8   9  -6    4.91   19.61
   8  -9   7   33.65   20.66
  -8   9  -7   18.19   20.51
   8  -9   8  -16.88   21.10
  -8   9  -8    4.55   21.31
   8  -9   9   17.29   21.79
  -8   9  -9   18.11   22.98
   7  -9   5   -9.74   18.34
   7  -9   6  -13.80   19.00
  -7   9  -6   -3.74   19.62
   7  -9   7   21.90   20.36
  -7   9  -7   -1.16   20.69
   7  -9   8    6.96   21.04
  -7   9  -8   20.90   21.16
   7  -9   9    8.82   21.73
  -7   9  -9    0.24   21.51
   6  -9   5  -23.63   18.99
  -6   9  -5   -2.82   18.99
   6  -9   6    7.34   19.20
  -6   9  -6   24.13   20.06
   6  -9   7  -17.24   19.59
  -6   9  -7   17.27   20.03
   6  -9   8  -43.09   19.71
  -6   9  -8  -12.95   21.19
   6  -9   9   32.05   20.93
  -6   9  -9  -28.30   21.97
   5  -9   4   67.95   20.51
   5  -9   5   13.11   19.27
  -5   9  -5  -14.42   20.22
   5  -9   6  -10.47   19.43
  -5   9  -6  -28.66   19.97
   5  -9   7  -36.03   19.58
  -5   9  -7   28.14   19.85
   5  -9   8    8.48   19.58
  -5   9  -8    1.51   21.29
   5  -9   9   31.98   21.43
  -5   9  -9   30.11   23.06
   5  -9  10    4.84   20.90
  -5   9 -10   37.57   23.03
   4  -9   4   28.27   20.16
  -4   9  -4    7.97   20.63
   4  -9   5   25.80   19.37
  -4   9  -5  -11.09   20.15
   4  -9   6   11.86   19.18
  -4   9  -6   27.23   19.98
   4  -9   7    6.42   19.14
  -4   9  -7   19.91   20.87
   4  -9   8    0.63   20.37
  -4   9  -8  -37.13   20.54
   4  -9   9  -25.35   20.65
  -4   9  -9  -18.51   21.88
   4  -9  10    7.79   21.40
  -4   9 -10   23.78   22.14
   3  -9   3   -0.05   20.81
   3  -9   4    5.23   19.61
   3  -9   5   11.75   19.44
  -3   9  -5  -35.35   20.53
   3  -9   6   -2.73   18.99
  -3   9  -6    4.48   20.01
   3  -9   7   24.01   18.61
  -3   9  -7  -10.10   19.50
   3  -9   8   -1.66   19.33
  -3   9  -8   16.58   19.79
   3  -9   9   23.33   21.61
  -3   9  -9  -23.09   21.54
   3  -9  10  -22.47   21.02
  -3   9 -10    2.09   22.85
   2  -9   3   -6.81   21.31
  -2   9  -3   20.44   22.33
   2  -9   4    8.88   21.69
  -2   9  -4   25.03   22.02
   2  -9   5   12.36   20.77
   2  -9   6  -16.38   18.10
  -2   9  -6  -17.26   20.45
   2  -9   7   20.45   18.75
  -2   9  -7   -9.31   19.18
   2  -9   8    8.80   20.07
  -2   9  -8  -22.85   19.94
   2  -9   9    2.74   20.56
  -2   9  -9    2.22   21.64
   2  -9  10   10.65   20.92
  -2   9 -10    3.90   23.34
   1  -9   2  -12.99   22.29
   1  -9   3   14.38   21.05
  -1   9  -3   20.33   23.21
   1  -9   4   -0.98   21.10
  -1   9  -4   -6.10   21.88
   1  -9   5   10.61   19.76
  -1   9  -5    1.27   19.77
   1  -9   6    4.51   18.55
  -1   9  -6    4.57   17.38
   1  -9   7    1.42   19.17
  -1   9  -7    2.50   18.67
   1  -9   8  -13.79   18.84
  -1   9  -8   31.92   20.10
   1  -9   9   35.08   20.86
  -1   9  -9   -8.03   21.73
   1  -9  10   41.17   21.96
  -1   9 -10    8.41   23.22
   0   9  -2    5.58   23.00
   0  -9   3   49.64   21.35
   0   9  -3   -2.29   23.25
   0  -9   4   26.01   20.56
   0   9  -4  -11.71   22.03
   0  -9   5   45.84   20.27
   0   9  -5    8.79   20.24
   0  -9   6   49.63   19.21
   0   9  -6   -0.18   17.26
   0  -9   7    7.04   19.08
   0   9  -7  -33.89   18.97
   0  -9   8   56.17   20.16
   0   9  -8   27.34   20.89
   0  -9   9  -12.92   20.19
   0   9  -9   10.23   21.67
   0  -9  10   27.43   21.41
   0   9 -10  -23.89   23.27
  -1  -9   1   43.49   20.83
   1   9  -1    8.89   20.93
  -1  -9   2  -26.63   21.13
   1   9  -2   -3.83   22.02
   1   9  -3   -1.60   22.21
  -1  -9   4   27.91   19.61
   1   9  -4   21.82   21.20
  -1  -9   5   30.97   19.88
   1   9  -5    4.22   19.80
  -1  -9   6   13.71   18.85
   1   9  -6    6.13   19.73
  -1  -9   7    7.40   18.43
  -1  -9   8  -13.19   19.32
   1   9  -8   -2.83   20.47
  -1  -9   9  -15.33   20.81
   1   9  -9    2.35   21.29
  -1  -9  10   -3.80   21.85
   1   9 -10   22.32   23.30
  -2  -9   1   53.77   21.51
   2   9  -1   22.64   21.29
  -2  -9   2   25.30   21.54
   2   9  -2   34.57   21.38
  -2  -9   3  -23.43   19.74
   2   9  -3    9.71   21.07
  -2  -9   4    0.48   17.24
   2   9  -4    9.87   20.24
  -2  -9   5   27.08   19.65
   2   9  -5  -36.03   19.03
  -2  -9   6  -14.35   18.17
   2   9  -6    8.91   19.03
  -2  -9   7    7.52   19.41
   2   9  -7   -4.23   19.30
  -2  -9   8    6.31   20.13
  -2  -9   9  -30.40   20.60
   2   9  -9  -18.48   22.45
  -2  -9  10   15.18   22.32
   2   9 -10   -0.26   22.08
  -3  -9   0  -10.05   18.91
   3   9   0    8.53   19.30
  -3  -9   1  -36.42   20.34
   3   9  -1    4.16   20.57
  -3  -9   2  -12.49   20.54
   3   9  -2    5.21   20.65
  -3  -9   3  -15.64   20.01
   3   9  -3   23.58   20.72
  -3  -9   4   13.22   16.56
   3   9  -4   -2.02   20.39
  -3  -9   5  -13.23   17.27
   3   9  -5   20.33   20.18
  -3  -9   6   23.60   18.43
   3   9  -6   41.29   19.55
  -3  -9   7   -5.27   18.39
   3   9  -7    4.36   19.64
  -3  -9   8   -7.99   20.01
   3   9  -8  -14.39   21.04
  -3  -9   9   23.31   21.11
  -3  -9  10   37.58   22.20
   3   9 -10   28.53   22.91
  -4  -9   0   68.93   19.64
   4   9   0   12.84   18.90
  -4  -9   1    9.22   18.54
   4   9  -1  -22.48   19.15
  -4  -9   2   25.60   18.97
   4   9  -2    2.56   19.83
  -4  -9   3  -19.30   19.68
   4   9  -3   22.05   20.03
  -4  -9   4   11.94   18.88
   4   9  -4  -15.94   19.14
   4   9  -5    6.13   19.35
  -4  -9   6    6.01   18.70
   4   9  -6   12.03   20.22
  -4  -9   7  -12.37   18.36
   4   9  -7   -6.28   20.33
  -4  -9   8   -1.78   21.10
   4   9  -8  -11.09   20.89
  -4  -9   9  -12.85   21.72
   4   9  -9   -7.10   21.88
  -4  -9  10   15.61   22.06
  -5  -9  -1    8.09   16.50
   5   9   1   23.15   16.67
  -5  -9   0  -25.35   17.44
   5   9   0   -7.50   17.50
  -5  -9   1   15.90   18.54
   5   9  -1    5.11   18.19
  -5  -9   2  -27.01   17.75
   5   9  -2  -11.91   18.66
  -5  -9   3    9.31   18.72
   5   9  -3    3.60   18.82
  -5  -9   4   30.05   18.73
   5   9  -4   58.53   19.56
  -5  -9   5  -43.19   18.04
   5   9  -5  -17.44   18.97
   5   9  -6    2.56   19.33
  -5  -9   7   -5.88   19.65
   5   9  -7   18.37   20.34
  -5  -9   8   33.03   21.29
   5   9  -8   -4.61   21.78
  -5  -9   9   27.55   21.75
   5   9  -9   -3.75   22.74
  -5  -9  10   42.96   23.30
   5   9 -10   53.69   24.99
  -6  -9  -1   33.65   15.54
   6   9   1   19.03   16.29
  -6  -9   0    3.66   16.62
   6   9   0  -25.12   16.68
  -6  -9   1    1.84   16.83
   6   9  -1  -20.75   17.29
  -6  -9   2  -23.16   17.63
   6   9  -2  -10.85   17.89
  -6  -9   3  -20.96   17.36
   6   9  -3   -8.15   17.86
  -6  -9   4   -6.31   17.84
   6   9  -4   14.33   18.42
  -6  -9   5  -15.85   18.16
   6   9  -5   -1.81   18.94
  -6  -9   6  -23.89   18.31
   6   9  -6   -6.86   19.24
   6   9  -7    4.25   21.02
  -6  -9   8  -16.03   21.26
   6   9  -8  -13.19   21.76
  -6  -9   9   54.13   22.42
   6   9  -9   10.25   23.27
  -7  -9  -2   10.01   12.95
   7   9   2   34.54   13.02
  -7  -9  -1   19.47   14.15
   7   9   1   -9.66   14.68
  -7  -9   0   -3.48   14.93
   7   9   0    3.92   15.42
  -7  -9   1   -3.29   16.03
   7   9  -1   15.91   16.14
  -7  -9   2   38.46   16.35
   7   9  -2   -2.09   16.23
  -7  -9   3   36.98   16.97
   7   9  -3   -6.92   18.16
  -7  -9   4   -6.68   17.48
   7   9  -4   -8.80   18.60
  -7  -9   5    9.03   18.40
   7   9  -5   -4.60   18.48
  -7  -9   6  -26.13   18.23
   7   9  -6  -17.98   19.47
  -7  -9   7  -35.49   19.32
   7   9  -7  -23.36   20.36
   7   9  -8    1.78   22.47
  -7  -9   9   21.37   21.79
   7   9  -9   -3.32   22.44
  -8  -9  -2    5.11   11.77
   8   9   2   26.43   12.64
  -8  -9  -1    8.44   12.79
   8   9   1   17.06   13.61
  -8  -9   0   16.64   14.21
   8   9   0    7.96   14.92
  -8  -9   1   15.63   15.13
   8   9  -1   33.58   15.90
  -8  -9   2   14.99   16.35
   8   9  -2   -8.21   16.03
  -8  -9   3   52.90   17.45
   8   9  -3   47.12   17.63
  -8  -9   4  -14.11   16.70
   8   9  -4   13.70   18.54
  -8  -9   5    7.94   18.42
   8   9  -5   10.31   19.27
  -8  -9   6   -4.90   18.36
   8   9  -6  -12.64   19.21
  -8  -9   7   14.90   20.22
   8   9  -7   16.89   21.07
  -8  -9   8   42.62   22.45
   8   9  -8    7.26   23.13
   8   9  -9   30.58   23.99
  -9  -9  -3   -5.80    9.69
   9   9   3    9.21   10.53
  -9  -9  -2    4.60   11.14
   9   9   2  -18.97   11.77
  -9  -9  -1   18.60   12.34
   9   9   1    1.97   12.75
  -9  -9   0   14.69   13.02
   9   9   0   -6.99   13.97
  -9  -9   1   31.03   14.84
   9   9  -1   29.81   15.45
  -9  -9   2   -0.71   15.64
   9   9  -2   28.38   16.25
  -9  -9   3  -14.84   16.23
   9   9  -3   -5.68   17.15
  -9  -9   4   -6.59   17.19
   9   9  -4    2.09   18.08
  -9  -9   5   27.62   17.98
   9   9  -5  -15.13   19.59
  -9  -9   6   18.48   18.90
   9   9  -6  -32.02   19.95
  -9  -9   7   26.78   20.30
   9   9  -7   50.20   22.44
  -9  -9   8   -0.11   21.32
   9   9  -8    3.36   23.00
 -10  -9  -3   -1.22    8.94
  10   9   3   -3.75   10.13
 -10  -9  -2   -2.23   10.58
  10   9   2   -9.66   11.05
 -10  -9  -1   13.82   12.13
  10   9   1   -0.20   12.60
 -10  -9   0    7.57   13.29
  10   9   0    3.92   14.21
 -10  -9   1   -1.09   14.30
  10   9  -1   -6.54   15.39
 -10  -9   2   10.73   15.48
  10   9  -2   16.49   15.99
 -10  -9   3   28.24   16.85
  10   9  -3   18.81   17.23
 -10  -9   4  -29.04   17.65
  10   9  -4  -12.00   18.51
 -10  -9   6  -33.27   18.87
  10   9  -6   22.61   21.08
 -10  -9   7   35.22   20.95
  10   9  -7  -32.96   22.29
 -10  -9   8    6.37   20.74
  10   9  -8   26.22   22.48
 -11  -9  -4  -15.43    7.96
  11   9   4    1.28    8.59
 -11  -9  -3   11.68    8.56
  11   9   3    7.54    9.52
 -11  -9  -2   11.17   10.23
  11   9   2  -13.68   11.33
 -11  -9  -1   20.15   12.43
  11   9   1    5.29   13.04
 -11  -9   0   17.15   13.44
  11   9   0    4.36   14.44
 -11  -9   1   12.36   14.32
  11   9  -1   19.59   15.60
 -11  -9   2    2.91   15.78
  11   9  -2   -8.00   15.91
 -11  -9   3    6.28   16.73
  11   9  -3   45.35   17.84
 -11  -9   4   22.23   18.20
  11   9  -4   12.48   18.64
 -11  -9   5   -0.23   18.19
  11   9  -5  -54.13   20.06
 -11  -9   6   18.96   19.98
  11   9  -6   -0.15   21.22
 -11  -9   7  -10.90   19.67
  11   9  -7   13.01   22.44
 -12  -9  -4    8.68    7.70
  12   9   4   10.38    8.42
 -12  -9  -3   12.58    9.16
  12   9   3  -17.24    9.67
 -12  -9  -2   -3.53   10.71
  12   9   2  -10.43   11.68
 -12  -9  -1   18.73   12.55
  12   9   1   -7.31   13.16
 -12  -9   0    5.12   13.43
  12   9   0   11.20   14.63
 -12  -9   1    8.47   14.78
  12   9  -1    3.30   15.57
 -12  -9   2   18.45   15.79
  12   9  -2    9.54   16.35
 -12  -9   3   -0.29   17.03
  12   9  -3   18.67   18.39
 -12  -9   4   16.94   18.43
  12   9  -4  -12.04   19.11
 -12  -9   5    4.04   19.05
  12   9  -5   13.71   19.85
 -12  -9   6    0.09   20.09
  12   9  -6   17.26   21.60
 -12  -9   7    5.65   21.43
  12   9  -7   13.92   25.12
 -13  -9  -5   14.41    5.85
  13   9   5    9.30    6.50
 -13  -9  -4    6.33    7.85
  13   9   4   31.87    8.88
 -13  -9  -3    2.92    9.77
  13   9   3   -1.73   10.34
 -13  -9  -2    0.44   11.39
  13   9   2  -15.73   12.73
 -13  -9  -1   -8.05   12.79
  13   9   1   11.69   13.56
 -13  -9   0  -21.61   13.83
  13   9   0   -9.00   14.81
 -13  -9   1    9.21   15.61
  13   9  -1   12.39   16.09
 -13  -9   2  -17.99   16.16
  13   9  -2   21.08   17.33
  13   9  -3   -5.85   18.63
  13   9  -4   32.57   20.87
  13   9  -5    6.01   20.77
  13   9  -6   -4.13   20.24
 -14  -9  -5    9.55    5.62
  14   9   5   11.14    6.13
 -14  -9  -4   12.96    7.82
  14   9   4   14.62    9.06
  14   9   3   34.45   11.53
  14   9   2   19.09   13.04
  14   9   1   -2.00   14.50
  14   9   0    9.75   15.13
  10 -10   7  -22.06   21.84
 -10  10  -7   14.51   20.62
   9 -10   7   19.33   21.58
  -9  10  -7   -5.73   21.41
   9 -10   8   89.52   23.75
  -9  10  -8   68.03   23.48
   8 -10   6  299.89   29.24
  -8  10  -6  250.46   27.89
   8 -10   7   -9.06   20.77
  -8  10  -7   -3.09   21.58
   8 -10   8   29.97   22.05
  -8  10  -8   51.25   23.03
   7 -10   6   48.78   20.30
  -7  10  -6    3.95   20.42
   7 -10   7   55.74   20.75
  -7  10  -7   26.49   21.49
   7 -10   8   25.21   21.70
  -7  10  -8   58.08   23.54
   7 -10   9   21.52   21.73
  -7  10  -9    5.02   24.04
   6 -10   5   -2.09   19.50
  -6  10  -5   26.95   19.92
   6 -10   6   33.41   19.79
  -6  10  -6    6.81   20.10
   6 -10   7   10.96   20.42
  -6  10  -7  -10.17   21.67
   6 -10   8   15.07   21.82
  -6  10  -8   11.12   22.91
   6 -10   9   35.87   21.78
  -6  10  -9   72.26   24.10
   5 -10   5   13.05   19.58
  -5  10  -5  -33.29   20.13
   5 -10   6   28.68   19.44
  -5  10  -6    5.76   20.75
   5 -10   7   43.73   20.90
  -5  10  -7   27.50   21.23
   5 -10   8   27.19   20.96
  -5  10  -8  -19.64   21.54
   5 -10   9  221.23   27.19
  -5  10  -9  240.37   28.80
   4 -10   4  -29.91   19.77
  -4  10  -4   -8.23   20.63
   4 -10   5   87.45   20.78
  -4  10  -5   78.39   21.88
   4 -10   6    2.05   19.30
  -4  10  -6   14.02   20.25
   4 -10   7   28.41   19.73
  -4  10  -7   19.02   20.37
   4 -10   8   -3.12   20.84
  -4  10  -8  -36.21   21.82
   4 -10   9  143.41   24.11
  -4  10  -9   97.37   24.53
   3 -10   4   58.26   20.90
   3 -10   5  115.18   22.12
  -3  10  -5  141.42   23.63
   3 -10   6  -18.05   18.85
  -3  10  -6   -6.36   19.76
   3 -10   7   53.82   20.39
  -3  10  -7   78.48   21.81
   3 -10   8   13.55   20.30
  -3  10  -8  -49.02   20.95
   3 -10   9    7.08   20.86
  -3  10  -9   20.90   22.26
   2 -10   3   13.91   20.44
  -2  10  -3   12.55   21.54
   2 -10   4   32.91   20.81
  -2  10  -4   50.56   21.61
   2 -10   5   10.50   19.43
   2 -10   6   30.00   19.55
  -2  10  -6   13.82   20.24
   2 -10   7   41.25   19.83
  -2  10  -7   18.07   20.66
   2 -10   8   23.55   20.48
  -2  10  -8    7.67   21.28
   2 -10   9   28.21   21.25
  -2  10  -9   48.59   22.73
   2 -10  10    7.61   22.51
  -2  10 -10   -2.00   23.13
   1 -10   3   37.60   20.34
  -1  10  -3   21.34   22.14
   1 -10   4   -1.18   20.36
  -1  10  -4   -7.32   21.57
   1 -10   5   12.45   20.33
  -1  10  -5   49.41   20.92
   1 -10   6   33.61   19.56
   1 -10   7   -0.63   19.32
  -1  10  -7   13.68   20.18
   1 -10   8  164.57   23.74
  -1  10  -8  186.12   25.47
   1 -10   9   41.08   21.79
  -1  10  -9    5.44   22.83
   1 -10  10   59.78   22.95
  -1  10 -10   51.98   23.40
   0  10  -2  548.55   40.79
   0 -10   3   -9.04   19.71
   0  10  -3  -12.01   20.86
   0 -10   4  159.44   23.52
   0  10  -4  157.33   24.11
   0 -10   5   10.68   19.82
   0  10  -5  -17.07   19.59
   0 -10   6  153.26   22.44
   0  10  -6  133.58   22.06
   0 -10   7  -13.76   19.89
   0 -10   8   92.83   21.61
   0  10  -8   71.04   22.20
   0 -10   9    5.44   21.25
   0  10  -9   33.49   22.29
   0 -10  10   33.14   22.35
   0  10 -10   50.53   24.38
  -1 -10   2  -70.72   21.17
   1  10  -2    3.45   21.35
   1  10  -3    2.53   21.63
  -1 -10   4  -12.16   18.69
   1  10  -4   22.92   20.45
  -1 -10   5   27.96   18.69
   1  10  -5   30.92   19.70
  -1 -10   6   69.44   19.76
   1  10  -6   41.26   19.73
  -1 -10   7  -13.92   19.09
   1  10  -7   13.46   20.65
  -1 -10   8  209.47   25.89
  -1 -10   9    2.49   20.57
   1  10  -9   12.85   22.71
  -1 -10  10   47.38   23.36
   1  10 -10   52.70   23.55
  -2 -10   1  -10.55   19.77
   2  10  -1   11.75   20.53
  -2 -10   2   85.97   21.94
   2  10  -2   41.64   21.05
  -2 -10   3   23.18   20.10
   2  10  -3   24.31   20.84
   2  10  -4   13.35   20.30
  -2 -10   5   36.82   18.51
   2  10  -5   64.00   20.48
  -2 -10   6  -13.74   18.20
   2  10  -6    4.73   18.91
  -2 -10   7   -6.30   19.12
   2  10  -7   28.21   20.27
  -2 -10   8  -20.93   20.48
   2  10  -8    2.77   22.18
  -2 -10   9   51.66   21.88
  -2 -10  10   22.21   21.99
   2  10 -10   59.75   23.80
  -3 -10   1    2.19   18.61
   3  10  -1    8.91   19.71
  -3 -10   2   14.32   19.09
   3  10  -2  -33.67   20.34
  -3 -10   3  421.36   33.09
   3  10  -3  426.03   33.76
  -3 -10   4   62.50   18.85
   3  10  -4   81.89   19.79
   3  10  -5   90.66   21.19
  -3 -10   6   23.64   18.58
   3  10  -6  -10.67   20.19
  -3 -10   7   10.35   19.43
   3  10  -7   30.70   19.53
  -3 -10   8  -27.77   20.75
   3  10  -8   15.36   21.82
  -3 -10   9   17.44   21.14
   3  10  -9   18.78   22.32
  -4 -10   0   13.11   18.14
   4  10   0   22.76   18.61
  -4 -10   1   -8.08   18.82
   4  10  -1   41.44   19.35
  -4 -10   2   -0.50   18.61
   4  10  -2  -23.28   18.64
  -4 -10   3    7.08   18.28
   4  10  -3   -1.90   18.96
  -4 -10   4   31.29   18.25
   4  10  -4   -9.90   18.33
  -4 -10   5   86.23   19.92
   4  10  -5   84.32   20.45
   4  10  -6   31.09   20.00
  -4 -10   7   13.38   19.59
   4  10  -7   21.88   20.39
  -4 -10   8   -6.50   20.65
   4  10  -8   -8.05   21.05
  -4 -10   9   81.02   24.32
   4  10  -9   96.84   24.38
  -5 -10  -1  231.18   21.85
  -5 -10   0  -22.23   16.88
   5  10   0   -8.41   17.10
  -5 -10   1  298.24   26.33
   5  10  -1  309.99   26.89
  -5 -10   2  -13.35   17.21
   5  10  -2  -19.56   17.99
  -5 -10   3   72.56   18.70
   5  10  -3  138.31   20.81
  -5 -10   4    0.06   17.51
   5  10  -4   24.59   18.88
  -5 -10   5  -11.74   17.84
   5  10  -5   29.13   19.20
  -5 -10   6   11.83   19.46
   5  10  -6   -3.22   19.94
   5  10  -7   42.41   21.52
  -5 -10   8  -24.01   20.54
   5  10  -8  -16.58   22.12
  -5 -10   9  248.81   28.66
   5  10  -9  193.65   27.58
  -6 -10  -1  -12.25   14.78
   6  10   1   -9.21   15.91
  -6 -10   0   57.94   16.80
   6  10   0   63.72   17.21
  -6 -10   1   -4.49   16.44
   6  10  -1  -13.70   17.19
  -6 -10   2    7.87   16.97
   6  10  -2   12.33   16.46
  -6 -10   3    2.47   16.89
   6  10  -3   -5.47   17.62
  -6 -10   4    3.26   17.53
   6  10  -4    4.67   18.57
  -6 -10   5   12.92   17.56
   6  10  -5  -31.74   18.78
  -6 -10   6   22.97   18.58
   6  10  -6    3.59   19.43
  -6 -10   7   20.31   19.71
   6  10  -7   20.21   21.31
  -6 -10   8   -4.43   18.66
   6  10  -8   -5.47   23.27
  -6 -10   9   66.04   22.64
   6  10  -9   54.39   23.61
  -7 -10  -2   15.90   12.88
  -7 -10  -1   18.19   13.70
   7  10   1   21.38   14.77
  -7 -10   1    5.85   15.45
   7  10  -1  -19.11   15.24
  -7 -10   2    9.66   16.06
   7  10  -2    9.22   16.77
  -7 -10   3   22.56   16.41
   7  10  -3   65.24   18.16
  -7 -10   4   31.23   17.50
   7  10  -4   10.81   18.73
  -7 -10   5   17.45   18.93
   7  10  -5   41.34   19.33
  -7 -10   6   29.02   18.84
   7  10  -6   22.02   20.15
  -7 -10   7   46.79   21.16
   7  10  -7   19.47   21.55
  -7 -10   8   17.44   18.67
   7  10  -8    1.45   22.77
  -7 -10   9  -17.50   22.44
   7  10  -9    9.90   23.52
  -8 -10  -2   22.27   12.40
   8  10   2   53.41   13.55
  -8 -10  -1   21.61   13.35
   8  10   1   17.93   13.99
  -8 -10   0   -7.70   14.45
   8  10   0    5.02   14.86
  -8 -10   1   25.74   15.34
   8  10  -1   10.79   15.63
  -8 -10   2   54.99   16.56
   8  10  -2   15.57   16.25
  -8 -10   3   -8.17   16.50
   8  10  -3   -1.42   16.89
  -8 -10   4  269.60   25.66
   8  10  -4  353.39   29.93
  -8 -10   6  313.76   28.95
   8  10  -6  364.85   32.13
  -8 -10   7    0.71   21.02
   8  10  -7    2.46   22.38
  -8 -10   8   94.10   23.27
   8  10  -8   59.07   23.72
  -9 -10  -3   -5.15   10.74
  -9 -10  -2   20.87   11.83
   9  10   2   17.15   13.11
  -9 -10  -1   -2.55   12.40
   9  10   1   10.29   13.41
  -9 -10   0  -17.32   13.55
   9  10   0   -6.59   14.84
  -9 -10   1   18.90   14.23
   9  10  -1   20.40   15.33
  -9 -10   2    0.03   16.16
   9  10  -2   43.51   16.73
  -9 -10   3   -0.62   17.13
   9  10  -3   -0.57   17.07
  -9 -10   4   58.41   18.40
   9  10  -4   29.48   18.99
  -9 -10   5    3.44   17.81
   9  10  -5  -14.74   19.58
  -9 -10   6    9.34   19.56
   9  10  -6   -1.51   20.12
  -9 -10   7  -15.13   20.33
   9  10  -7    6.00   21.72
  -9 -10   8  118.93   24.04
   9  10  -8   92.53   23.74
 -10 -10  -3    7.11   10.31
  10  10   3   -0.80   11.51
 -10 -10  -2   -1.39   11.51
  10  10   2   -9.33   12.34
 -10 -10  -1    5.85   12.30
  10  10   1    8.80   13.05
 -10 -10   0  363.49   26.45
  10  10   0  426.94   30.02
 -10 -10   1   -6.92   14.05
  10  10  -1   14.99   15.76
 -10 -10   2   15.93   15.97
  10  10  -2  -17.60   15.91
 -10 -10   3   21.70   17.48
  10  10  -3   34.40   17.86
 -10 -10   4   -2.38   17.62
  10  10  -4   -1.61   18.78
 -10 -10   5   -3.01   18.94
  10  10  -5   -0.65   19.73
 -10 -10   6   50.14   20.69
  10  10  -6   13.71   22.00
 -10 -10   7  -18.45   20.45
  10  10  -7   15.99   22.79
 -11 -10  -4   18.72    9.52
 -11 -10  -3   12.19   10.19
  11  10   3   14.68   11.48
 -11 -10  -2    6.25   11.51
  11  10   2   10.73   12.33
 -11 -10  -1   20.13   12.67
  11  10   1   38.10   13.53
 -11 -10   0    6.51   13.52
  11  10   0  -18.55   14.47
 -11 -10   1   20.53   15.37
  11  10  -1   27.53   15.79
 -11 -10   2   30.68   16.25
  11  10  -2   22.23   16.70
 -11 -10   3   -8.71   16.77
  11  10  -3  -12.78   18.37
 -11 -10   4   18.99   18.52
  11  10  -4    2.58   18.66
 -11 -10   5  -18.34   19.20
  11  10  -5   28.65   20.19
 -11 -10   6  102.45   21.90
  11  10  -6  121.37   24.07
 -11 -10   7    6.90   20.03
  11  10  -7   33.89   23.15
 -12 -10  -4   58.02   10.01
  12  10   4   64.20   11.05
 -12 -10  -3   14.56   10.31
  12  10   3    7.96   11.23
 -12 -10  -2   76.22   12.95
  12  10   2   97.79   14.41
 -12 -10  -1   15.27   13.11
  12  10   1   19.76   14.02
 -12 -10   0    5.05   13.97
  12  10   0   -7.04   15.02
 -12 -10   1   16.26   15.66
  12  10  -1   17.80   15.93
 -12 -10   2  120.14   19.12
  12  10  -2  134.80   19.74
 -12 -10   3   28.47   17.99
  12  10  -3   18.01   18.64
 -12 -10   4   75.85   19.95
  12  10  -4   57.60   20.81
 -12 -10   5   97.71   20.75
  12  10  -5  132.35   23.31
 -12 -10   6   66.02   20.81
  12  10  -6   70.75   21.97
 -13 -10  -5   72.03    8.68
 -13 -10  -4   49.40    9.45
  13  10   4   81.14   11.33
 -13 -10  -2    1.45   12.18
  13  10   2    8.14   13.55
 -13 -10  -1    7.20   13.85
  13  10   1   15.42   14.48
 -13 -10   0    6.13   14.50
  13  10   0   -0.75   15.60
 -13 -10   1   44.31   16.44
  13  10  -1   -0.35   16.62
 -13 -10   2    6.66   16.76
  13  10  -2    6.86   18.14
 -13 -10   3  574.62   40.48
  13  10  -3  514.64   37.96
 -13 -10   4   42.05   19.20
  13  10  -4   34.39   20.21
 -13 -10   5  108.29   21.49
  13  10  -5   96.18   22.20
 -14 -10  -4    1.39    8.50
  14  10   4   -4.52    9.61
 -14 -10  -2    5.83   12.22
  14  10   2  -16.00   13.07
 -14 -10  -1   31.48   14.00
  14  10   1    2.22   14.35
 -14 -10   0    2.74   14.99
  14  10   0   12.92   16.09
 -14 -10   1   20.13   16.17
  14  10  -1    0.92   17.26
 -14 -10   2    3.87   17.48
  14  10  -2   54.66   18.79
 -14 -10   3   91.78   19.70
  14  10  -3   58.55   19.23
 -14 -10   4    1.72   19.12
  14  10  -4    5.21   19.50
 -15 -10  -2    5.50   12.40
  15  10   2    5.08   12.96
 -15 -10  -1   27.04   13.49
  15  10   1   17.13   14.33
  15  10   0   30.92   16.56
  15  10  -1   49.22   17.54
  15  10  -2   24.68   18.76
  10 -11   7   -9.83   22.15
   9 -11   7   20.03   21.47
  -9  11  -7    2.83   22.36
   8 -11   6  -11.98   21.04
   8 -11   7   29.21   22.71
  -8  11  -7  -25.97   23.64
   8 -11   8   -8.15   22.47
  -8  11  -8  -18.75   23.66
   7 -11   6  -32.37   21.01
  -7  11  -6  -22.79   21.35
   7 -11   7   16.17   22.71
  -7  11  -7   -0.75   22.77
   7 -11   8  -13.11   22.20
  -7  11  -8   16.64   23.24
   6 -11   5  -12.10   19.20
  -6  11  -5    3.33   20.51
   6 -11   6  -17.71   20.40
  -6  11  -6  -15.85   20.63
   6 -11   7   41.74   22.65
  -6  11  -7    7.94   22.32
   6 -11   8   47.27   22.27
  -6  11  -8   18.93   24.01
   5 -11   5    6.57   19.61
  -5  11  -5   -3.00   20.09
   5 -11   6   44.97   20.72
  -5  11  -6   24.04   20.75
   5 -11   7  -11.05   20.74
  -5  11  -7    8.71   22.00
   5 -11   8   18.01   22.53
  -5  11  -8  -18.01   23.09
   5 -11   9    7.01   21.76
  -5  11  -9  -15.72   23.69
   4 -11   4   20.89   19.83
  -4  11  -4   -3.51   17.12
   4 -11   5  -26.75   19.12
  -4  11  -5   -2.61   20.24
   4 -11   6  -54.64   19.37
  -4  11  -6    2.08   20.69
   4 -11   7    1.13   20.99
  -4  11  -7  -44.88   21.87
   4 -11   8   18.01   22.45
  -4  11  -8   49.38   24.19
   4 -11   9   28.32   21.57
  -4  11  -9    6.37   23.33
   3 -11   4   23.39   20.22
  -3  11  -4   -5.23   18.75
   3 -11   5  -11.09   19.70
  -3  11  -5    3.72   17.66
   3 -11   6    0.06   20.22
  -3  11  -6   19.15   20.86
   3 -11   7   -4.81   19.80
  -3  11  -7   54.87   21.75
   3 -11   8  -13.01   21.20
  -3  11  -8   21.17   23.28
   3 -11   9    6.89   21.70
  -3  11  -9    1.46   23.43
   2 -11   3    5.33   20.39
  -2  11  -3   46.51   21.78
   2 -11   4  -34.96   19.82
  -2  11  -4  -18.23   20.56
   2 -11   5  -16.55   19.18
  -2  11  -5   -0.54   18.22
   2 -11   6  -17.66   19.29
  -2  11  -6   16.73   18.91
   2 -11   7  -16.23   19.77
  -2  11  -7   -0.63   21.20
   2 -11   8   17.75   20.68
  -2  11  -8   28.44   22.36
   2 -11   9   25.72   21.41
  -2  11  -9    3.78   22.98
   1 -11   3    7.58   19.88
  -1  11  -3    7.94   20.34
   1 -11   4   -4.28   19.59
  -1  11  -4    5.23   20.13
   1 -11   5   10.31   20.44
  -1  11  -5   -1.21   20.25
   1 -11   6  -16.20   19.43
  -1  11  -6   -5.53   17.68
   1 -11   7   33.34   19.92
  -1  11  -7   27.20   21.73
   1 -11   8  -24.79   20.44
  -1  11  -8   -1.60   21.17
   1 -11   9   31.13   22.48
  -1  11  -9   37.30   23.74
   0 -11   2   -9.45   17.80
   0  11  -2   15.52   21.01
   0  11  -3   43.42   21.47
   0 -11   4  -10.43   18.93
   0  11  -4   12.31   20.21
   0 -11   5   39.53   19.35
   0  11  -5   -2.28   19.82
   0 -11   6   17.74   19.76
   0  11  -6   14.98   20.69
   0 -11   7    9.61   19.40
   0 -11   8  -33.46   20.40
   0  11  -8   11.24   22.33
   0 -11   9  -14.86   21.37
   0  11  -9  -36.54   22.89
  -1 -11   2    8.17   19.62
   1  11  -2    2.20   20.00
  -1 -11   3    1.79   17.04
   1  11  -3    9.42   20.33
  -1 -11   4   19.59   15.93
   1  11  -4  -27.37   19.95
  -1 -11   5   14.05   18.67
   1  11  -5  -11.35   20.37
  -1 -11   6   -3.12   18.43
   1  11  -6   -6.50   19.74
  -1 -11   7   39.17   20.45
   1  11  -7   23.51   21.23
  -1 -11   8  -40.93   20.25
  -1 -11   9  -21.94   21.72
   1  11  -9   -0.80   22.64
  -2 -11   1   -0.65   19.11
   2  11  -1   12.18   19.92
  -2 -11   2   -0.17   19.29
   2  11  -2  -28.62   19.47
  -2 -11   3   -1.93   18.99
   2  11  -3  -18.66   20.13
  -2 -11   4   31.01   15.73
   2  11  -4   32.07   20.22
  -2 -11   5   17.53   17.53
   2  11  -5  -25.39   19.49
  -2 -11   6  -32.13   18.28
   2  11  -6   15.46   19.74
  -2 -11   7    0.45   20.09
   2  11  -7   24.68   20.45
  -2 -11   8  -28.17   21.34
   2  11  -8   45.17   22.70
  -2 -11   9   22.44   21.76
  -3 -11   1  -29.79   18.45
   3  11  -1    9.43   18.90
  -3 -11   2   16.59   18.52
   3  11  -2    7.93   19.44
  -3 -11   3   -6.00   18.22
   3  11  -3   -5.33   19.35
  -3 -11   4   -0.09   18.13
   3  11  -4   34.77   19.29
  -3 -11   5   12.63   13.58
   3  11  -5    7.01   19.52
  -3 -11   6   70.63   19.47
   3  11  -6   -0.47   19.76
  -3 -11   7   39.85   20.77
   3  11  -7  -24.05   20.30
  -3 -11   8    6.30   21.85
   3  11  -8   31.62   22.91
  -3 -11   9   -1.79   21.90
   3  11  -9  -26.76   23.95
  -4 -11   0   35.99   17.03
   4  11   0   31.59   17.80
  -4 -11   1    7.34   17.83
   4  11  -1  -24.31   18.33
  -4 -11   2    9.30   17.06
   4  11  -2   -5.35   18.85
  -4 -11   3   19.74   18.20
   4  11  -3   -6.59   18.04
  -4 -11   4   -1.07   17.93
   4  11  -4   -3.54   18.54
  -4 -11   5    5.21   17.80
   4  11  -5  -17.59   19.18
   4  11  -6    5.38   20.21
  -4 -11   7    2.16   19.89
   4  11  -7   -8.08   20.69
  -4 -11   8   -1.19   21.82
   4  11  -8    3.54   22.30
  -4 -11   9   14.30   22.23
   4  11  -9   22.82   23.30
  -5 -11   0    0.26   16.52
   5  11   0   14.17   17.18
  -5 -11   1   -1.40   16.67
   5  11  -1   -9.86   17.00
  -5 -11   2   32.94   16.64
   5  11  -2   35.41   18.39
  -5 -11   3  -23.99   17.03
   5  11  -3   -2.38   17.98
  -5 -11   4    8.83   17.65
   5  11  -4   44.03   18.72
  -5 -11   5    8.89   18.19
   5  11  -5    4.46   19.23
  -5 -11   6   24.05   18.73
   5  11  -6  -10.26   20.18
   5  11  -7  -21.38   21.11
  -5 -11   8   10.71   21.46
   5  11  -8   12.13   22.41
  -5 -11   9   17.78   22.67
   5  11  -9  -55.11   22.33
  -6 -11  -1   10.43   15.18
   6  11   1    0.87   15.88
  -6 -11   0  -16.06   15.88
   6  11   0    7.32   16.17
  -6 -11   1  -12.93   16.05
   6  11  -1   27.53   17.24
  -6 -11   2   -8.70   16.14
   6  11  -2   -0.45   17.00
  -6 -11   3  -37.31   16.41
   6  11  -3   -1.72   17.65
  -6 -11   4    5.03   17.78
   6  11  -4   30.77   18.72
  -6 -11   5   12.30   18.22
   6  11  -5   -2.85   19.41
  -6 -11   6   -7.35   19.29
   6  11  -6   -1.25   20.57
  -6 -11   7   26.34   21.14
   6  11  -7   11.85   22.23
   6  11  -8   33.21   23.19
  -7 -11  -1  -29.06   14.33
   7  11   1    9.24   15.37
  -7 -11   0  -20.53   14.62
   7  11   0  -15.19   15.61
  -7 -11   1  -15.01   15.52
   7  11  -1   19.33   16.34
  -7 -11   2   11.86   15.96
   7  11  -2   -7.63   17.07
  -7 -11   3  -14.05   16.91
   7  11  -3   16.29   18.20
  -7 -11   4   -9.96   17.51
   7  11  -4  -11.83   18.52
  -7 -11   5   16.82   18.55
   7  11  -5  -17.65   19.17
  -7 -11   6  -23.75   19.24
   7  11  -6   27.50   20.22
  -7 -11   7   16.40   20.48
   7  11  -7   15.30   21.40
  -7 -11   8   21.34   22.12
   7  11  -8  -10.17   22.27
  -8 -11  -2  -11.60   12.63
   8  11   2   -8.03   14.06
  -8 -11  -1   -9.25   14.09
   8  11   1  -15.99   14.77
  -8 -11   0    3.78   13.92
   8  11   0    5.38   15.34
  -8 -11   1    6.99   15.10
   8  11  -1   44.52   16.08
  -8 -11   2    5.88   16.11
   8  11  -2    9.04   16.53
  -8 -11   3   -2.95   17.09
   8  11  -3  -31.81   17.42
  -8 -11   4    4.08   17.62
   8  11  -4  -16.28   18.58
  -8 -11   5   -4.51   18.73
   8  11  -5   14.78   20.09
  -8 -11   6   26.37   20.15
   8  11  -6    9.90   21.02
  -8 -11   7  -26.21   20.75
   8  11  -7    9.72   22.80
  -8 -11   8   -8.51   22.03
   8  11  -8   13.95   23.52
  -9 -11  -2   -0.20   12.55
   9  11   2   15.33   13.31
  -9 -11  -1   10.07   13.23
   9  11   1    0.48   14.39
  -9 -11   0   -8.51   13.40
   9  11   0  -22.24   14.90
  -9 -11   1   -7.81   14.71
   9  11  -1    1.63   15.81
  -9 -11   2    0.54   15.79
   9  11  -2   17.86   16.47
  -9 -11   3  -12.52   17.00
   9  11  -3  -13.56   17.63
  -9 -11   4   10.87   17.96
   9  11  -4   18.76   19.61
  -9 -11   5   43.90   19.94
   9  11  -5   -9.58   20.36
  -9 -11   6    8.27   20.15
   9  11  -6   39.14   21.78
  -9 -11   7   22.98   20.89
   9  11  -7   21.11   22.17
 -10 -11  -3    5.11   11.78
  10  11   3   17.48   12.81
 -10 -11  -2   -0.86   12.43
  10  11   2   10.73   13.53
 -10 -11   0   12.85   14.06
  10  11   0   -5.43   15.04
 -10 -11   1   12.79   15.07
  10  11  -1   38.10   16.16
 -10 -11   2   -6.01   16.31
  10  11  -2    5.64   16.68
 -10 -11   3    4.07   17.36
  10  11  -3    8.33   18.08
 -10 -11   4   16.37   18.23
  10  11  -4    5.79   19.30
 -10 -11   5  -21.02   19.49
  10  11  -5    0.06   20.22
 -10 -11   6   29.87   20.68
  10  11  -6   22.65   21.84
 -10 -11   7   -1.31   19.79
  10  11  -7   -4.91   22.98
 -11 -11  -4    9.98   10.05
 -11 -11  -3    0.60   11.57
  11  11   3   41.50   13.47
 -11 -11  -2   -0.48   11.98
  11  11   2    3.10   13.44
 -11 -11  -1   -2.55   13.22
  11  11   1   -0.29   14.29
 -11 -11   0   -9.84   14.08
  11  11   0   19.79   14.90
 -11 -11   1  -11.39   15.27
  11  11  -1   -0.29   15.91
 -11 -11   2   47.24   17.15
  11  11  -2   18.04   17.18
 -11 -11   3    4.36   17.90
  11  11  -3   36.32   19.26
 -11 -11   4   19.71   18.78
  11  11  -4   -0.66   19.89
 -11 -11   5   27.85   19.18
  11  11  -5   37.19   21.22
 -11 -11   6    3.63   19.97
  11  11  -6   15.49   22.33
 -12 -11  -4    8.38   10.56
  12  11   4    1.40   11.89
 -12 -11  -3    6.04   11.30
  12  11   3   17.56   12.76
 -12 -11  -2   19.43   12.48
  12  11   2   15.40   14.03
 -12 -11  -1  -12.16   13.62
  12  11   1   32.25   14.78
 -12 -11   0  -11.18   14.75
  12  11   0   -7.93   15.78
 -12 -11   1    0.33   15.82
  12  11  -1  -20.96   16.94
 -12 -11   2    8.86   17.27
  12  11  -2   14.62   18.17
 -12 -11   3    2.98   18.33
  12  11  -3  -12.25   18.78
 -12 -11   4  -24.41   18.72
  12  11  -4   28.42   20.39
 -12 -11   5   26.45   19.82
  12  11  -5  -17.00   20.39
 -13 -11  -4   12.57    9.72
  13  11   4    0.14   10.90
 -13 -11  -3   13.47   11.27
  13  11   3    4.39   12.48
 -13 -11  -2   15.42   12.76
  13  11   2   -3.96   13.53
 -13 -11  -1   25.78   14.27
  13  11   1  -11.17   14.36
 -13 -11   0   20.37   15.64
  13  11   0   12.22   16.05
 -13 -11   1   31.81   17.27
  13  11  -1   29.12   17.72
 -13 -11   2   53.68   18.08
  13  11  -2   40.51   18.64
 -13 -11   3    0.53   18.28
  13  11  -3    3.50   19.05
 -13 -11   4   55.34   20.28
  13  11  -4   28.99   19.73
 -14 -11  -3   -0.87   10.87
  14  11   3   -9.66   11.68
 -14 -11  -2   -9.01   12.33
  14  11   2  -18.69   13.02
 -14 -11  -1   27.11   13.62
  14  11   1    5.79   14.27
 -14 -11   0   -9.99   15.40
  14  11   0    5.70   16.41
 -14 -11   1   24.14   16.38
  14  11  -1   -3.65   17.01
 -14 -11   2    5.68   17.57
  14  11  -2    8.29   18.45
 -14 -11   3   -3.80   19.20
   8 -12   6  -24.65   22.11
   8 -12   7    2.31   22.00
  -8  12  -7  -22.59   22.48
   7 -12   6    8.54   22.18
  -7  12  -6   10.73   23.18
   7 -12   7  -19.06   21.64
  -7  12  -7    7.87   23.43
   6 -12   5   26.54   20.87
   6 -12   6   17.51   21.41
  -6  12  -6   13.26   22.17
   6 -12   7  104.28   24.79
  -6  12  -7   86.88   24.47
   6 -12   8    3.39   21.75
  -6  12  -8  -24.78   24.40
   5 -12   5   22.74   20.06
  -5  12  -5   -6.27   20.84
   5 -12   6   16.28   20.81
  -5  12  -6   31.95   22.12
   5 -12   7   40.60   22.61
  -5  12  -7   -3.10   23.04
   5 -12   8    9.93   22.50
  -5  12  -8   -7.25   23.98
   4 -12   4  -13.28   18.97
   4 -12   6    3.72   20.37
  -4  12  -6   30.50   22.27
   4 -12   7  398.91   35.41
  -4  12  -7  340.58   33.47
   4 -12   8    6.60   22.32
  -4  12  -8  -39.91   23.16
   3 -12   4   71.18   20.72
  -3  12  -4    1.19   20.19
   3 -12   5   47.91   20.63
   3 -12   6    0.33   19.97
  -3  12  -6   22.02   21.81
   3 -12   7  -12.12   21.37
  -3  12  -7   -0.59   22.64
   3 -12   8   14.78   21.88
  -3  12  -8    1.21   24.20
   2 -12   3    8.85   19.18
   2 -12   4   11.48   18.82
  -2  12  -4   35.93   20.44
   2 -12   5   10.50   20.09
  -2  12  -5   -3.15   20.63
   2 -12   6   23.93   21.52
   2 -12   7   23.69   21.14
  -2  12  -7   31.26   22.48
   2 -12   8  -16.76   21.81
  -2  12  -8  -13.73   22.79
   2 -12   9  -12.24   22.42
  -2  12  -9   35.70   24.76
   1 -12   3   28.12   19.56
  -1  12  -3   35.46   20.25
   1 -12   4   86.55   21.25
  -1  12  -4   59.06   20.87
   1 -12   5    8.03   19.52
  -1  12  -5  -45.10   20.99
   1 -12   6  189.13   24.75
  -1  12  -6  202.69   26.24
   1 -12   7  -27.38   20.99
   1 -12   8  101.53   23.60
  -1  12  -8  125.77   25.12
   1 -12   9    9.16   21.60
  -1  12  -9  -39.69   22.82
   0 -12   2  347.97   29.70
   0  12  -3   24.64   20.21
   0 -12   4   73.21   20.31
   0  12  -4   44.31   21.23
   0 -12   5   30.83   19.46
   0  12  -5   25.36   21.05
   0 -12   6   -4.42   19.91
   0  12  -6   31.06   20.81
   0 -12   7   -2.64   20.69
   0  12  -7  -10.61   21.60
   0 -12   8   17.78   21.72
   0 -12   9   13.95   21.13
   0  12  -9  -17.03   22.73
  -1 -12   2  142.49   21.70
   1  12  -2  124.36   22.17
  -1 -12   3   84.83   20.19
   1  12  -3   37.46   20.56
   1  12  -4  112.11   22.24
  -1 -12   5   -3.98   19.29
   1  12  -5   33.91   20.74
  -1 -12   6  151.76   22.91
   1  12  -6  184.91   24.56
  -1 -12   7   37.81   21.26
   1  12  -7   33.98   22.36
  -1 -12   8   75.35   22.20
   1  12  -8   59.38   24.02
  -1 -12   9   -2.16   21.75
  -2 -12   1    2.53   17.68
   2  12  -1   10.52   18.39
  -2 -12   2    8.12   18.49
   2  12  -2   37.96   20.36
  -2 -12   3   -9.28   19.27
   2  12  -3   -5.44   19.58
  -2 -12   4    0.44   17.98
   2  12  -4   20.83   20.01
   2  12  -5  -20.53   20.40
  -2 -12   6    5.71   19.06
   2  12  -6  -19.29   20.37
  -2 -12   7   15.19   21.11
   2  12  -7   53.54   22.67
  -2 -12   8   -7.87   21.05
   2  12  -8  -15.63   23.01
  -2 -12   9   24.46   22.00
   2  12  -9  -35.76   24.46
  -3 -12   1   18.31   17.48
   3  12  -1    8.33   18.75
  -3 -12   2    8.14   18.40
   3  12  -2   28.60   19.06
  -3 -12   3   21.28   18.43
   3  12  -3   69.08   20.03
  -3 -12   4   34.56   18.63
   3  12  -4   32.34   20.31
  -3 -12   5   21.47   19.53
   3  12  -5   39.06   20.30
   3  12  -6  -16.52   20.15
  -3 -12   7   21.99   21.10
   3  12  -7   37.74   21.96
  -3 -12   8   -5.71   21.34
   3  12  -8    1.05   22.73
  -4 -12   0    0.23   17.06
   4  12   0  -24.40   17.06
  -4 -12   1  371.63   29.61
   4  12  -1  343.15   29.15
  -4 -12   2  -22.91   16.80
   4  12  -2   -8.14   18.33
  -4 -12   3   55.79   18.46
   4  12  -3   83.23   20.60
  -4 -12   4   -3.27   17.56
   4  12  -4   -5.15   18.93
  -4 -12   5   38.72   18.64
   4  12  -5   62.41   19.97
  -4 -12   6   20.77   19.21
   4  12  -6   31.39   20.92
   4  12  -7  302.31   31.33
  -4 -12   8    5.38   22.74
   4  12  -8   27.89   23.22
  -5 -12   0   -6.93   16.11
   5  12   0    3.71   16.58
  -5 -12   1   38.25   17.16
   5  12  -1   11.05   17.96
  -5 -12   2   12.92   16.71
   5  12  -2   16.52   18.40
  -5 -12   3  106.03   19.12
   5  12  -3  156.13   21.93
  -5 -12   4    7.87   18.64
   5  12  -4   15.49   19.06
  -5 -12   5    0.44   18.22
   5  12  -5   34.56   19.70
  -5 -12   6   38.44   20.12
   5  12  -6   20.53   21.93
  -5 -12   7   41.65   21.26
   5  12  -7   -0.17   22.54
   5  12  -8   22.62   22.85
  -6 -12  -1   41.29   15.06
   6  12   1   43.31   15.81
  -6 -12   0   12.58   16.03
   6  12   0   13.07   16.40
  -6 -12   1   12.63   16.88
   6  12  -1    6.84   17.33
  -6 -12   2   12.90   16.79
   6  12  -2   32.42   17.93
  -6 -12   3  -10.35   17.01
   6  12  -3    3.60   18.16
  -6 -12   4    7.81   17.36
   6  12  -4   20.72   19.83
  -6 -12   5  -31.10   18.84
   6  12  -5    7.61   19.80
  -6 -12   6  -10.62   19.82
   6  12  -6   40.16   21.67
  -6 -12   7   68.51   22.24
   6  12  -7   86.14   24.14
  -6 -12   8   35.51   20.03
   6  12  -8    3.66   22.32
  -7 -12  -1   53.03   14.60
   7  12   1   40.54   16.52
  -7 -12   0  -31.92   15.10
   7  12   0   15.70   16.28
  -7 -12   1   14.02   16.40
   7  12  -1   73.12   17.90
  -7 -12   2   16.61   16.83
   7  12  -2   29.40   17.42
  -7 -12   3  -18.78   17.45
   7  12  -3  -30.53   18.63
  -7 -12   4   65.39   18.82
   7  12  -4   73.29   20.27
  -7 -12   5    8.62   18.82
   7  12  -5  -19.05   20.56
  -7 -12   6   12.40   19.79
   7  12  -6   -4.10   21.67
  -7 -12   7    2.28   21.57
   7  12  -7   -7.34   21.76
  -8 -12  -2   -0.74   13.64
   8  12   2    9.58   14.71
  -8 -12  -1    4.28   14.41
   8  12   1    9.18   15.36
  -8 -12   0  162.30   18.85
   8  12   0  129.26   18.78
  -8 -12   1   -0.80   15.49
   8  12  -1  -21.13   15.96
  -8 -12   2   10.52   16.77
   8  12  -2    6.48   17.26
  -8 -12   3    2.49   17.78
   8  12  -3  -22.26   18.90
  -8 -12   4    7.25   17.98
   8  12  -4   -4.23   19.85
  -8 -12   5   40.69   19.62
   8  12  -5   17.47   20.54
  -8 -12   6   41.25   20.68
   8  12  -6   13.17   21.84
  -8 -12   7    7.40   20.60
   8  12  -7   13.82   22.62
  -9 -12  -2   46.76   14.06
   9  12   2   48.47   15.31
  -9 -12  -1  -20.10   14.02
   9  12   1  -18.52   15.06
  -9 -12   0   -8.12   14.92
   9  12   0    0.35   15.67
  -9 -12   1   -7.25   15.51
   9  12  -1  -15.61   16.26
  -9 -12   2   52.47   17.21
   9  12  -2   73.54   18.55
  -9 -12   3   -2.88   17.32
   9  12  -3   -1.93   18.36
  -9 -12   4  300.35   27.67
   9  12  -4  251.22   26.66
  -9 -12   5    9.33   19.40
   9  12  -5   15.07   20.65
  -9 -12   6   72.59   21.46
   9  12  -6   72.14   23.75
 -10 -12  -3    8.79   12.73
  10  12   3   23.00   13.99
 -10 -12  -1   20.83   13.85
  10  12   1   12.22   15.13
 -10 -12   0   11.63   14.90
  10  12   0   -6.37   15.54
 -10 -12   1   14.21   15.94
  10  12  -1   14.99   16.65
 -10 -12   2   46.79   17.47
  10  12  -2   59.12   18.43
 -10 -12   3    1.58   17.96
  10  12  -3    6.30   19.12
 -10 -12   4    3.16   18.66
  10  12  -4  -28.48   20.00
 -10 -12   5   21.14   19.44
  10  12  -5   -9.95   20.71
 -10 -12   6   -3.21   20.16
  10  12  -6   -3.60   22.30
 -11 -12  -3   23.90   13.25
  11  12   3   -9.04   14.32
 -11 -12  -2  -22.54   13.88
  11  12   2   -9.93   14.62
 -11 -12  -1   14.90   14.05
  11  12   1   11.75   15.02
 -11 -12   0   18.36   15.45
  11  12   0   -9.45   15.99
 -11 -12   1   19.17   16.08
  11  12  -1   24.49   17.19
 -11 -12   2    8.57   17.80
  11  12  -2   -2.46   17.89
 -11 -12   3    6.34   18.30
  11  12  -3  -38.46   19.55
 -11 -12   4   23.54   19.37
  11  12  -4   42.53   21.02
 -11 -12   5   57.06   19.38
  11  12  -5   26.90   21.23
 -12 -12  -4   16.00   11.06
  12  12   4    4.28   12.30
 -12 -12  -3   52.32   12.96
  12  12   3   44.43   14.06
 -12 -12  -2   18.46   13.53
  12  12   2   26.48   14.35
 -12 -12  -1   71.09   15.49
  12  12   1  100.11   17.12
 -12 -12   0   32.67   15.91
  12  12   0   51.25   17.23
 -12 -12   1   76.89   17.87
  12  12  -1  103.21   19.67
 -12 -12   2    6.90   17.77
  12  12  -2   10.81   18.82
 -12 -12   3   65.98   19.70
  12  12  -3   51.22   19.30
 -12 -12   4   28.29   19.30
  12  12  -4   27.46   19.82
 -13 -12  -3  -12.63   11.59
  13  12   3  -19.58   12.42
 -13 -12  -2   27.49   13.01
  13  12   2   10.88   13.50
 -13 -12  -1   71.25   15.04
  13  12   1   31.21   15.36
 -13 -12   0   16.58   15.18
  13  12   0   12.60   16.38
 -13 -12   1   64.70   17.69
  13  12  -1   78.36   18.40
 -13 -12   2   31.09   17.75
  13  12  -2    1.69   18.61
 -13 -12   3  -10.44   18.88
  13  12  -3   18.84   19.15
 -14 -12   0  -44.10   16.61
   7 -13   6   -6.12   22.47
  -7  13  -6   13.56   22.71
   7 -13   7   -3.16   22.74
  -7  13  -7   45.13   24.82
   6 -13   6   30.25   22.29
  -6  13  -6   13.55   23.78
   6 -13   7   59.00   23.45
  -6  13  -7   77.13   25.50
   5 -13   5   25.62   21.17
  -5  13  -5    0.69   21.63
   5 -13   6  371.33   34.60
  -5  13  -6  313.01   32.16
   5 -13   7   49.05   23.10
  -5  13  -7   19.35   24.79
   4 -13   5   18.33   20.53
  -4  13  -5  -28.02   20.42
   4 -13   6  557.89   42.75
  -4  13  -6  607.93   45.83
   4 -13   7   17.75   23.39
  -4  13  -7   16.86   24.16
   4 -13   8   52.58   24.02
  -4  13  -8   85.79   26.07
   3 -13   4    7.31   20.19
  -3  13  -4    7.79   20.89
   3 -13   5   43.78   21.60
  -3  13  -5   12.84   18.76
   3 -13   6   57.70   22.12
  -3  13  -6  -18.82   21.40
   3 -13   7    0.66   21.76
  -3  13  -7   38.61   24.67
   3 -13   8   -9.31   22.98
  -3  13  -8    2.73   23.54
   2 -13   4   -9.78   19.15
  -2  13  -4   43.10   20.75
   2 -13   5   22.51   21.46
  -2  13  -5   25.00   21.93
   2 -13   6    4.96   21.32
  -2  13  -6    9.16   17.66
   2 -13   7   39.03   23.13
  -2  13  -7   -5.98   23.45
   2 -13   8   -0.71   22.29
  -2  13  -8   39.50   23.07
   1 -13   4  -46.02   19.14
  -1  13  -4  -25.97   20.34
   1 -13   5  103.43   22.38
  -1  13  -5  115.69   23.10
   1 -13   6   87.14   22.42
  -1  13  -6   59.62   22.77
   1 -13   7  -15.16   21.61
   1 -13   8   -9.18   22.21
  -1  13  -8   33.59   23.64
   0 -13   2    3.98   19.95
   0 -13   3   27.50   16.41
   0  13  -3   70.69   21.23
   0 -13   4  -19.77   17.95
   0  13  -4   37.49   20.98
   0 -13   5  308.03   29.79
   0  13  -5  261.62   28.39
   0 -13   6   17.68   20.81
   0  13  -6  -31.89   21.58
   0 -13   7  365.15   33.61
   0  13  -7  398.30   35.99
   0 -13   8   21.26   21.52
  -1 -13   2   20.86   18.78
   1  13  -2   15.04   18.94
  -1 -13   4   13.41   15.12
   1  13  -4   -2.59   20.12
  -1 -13   5  112.32   21.67
   1  13  -5  104.03   23.43
  -1 -13   6   16.19   20.60
   1  13  -6   56.80   21.85
  -1 -13   7   89.95   22.68
   1  13  -7   90.33   24.07
  -1 -13   8    8.80   21.57
   1  13  -8   14.47   23.69
  -2 -13   1   24.11   17.66
  -2 -13   2   38.52   18.79
   2  13  -2   38.38   19.62
  -2 -13   3   25.24   19.02
   2  13  -3   37.74   20.60
  -2 -13   4   20.12   19.02
   2  13  -4   52.84   20.36
   2  13  -5   25.78   21.64
  -2 -13   6  -32.51   20.01
   2  13  -6  -13.08   21.38
  -2 -13   7   31.00   22.57
   2  13  -7   91.64   24.35
  -2 -13   8   21.29   22.32
   2  13  -8  -19.86   22.53
  -3 -13   1   23.98   17.24
   3  13  -1    8.35   18.61
  -3 -13   2   29.36   18.48
   3  13  -2    4.26   19.30
  -3 -13   3   61.74   19.44
   3  13  -3   80.26   21.32
  -3 -13   4  -12.98   18.57
   3  13  -4   19.70   20.75
  -3 -13   5   56.57   19.89
   3  13  -5   53.95   21.54
   3  13  -6   19.44   21.82
  -3 -13   7   33.00   22.39
   3  13  -7   45.33   23.01
  -3 -13   8   -8.73   21.99
   3  13  -8   28.00   23.33
  -4 -13   0  526.55   36.94
  -4 -13   1   29.40   17.51
   4  13  -1   31.09   18.99
  -4 -13   2  757.27   49.87
   4  13  -2  645.90   44.92
  -4 -13   3  -22.51   18.34
   4  13  -3   25.24   20.36
  -4 -13   4  164.72   22.41
   4  13  -4  138.95   22.57
  -4 -13   5   18.84   19.35
   4  13  -5   -9.69   20.56
  -4 -13   6  477.27   37.71
   4  13  -6  423.47   36.14
   4  13  -7   34.56   22.85
  -4 -13   8   99.63   23.54
   4  13  -8   90.09   24.61
  -5 -13   0   -8.15   16.80
   5  13   0  -28.75   17.19
  -5 -13   1   -1.88   17.56
   5  13  -1   -6.72   17.99
  -5 -13   2   18.05   17.75
   5  13  -2   26.69   18.66
  -5 -13   3   27.25   17.96
   5  13  -3   35.34   19.77
  -5 -13   5   19.94   19.32
   5  13  -5   37.55   20.65
  -5 -13   6  330.79   31.30
   5  13  -6  308.48   31.01
  -5 -13   7   -5.20   21.51
   5  13  -7   -7.43   23.66
  -6 -13  -1   -1.79   15.10
  -6 -13   0  159.44   19.65
   6  13   0  156.88   20.78
  -6 -13   1    3.01   17.19
   6  13  -1    7.52   17.66
  -6 -13   2  365.30   29.93
   6  13  -2  304.87   28.02
  -6 -13   3    3.95   17.60
   6  13  -3   57.66   20.06
  -6 -13   4   15.75   18.64
   6  13  -4   14.54   19.91
  -6 -13   5    6.83   18.97
   6  13  -5    9.58   21.29
  -6 -13   6   57.78   21.23
   6  13  -6   99.22   24.34
  -6 -13   7   34.62   21.46
   6  13  -7   16.88   22.38
  -7 -13  -1  140.97   18.61
   7  13   1  175.11   20.27
  -7 -13   0  -16.89   16.22
   7  13   0  -12.16   16.65
  -7 -13   1  162.61   20.40
   7  13  -1  168.03   21.47
  -7 -13   2   17.89   17.30
   7  13  -2   34.95   18.69
  -7 -13   3    9.83   17.26
   7  13  -3   -0.06   18.73
  -7 -13   4   64.42   20.18
   7  13  -4    4.81   20.27
  -7 -13   5   50.86   19.95
   7  13  -5   65.43   22.56
  -7 -13   6   19.85   20.78
   7  13  -6   22.50   22.82
  -7 -13   7  -28.72   21.47
   7  13  -7  -63.94   22.68
  -8 -13  -2    3.45   14.23
  -8 -13  -1    2.08   15.42
   8  13   1   36.11   16.14
  -8 -13   0   60.11   16.85
   8  13   0   73.36   17.89
  -8 -13   1   22.94   16.77
   8  13  -1   -6.43   16.91
  -8 -13   2  -25.88   16.89
   8  13  -2  -36.97   17.84
  -8 -13   3  201.94   23.21
   8  13  -3  143.15   22.05
  -8 -13   4    5.00   19.30
   8  13  -4   24.14   20.19
  -8 -13   5   11.29   20.40
   8  13  -5   23.25   21.63
  -8 -13   6   56.59   20.99
   8  13  -6   66.99   23.28
  -9 -13  -2   13.43   14.74
   9  13   2   29.91   16.25
  -9 -13  -1   78.11   16.76
   9  13   1   76.48   17.36
  -9 -13   0  -12.19   15.51
   9  13   0  -18.10   16.83
  -9 -13   1   94.22   18.13
   9  13  -1   87.95   18.66
  -9 -13   2   26.36   17.72
   9  13  -2    2.38   18.20
  -9 -13   4   17.86   18.91
   9  13  -4  -18.16   20.31
  -9 -13   5  265.99   27.74
   9  13  -5  236.45   27.49
  -9 -13   6  -29.63   19.83
   9  13  -6   -7.64   22.88
 -10 -13  -3   15.97   14.05
 -10 -13  -2    3.63   14.66
  10  13   2   14.09   15.78
 -10 -13  -1   -8.91   15.16
  10  13   1   13.95   16.61
 -10 -13   0   27.56   15.91
  10  13   0   41.43   17.23
 -10 -13   1    9.09   16.92
  10  13  -1   -9.45   17.60
 -10 -13   2    7.93   18.23
  10  13  -2   26.95   19.11
 -10 -13   3   29.99   19.44
  10  13  -3   15.33   20.12
 -10 -13   4   -2.31   19.40
  10  13  -4    3.84   20.42
 -10 -13   5   33.89   20.12
  10  13  -5   48.72   21.20
 -11 -13  -3   23.49   13.68
  11  13   3   14.98   14.45
 -11 -13  -2   -3.35   14.42
  11  13   2   21.14   15.42
 -11 -13   0    3.45   16.68
  11  13   0   52.31   17.45
 -11 -13   1  166.07   20.77
  11  13  -1  159.89   21.79
 -11 -13   2   17.33   18.05
  11  13  -2    5.71   18.08
 -11 -13   3  -20.84   18.55
  11  13  -3   16.44   19.40
 -11 -13   4   -5.12   18.85
  11  13  -4   23.33   20.36
 -12 -13  -3   38.93   13.82
  12  13   3   35.22   14.41
 -12 -13  -2   21.11   13.80
  12  13   2   18.45   14.51
 -12 -13  -1   34.84   15.02
  12  13   1   11.33   16.14
 -12 -13   0  453.91   33.02
  12  13   0  573.12   39.18
 -12 -13   1   13.85   16.76
  12  13  -1   28.26   17.62
 -12 -13   2   20.31   17.71
  12  13  -2   28.08   18.61
 -12 -13   3   57.10   19.67
  12  13  -3    6.15   19.64
 -13 -13  -1   30.94   16.03
 -13 -13   0  -21.28   15.36
  13  13   0   -6.96   16.73
   7 -14   6   40.93   22.64
   6 -14   6   -9.69   22.48
  -6  14  -6    9.43   24.05
   5 -14   5  137.45   25.02
  -5  14  -5  108.93   25.94
   5 -14   6   31.96   23.55
  -5  14  -6   26.84   23.61
   5 -14   7   21.57   24.46
  -5  14  -7   15.19   26.27
   4 -14   5   29.22   22.29
   4 -14   6  -51.00   22.45
  -4  14  -6    9.42   23.42
   4 -14   7   43.09   23.37
  -4  14  -7   -5.59   24.08
   3 -14   4   14.32   21.19
  -3  14  -4    8.85   20.83
   3 -14   5   56.96   22.51
  -3  14  -5    1.24   22.39
   3 -14   6  -10.59   22.36
   3 -14   7  -10.81   21.81
  -3  14  -7  -25.44   23.33
   2 -14   4   -0.80   20.66
  -2  14  -4    3.32   20.80
   2 -14   5   22.65   21.55
  -2  14  -5   25.98   22.56
   2 -14   6  -33.35   22.44
  -2  14  -6  -14.42   23.78
   2 -14   7    9.71   22.77
  -1  14  -3   18.04   21.14
   1 -14   4    2.59   20.72
  -1  14  -4   -7.26   21.61
   1 -14   5   45.36   21.93
  -1  14  -5    5.23   22.24
   1 -14   6    7.49   22.39
  -1  14  -6   -4.29   23.34
   1 -14   7   39.65   22.89
  -1  14  -7  -22.89   24.04
   0 -14   3  -35.60   19.33
   0  14  -3    7.44   20.04
   0  14  -4   33.77   21.73
   0 -14   5   18.55   21.64
   0  14  -5  -13.34   21.84
   0 -14   6  141.33   25.47
   0  14  -6  196.82   27.76
   0 -14   7   -9.72   21.75
   0  14  -7  -22.14   23.34
  -1 -14   2   13.16   18.66
   1  14  -2  -10.87   19.65
  -1 -14   3   -3.81   18.79
   1  14  -3  -12.07   20.28
  -1 -14   4  -12.22   19.47
   1  14  -4   32.01   21.61
   1  14  -5   14.05   22.08
  -1 -14   6   59.95   22.61
   1  14  -6   33.29   23.68
  -1 -14   7  -17.77   21.79
   1  14  -7   20.37   23.12
  -2 -14   2   14.74   18.87
   2  14  -2    0.89   20.15
  -2 -14   3   14.21   18.51
   2  14  -3   18.76   20.44
  -2 -14   4   24.55   19.47
   2  14  -4   41.35   21.55
  -2 -14   5   19.03   21.13
   2  14  -5   -0.14   21.90
   2  14  -6  -25.78   23.16
  -2 -14   7    2.73   22.12
   2  14  -7   38.34   23.15
  -3 -14   1    2.59   17.98
   3  14  -1   -5.83   18.72
  -3 -14   2    5.59   18.25
   3  14  -2    1.75   19.92
  -3 -14   3   -5.61   19.06
   3  14  -3   28.51   20.25
  -3 -14   4   25.95   19.86
   3  14  -4   20.15   20.48
  -3 -14   5   18.14   21.28
   3  14  -5    8.85   22.64
  -3 -14   6   23.37   21.58
   3  14  -6    3.15   23.06
   3  14  -7   23.00   22.21
  -4 -14   1  -22.41   17.62
   4  14  -1   30.35   19.33
  -4 -14   2    2.29   18.58
   4  14  -2  -17.62   19.21
  -4 -14   3    2.65   18.58
   4  14  -3    6.03   20.22
  -4 -14   4   -1.54   19.52
   4  14  -4   64.70   21.31
  -4 -14   5   -3.53   20.04
   4  14  -5    7.79   21.88
  -4 -14   6    7.20   20.90
   4  14  -6    7.26   22.45
  -4 -14   7   44.35   22.91
   4  14  -7   55.25   23.06
  -5 -14   0   -7.90   17.24
   5  14   0   23.13   17.89
  -5 -14   1   -0.66   17.89
   5  14  -1  -58.64   19.05
  -5 -14   2   -2.14   17.77
   5  14  -2   42.71   19.98
  -5 -14   3   47.20   19.50
   5  14  -3   25.88   20.36
  -5 -14   4  -23.01   18.76
   5  14  -4   10.62   21.31
  -5 -14   5  137.59   22.83
   5  14  -5  170.59   25.71
  -5 -14   6   33.41   21.22
   5  14  -6  -16.14   21.47
  -5 -14   7    5.61   22.06
   5  14  -7   35.82   24.64
  -6 -14   0  -26.42   16.95
   6  14   0   31.54   18.37
  -6 -14   1    6.72   18.01
   6  14  -1  -13.31   18.26
  -6 -14   2  -11.06   17.92
   6  14  -2    1.99   19.49
  -6 -14   3   20.00   18.66
   6  14  -3    1.52   20.34
  -6 -14   4   -7.85   19.24
   6  14  -4  -12.49   20.96
  -6 -14   5   -5.00   19.77
   6  14  -5   -9.04   22.03
  -6 -14   6   -0.53   21.17
   6  14  -6   40.12   22.80
  -7 -14  -1    3.33   16.40
   7  14   1   14.06   17.21
  -7 -14   0  -32.55   16.67
   7  14   0   -0.47   17.33
  -7 -14   1    1.88   17.24
   7  14  -1  -10.22   18.81
  -7 -14   2    5.11   18.28
   7  14  -2   -7.20   19.18
  -7 -14   3   32.39   18.43
   7  14  -3   23.55   20.01
  -7 -14   4   -7.20   19.00
   7  14  -4  -26.99   20.36
  -7 -14   5  -23.49   20.07
   7  14  -5   -4.11   22.18
  -7 -14   6   -5.43   19.50
   7  14  -6   16.74   22.03
  -8 -14  -2   87.62   17.75
  -8 -14  -1   14.27   16.32
   8  14   1   -9.90   17.30
  -8 -14   0    7.72   17.42
   8  14   0   -9.31   17.90
  -8 -14   1   25.20   18.10
   8  14  -1    5.97   18.46
  -8 -14   2   91.76   19.53
   8  14  -2  130.84   21.88
  -8 -14   3   21.20   18.66
   8  14  -3    8.03   20.36
  -8 -14   4   -2.12   19.14
   8  14  -4    9.42   20.65
  -8 -14   5   20.72   19.92
   8  14  -5    7.07   22.17
  -9 -14  -2   12.25   16.12
   9  14   2   18.02   17.07
  -9 -14  -1   14.02   17.21
   9  14   1    6.96   17.29
  -9 -14   0  -16.32   16.68
   9  14   0   14.47   17.99
  -9 -14   1   20.72   17.74
   9  14  -1   16.03   18.82
  -9 -14   2  -19.68   18.46
   9  14  -2  -14.53   19.00
  -9 -14   3   16.17   19.21
   9  14  -3   20.06   20.48
  -9 -14   4    9.69   19.59
   9  14  -4   34.98   20.69
  -9 -14   5   -1.61   19.83
   9  14  -5  -19.67   21.04
 -10 -14  -3   -6.48   13.58
 -10 -14  -2   17.66   15.85
  10  14   2   37.21   16.71
 -10 -14  -1   39.23   16.40
  10  14   1   -0.68   17.18
 -10 -14   0   30.64   17.13
  10  14   0   -6.98   18.33
 -10 -14   1   31.00   17.66
  10  14  -1   15.25   18.60
 -10 -14   2   27.13   18.90
  10  14  -2   40.39   19.38
 -10 -14   3   -6.54   18.79
  10  14  -3   47.50   19.53
 -10 -14   4    6.80   19.29
  10  14  -4    8.48   20.66
 -11 -14  -3   -1.87   13.91
  11  14   3    1.30   15.63
 -11 -14  -2  -18.72   14.47
  11  14   2    3.83   16.11
 -11 -14  -1   27.25   15.43
  11  14   1   -3.75   16.74
 -11 -14   0   -1.87   16.38
  11  14   0  -23.07   17.44
 -11 -14   1    1.66   17.35
  11  14  -1   29.87   18.73
 -11 -14   2   31.04   18.07
  11  14  -2   -8.97   18.19
   5 -15   5  -23.63   21.99
   5 -15   6   16.28   23.28
  -5  15  -6  -10.82   24.38
   4 -15   5   24.62   22.41
   4 -15   6   20.44   22.45
  -4  15  -6   77.46   24.96
   3 -15   4  -17.16   22.02
   3 -15   5    6.16   22.95
  -3  15  -5  -21.46   23.31
   3 -15   6   -6.83   22.09
   2 -15   4  -17.98   21.60
  -2  15  -4   13.40   22.08
   2 -15   5   35.13   22.36
  -2  15  -5    3.84   23.00
   2 -15   6   39.20   23.22
  -2  15  -6  -10.53   24.28
   1 -15   3   34.16   16.49
   1 -15   4   -5.03   21.04
  -1  15  -4   11.38   22.35
   1 -15   5   23.00   22.95
  -1  15  -5   18.78   23.68
   1 -15   6   -1.96   22.38
  -1  15  -6   -0.32   23.55
   0  15  -4  -37.95   22.35
   0 -15   5  136.66   24.96
   0  15  -5  158.24   27.16
  -1 -15   2  -19.77   19.29
  -1 -15   3   18.66   20.84
   1  15  -3    5.05   20.99
  -1 -15   4   33.17   21.43
   1  15  -4   23.12   22.79
   1  15  -5    6.78   23.87
  -1 -15   6   32.31   22.33
   1  15  -6   10.87   23.16
  -2 -15   2   -4.51   19.53
   2  15  -2   -1.58   20.59
  -2 -15   3   -3.06   19.40
   2  15  -3  -20.59   20.60
  -2 -15   4   20.69   20.89
   2  15  -4  -19.65   22.80
  -2 -15   5   26.24   22.05
   2  15  -5   68.89   23.54
   2  15  -6   -8.29   23.04
  -3 -15   1   -0.87   18.75
   3  15  -1    3.41   20.99
  -3 -15   2    7.75   19.11
   3  15  -2   11.18   20.53
  -3 -15   3   14.86   20.01
   3  15  -3   18.40   21.51
  -3 -15   4   44.82   21.07
   3  15  -4   46.34   22.57
  -3 -15   5   21.97   21.43
   3  15  -5  -30.11   21.93
  -3 -15   6  -10.76   21.34
   3  15  -6   13.28   23.43
  -4 -15   1   17.54   18.17
   4  15  -1   -5.17   19.06
  -4 -15   2   14.90   19.40
   4  15  -2   -3.93   20.31
  -4 -15   3   -2.52   19.56
   4  15  -3   53.50   22.09
  -4 -15   4   21.51   20.87
   4  15  -4   38.55   22.62
  -4 -15   5   -1.31   21.08
   4  15  -5    9.43   23.72
  -4 -15   6    3.01   20.98
   4  15  -6   38.04   22.88
  -5 -15   0    6.87   18.40
   5  15   0    7.14   18.48
  -5 -15   1   18.45   18.64
   5  15  -1   24.93   19.38
  -5 -15   2   16.50   18.99
   5  15  -2   16.56   20.24
  -5 -15   3  -17.24   20.09
   5  15  -3  -40.52   21.31
  -5 -15   4  296.88   29.49
   5  15  -4  242.03   28.54
  -5 -15   5    4.88   20.15
   5  15  -5    5.58   22.26
  -5 -15   6   -3.35   21.19
   5  15  -6   -2.32   23.33
  -6 -15   0   38.11   18.54
   6  15   0   26.99   19.09
  -6 -15   1    3.53   18.60
   6  15  -1   -2.53   19.64
  -6 -15   2   19.02   18.63
   6  15  -2   18.26   20.51
  -6 -15   3   14.38   19.67
   6  15  -3   -2.22   20.57
  -6 -15   4   26.75   20.22
   6  15  -4   27.25   22.17
  -6 -15   5    4.01   19.65
   6  15  -5    6.98   22.30
  -7 -15  -1   16.28   17.66
   7  15   1   23.21   18.28
  -7 -15   1   19.58   18.58
   7  15  -1   10.14   20.47
  -7 -15   2   17.83   19.05
   7  15  -2   15.88   21.25
  -7 -15   3    4.28   18.78
   7  15  -3   32.52   21.23
  -7 -15   4   26.27   20.03
   7  15  -4    2.82   20.86
  -7 -15   5   -9.09   20.06
   7  15  -5   32.40   23.21
  -8 -15  -1  170.74   21.32
   8  15   1  149.06   21.72
  -8 -15   0   21.60   18.55
   8  15   0    7.50   19.18
  -8 -15   1  181.44   23.30
   8  15  -1  144.96   22.80
  -8 -15   2   18.55   18.99
   8  15  -2    0.80   20.12
  -8 -15   3   73.23   20.04
   8  15  -3   53.33   20.50
  -8 -15   4    3.99   19.05
   8  15  -4   11.86   20.89
  -9 -15  -2   -8.36   15.99
   9  15   2   17.78   16.76
  -9 -15  -1  -12.16   16.97
   9  15   1   41.41   18.52
  -9 -15   0  -27.35   17.39
   9  15   0   37.89   19.23
  -9 -15   1   15.90   18.33
   9  15  -1   25.45   18.88
  -9 -15   2   17.71   18.48
   9  15  -2    5.50   19.33
  -9 -15   3   49.04   19.56
   9  15  -3   66.25   20.62
 -10 -15  -1   -9.58   16.38
  10  15   1    8.77   17.89
 -10 -15   0   33.46   17.19
  10  15   0   10.56   18.13
 -10 -15   1   -0.09   17.38
  10  15  -1  -34.44   18.52
 -10 -15   2   -3.13   18.55
  10  15  -2   -1.16   19.92
   4 -16   5   -4.69   23.68
  -4  16  -5  -13.73   23.72
   3 -16   4   20.81   22.11
   3 -16   5   18.10   22.79
  -3  16  -5  -20.50   24.70
   2 -16   4  -32.04   22.45
  -2  16  -4  -23.90   22.79
   2 -16   5   56.08   23.07
  -2  16  -5   17.80   23.74
   1 -16   3  -16.73   21.07
  -1  16  -4   35.32   23.37
   1 -16   5    4.11   22.53
  -1  16  -5  -11.11   23.80
   0 -16   3    6.51   21.66
   0  16  -3   17.93   22.20
   0 -16   4   54.25   23.66
   0  16  -4   72.76   24.78
   0  16  -5   -7.60   23.87
  -1 -16   2  109.38   22.00
  -1 -16   3    7.97   21.13
   1  16  -3  -21.31   22.70
  -1 -16   4   25.15   22.17
   1  16  -4   30.98   22.83
  -1 -16   5    8.29   22.89
   1  16  -5    3.07   23.72
  -2 -16   2  -13.31   19.86
   2  16  -2  -22.26   21.52
  -2 -16   3  -17.71   20.75
   2  16  -3    0.57   22.61
  -2 -16   4   14.53   21.57
   2  16  -4  -13.73   23.19
  -2 -16   5   10.38   21.96
   2  16  -5   -8.08   22.97
  -3 -16   1   37.71   19.97
  -3 -16   2   38.52   20.09
   3  16  -2   39.20   22.20
  -3 -16   3   -4.20   21.13
   3  16  -3   34.96   22.94
  -3 -16   4    7.14   21.57
   3  16  -4  -21.26   22.71
  -3 -16   5    8.48   21.88
   3  16  -5   -0.63   23.43
  -4 -16   1   52.31   20.09
   4  16  -1  102.79   22.27
  -4 -16   2   -5.47   19.52
   4  16  -2   32.52   21.66
  -4 -16   3   70.92   22.35
   4  16  -3   79.28   24.04
  -4 -16   4   43.64   21.10
   4  16  -4   10.28   23.25
  -4 -16   5    9.10   21.05
   4  16  -5   33.24   23.03
  -5 -16   0   25.88   19.18
  -5 -16   1  289.95   28.51
   5  16  -1  340.13   31.35
  -5 -16   2  -35.38   20.03
   5  16  -2   14.09   21.41
  -5 -16   3   14.11   20.42
   5  16  -3   -8.68   21.76
  -5 -16   4    2.32   20.48
   5  16  -4   27.92   23.01
  -6 -16   0   11.32   18.93
   6  16   0   35.34   20.21
  -6 -16   1   30.86   19.64
   6  16  -1   18.48   20.98
  -6 -16   2    7.76   19.88
   6  16  -2   -0.95   21.38
  -6 -16   3   26.45   20.51
   6  16  -3   80.50   22.76
  -6 -16   4   -7.02   19.94
   6  16  -4  -33.17   22.61
  -7 -16  -1   26.52   18.13
  -7 -16   0    7.84   18.79
   7  16   0  -17.45   19.55
  -7 -16   2    3.27   19.29
   7  16  -2    6.56   21.19
  -7 -16   3   50.86   20.51
   7  16  -3   12.55   21.31
  -8 -16  -1    4.39   17.29
   8  16   1   14.84   19.30
  -8 -16   0   18.61   18.51
   8  16   0   66.10   19.55
  -8 -16   1   13.59   18.75
   8  16  -1    1.22   19.61
  -8 -16   2  -17.71   19.24
   8  16  -2    4.91   20.65
  -9 -16   0  -42.66   18.23
   2 -17   4   19.00   21.84
  -2  17  -4  -12.43   23.54
  -1  17  -4   14.80   23.24
   0 -17   3   14.63   21.99
   0  17  -3  -20.34   22.30
   0 -17   4  -33.09   22.70
   0  17  -4   29.58   24.02
  -1 -17   3   55.08   22.21
   1  17  -3   31.39   23.45
  -1 -17   4   16.82   22.32
   1  17  -4   15.25   23.45
  -2 -17   2   24.65   21.16
   2  17  -2   -2.49   23.13
  -2 -17   3   -6.00   21.02
   2  17  -3    5.15   23.16
  -2 -17   4  -31.89   21.66
   2  17  -4    0.69   23.98
  -3 -17   2   44.67   20.96
   3  17  -2    6.03   22.57
  -3 -17   3    4.36   20.40
   3  17  -3   17.38   23.00
  -4 -17   1    4.37   19.09
   4  17  -1   25.14   21.16
  -4 -17   2    9.83   20.60
   4  17  -2   18.23   21.82
  -4 -17   3   20.01   20.69
   4  17  -3   44.02   23.75
  -5 -17   0   14.84   19.44
  -5 -17   1   13.32   19.70
   5  17  -1   35.25   21.23
  -5 -17   2   -3.69   19.80
   5  17  -2    7.93   21.63
  -5 -17   3  -33.94   21.99
  -6 -17   0    2.86   18.51
   6  17   0   36.27   20.19
  -6 -17   1   -8.15   18.78
   6  17  -1    5.49   20.60
  -6 -17   2   -4.23   21.05
   6  17  -2   -3.66   23.95
   0   0   0    0.00    0.00

_computing_structure_solution     'SHELXT 2014/5 (Sheldrick, 2014)'
;
_shelx_hkl_checksum              80889
loop_
_space_group_symop_operation_xyz
'x, y, z'
'-x+1/2, -y, z+1/2'
'-x, y+1/2, -z'
'x+1/2, -y+1/2, -z+1/2'
'-x, -y, -z'
'x-1/2, y, -z-1/2'
'x, -y-1/2, z'
'-x-1/2, y-1/2, z-1/2'
loop_
_atom_site_label
_atom_site_type_symbol
_atom_site_fract_x
_atom_site_fract_y
_atom_site_fract_z
_atom_site_U_iso_or_equiv
_atom_site_adp_type
_atom_site_occupancy
_atom_site_site_symmetry_order
_atom_site_calc_flag
_atom_site_refinement_flags_posn
_atom_site_refinement_flags_adp
_atom_site_refinement_flags_occupancy
_atom_site_disorder_assembly
_atom_site_disorder_group
Si1 Si 0.4231(7) 1.0556(7) 0.6623(8) 0.005(4) Uiso 1 1 d D . . . .
Si2 Si 0.3076(7) 1.0294(6) 0.8086(9) 0.009(5) Uiso 1 1 d D . . . .
Si3 Si 0.2798(6) 1.0623(6) 1.0312(8) 0.005(5) Uiso 1 1 d D . . . .
Si4 Si 0.1220(6) 1.0648(6) 1.0265(9) 0.001(5) Uiso 1 1 d D . . . .
Si5 Si 0.0720(7) 1.0282(6) 0.8144(9) 0.007(5) Uiso 1 1 d D . . . .
Si6 Si 0.1849(7) 1.0589(6) 0.6698(8) 0.002(4) Uiso 1 1 d D . . . .
Si7 Si 0.4227(7) 0.8277(5) 0.6744(9) 0.001(5) Uiso 1 1 d D . . . .
Si8 Si 0.3085(7) 0.8705(6) 0.8156(9) 0.005(5) Uiso 1 1 d D . . . .
Si9 Si 0.2747(7) 0.8278(5) 1.0320(9) 0.001(5) Uiso 1 1 d D . . . .
Si10 Si 0.1204(7) 0.8268(5) 1.0263(9) 0.017(5) Uiso 1 1 d D . . . .
Si11 Si 0.0699(7) 0.8698(6) 0.8154(9) 0.004(5) Uiso 1 1 d D . . . .
Si12 Si 0.1882(8) 0.8277(5) 0.6815(9) 0.012(5) Uiso 1 1 d D . . . .
O1 O 0.3722(11) 1.0556(19) 0.7530(17) 0.041(9) Uiso 1 1 d D . . . .
O2 O 0.3062(16) 1.0604(13) 0.9188(10) 0.033(8) Uiso 1 1 d D . . . .
O3 O 0.2008(6) 1.0595(16) 1.031(2) 0.051(9) Uiso 1 1 d D . . . .
O4 O 0.0966(18) 1.0635(14) 0.9138(13) 0.047(10) Uiso 1 1 d D . . . .
O5 O 0.1139(9) 1.0552(16) 0.7218(15) 0.025(8) Uiso 1 1 d D . . . .
O6 O 0.2419(12) 1.052(2) 0.7517(19) 0.051(10) Uiso 1 1 d D . . . .
O7 O 0.3750(14) 0.8431(19) 0.767(2) 0.065(13) Uiso 1 1 d D . . . .
O8 O 0.3097(16) 0.8425(15) 0.9275(11) 0.044(9) Uiso 1 1 d D . . . .
O9 O 0.1975(7) 0.8454(12) 1.027(2) 0.037(8) Uiso 1 1 d D . . . .
O10 O 0.0932(18) 0.8341(14) 0.9152(14) 0.044(10) Uiso 1 1 d D . . . .
O11 O 0.1175(12) 0.8443(17) 0.729(2) 0.047(11) Uiso 1 1 d D . . . .
O12 O 0.2422(12) 0.8460(16) 0.763(2) 0.039(10) Uiso 1 1 d D . . . .
O13 O 0.304(2) 0.9499(6) 0.816(3) 0.075(11) Uiso 1 1 d D . . . .
O14 O 0.0803(16) 0.9489(6) 0.824(2) 0.041(9) Uiso 1 1 d D . . . .
O15 O 0.4160(15) 1.1241(11) 0.602(2) 0.036(9) Uiso 1 1 d D . . . .
O16 O 0.4092(16) 0.9979(11) 0.5829(18) 0.032(9) Uiso 1 1 d D . . . .
O17 O 0.4006(18) 0.8663(11) 0.5754(16) 0.044(10) Uiso 1 1 d D . . . .
O18 O 0.1883(14) 1.1304(9) 0.6167(16) 0.024(8) Uiso 1 1 d D . . . .
O19 O 0.1905(16) 1.0007(10) 0.5885(15) 0.024(7) Uiso 1 1 d D . . . .
O20 O 0.1945(19) 0.8705(11) 0.5817(16) 0.048(10) Uiso 1 1 d D . . . .
O21 O -0.0029(7) 1.0506(15) 0.7959(18) 0.030(8) Uiso 1 1 d D . . . .
O22 O -0.0053(8) 0.8510(13) 0.7920(18) 0.027(8) Uiso 1 1 d D . . . .
O23 O 0.422(3) 0.750000 0.647(3) 0.037(13) Uiso 1 2 d DS . P . .
O24 O 0.193(3) 0.750000 0.655(3) 0.045(13) Uiso 1 2 d DS . P . .
O25 O 0.283(2) 0.750000 1.055(2) 0.020(11) Uiso 1 2 d DS . P . .
O26 O 0.1118(18) 0.750000 1.055(2) 0.007(10) Uiso 1 2 d DS . P . .
loop_
_atom_type_symbol
_atom_type_description
_atom_type_scat_dispersion_real
_atom_type_scat_dispersion_imag
_atom_type_scat_source
O O 0.0000 0.0000 'International Tables Vol C Tables 4.2.6.8 and 6.1.1.4'
Si Si 0.0000 0.0000 'International Tables Vol C Tables 4.2.6.8 and 6.1.1.4'
loop_
_geom_angle_atom_site_label_1
_geom_angle_atom_site_label_2
_geom_angle_atom_site_label_3
_geom_angle
_geom_angle_site_symmetry_1
_geom_angle_site_symmetry_3
O1 Si1 O16 113.1(19) . .
O1 Si1 O15 109(2) . .
O16 Si1 O15 105.9(16) . .
O1 Si1 O21 109.9(14) . 6_657
O16 Si1 O21 110.6(17) . 6_657
O15 Si1 O21 108.3(16) . 6_657
O1 Si2 O6 111.6(18) . .
O1 Si2 O13 113(2) . .
O6 Si2 O13 106(2) . .
O1 Si2 O2 108.4(14) . .
O6 Si2 O2 108.4(18) . .
O13 Si2 O2 109.3(17) . .
O20 Si3 O2 108.1(14) 2_575 .
O20 Si3 O19 110.0(17) 2_575 2_575
O2 Si3 O19 107.9(15) . 2_575
O20 Si3 O3 111(2) 2_575 .
O2 Si3 O3 109.4(17) . .
O19 Si3 O3 110.5(18) 2_575 .
O4 Si4 O16 107.9(18) . 2_575
O4 Si4 O17 108.0(16) . 2_575
O16 Si4 O17 112.0(18) 2_575 2_575
O4 Si4 O3 110.9(18) . .
O16 Si4 O3 109.0(18) 2_575 .
O17 Si4 O3 109.1(19) 2_575 .
O4 Si5 O5 109.3(17) . .
O4 Si5 O21 107.6(18) . .
O5 Si5 O21 106.8(12) . .
O4 Si5 O14 110.2(17) . .
O5 Si5 O14 109.9(18) . .
O21 Si5 O14 113.0(18) . .
O6 Si6 O5 110.3(17) . .
O6 Si6 O19 110.5(19) . .
O5 Si6 O19 109.0(17) . .
O6 Si6 O18 111(2) . .
O5 Si6 O18 105.9(14) . .
O19 Si6 O18 110.4(15) . .
O22 Si7 O17 110.3(19) 6_657 .
O22 Si7 O7 106.1(17) 6_657 .
O17 Si7 O7 112.2(19) . .
O22 Si7 O23 111(2) 6_657 .
O17 Si7 O23 106.0(15) . .
O7 Si7 O23 111(2) . .
O12 Si8 O13 105(2) . .
O12 Si8 O7 115(2) . .
O13 Si8 O7 113(2) . .
O12 Si8 O8 108.5(18) . .
O13 Si8 O8 110.4(19) . .
O7 Si8 O8 104.5(15) . .
O8 Si9 O18 108.5(16) . 2_575
O8 Si9 O25 107.8(19) . .
O18 Si9 O25 109.2(14) 2_575 .
O8 Si9 O9 110.7(17) . .
O18 Si9 O9 111.9(16) 2_575 .
O25 Si9 O9 108.6(19) . .
O10 Si10 O15 112(2) . 2_575
O10 Si10 O26 106.2(18) . .
O15 Si10 O26 112.8(15) 2_575 .
O10 Si10 O9 108.7(19) . .
O15 Si10 O9 107.7(17) 2_575 .
O26 Si10 O9 109.2(18) . .
O10 Si11 O11 106.8(19) . .
O10 Si11 O22 109.9(18) . .
O11 Si11 O22 111.0(15) . .
O10 Si11 O14 110.5(17) . .
O11 Si11 O14 106.8(19) . .
O22 Si11 O14 111.8(17) . .
O12 Si12 O20 113.3(18) . .
O12 Si12 O11 107(2) . .
O20 Si12 O11 106.9(19) . .
O12 Si12 O24 109(2) . .
O20 Si12 O24 109.5(16) . .
O11 Si12 O24 111(2) . .
Si1 O1 Si2 152(2) . .
Si3 O2 Si2 152(2) . .
Si4 O3 Si3 174(2) . .
Si5 O4 Si4 154(2) . .
Si5 O5 Si6 146.3(19) . .
Si6 O6 Si2 162(2) . .
Si8 O7 Si7 153(2) . .
Si9 O8 Si8 152(2) . .
Si10 O9 Si9 153.9(18) . .
Si11 O10 Si10 158(2) . .
Si11 O11 Si12 154(2) . .
Si12 O12 Si8 163(2) . .
Si8 O13 Si2 173(3) . .
Si5 O14 Si11 164(2) . .
Si10 O15 Si1 153(2) 2_574 .
Si1 O16 Si4 163(2) . 2_574
Si4 O17 Si7 147.1(19) 2_574 .
Si9 O18 Si6 143.7(17) 2_574 .
Si3 O19 Si6 159(2) 2_574 .
Si12 O20 Si3 146.9(19) . 2_574
Si1 O21 Si5 148.1(18) 6_557 .
Si7 O22 Si11 152.1(18) 6_557 .
Si7 O23 Si7 153(3) 7_575 .
Si12 O24 Si12 153(3) . 7_575
Si9 O25 Si9 155(3) . 7_575
Si10 O26 Si10 149(2) . 7_575
loop_
_geom_bond_atom_site_label_1
_geom_bond_atom_site_label_2
_geom_bond_distance
_geom_bond_site_symmetry_2
Si1 O1 1.603(10) .
Si1 O16 1.607(10) .
Si1 O15 1.609(10) .
Si1 O21 1.613(10) 6_657
Si2 O1 1.606(10) .
Si2 O6 1.609(10) .
Si2 O13 1.610(9) .
Si2 O2 1.611(10) .
Si3 O20 1.605(10) 2_575
Si3 O2 1.607(10) .
Si3 O19 1.607(10) 2_575
Si3 O3 1.612(10) .
Si4 O4 1.604(10) .
Si4 O16 1.608(10) 2_575
Si4 O17 1.609(10) 2_575
Si4 O3 1.612(10) .
Si5 O4 1.597(10) .
Si5 O5 1.608(10) .
Si5 O21 1.613(10) .
Si5 O14 1.614(10) .
Si6 O6 1.609(10) .
Si6 O5 1.610(10) .
Si6 O19 1.611(9) .
Si6 O18 1.613(10) .
Si7 O22 1.607(10) 6_657
Si7 O17 1.609(10) .
Si7 O7 1.610(10) .
Si7 O23 1.613(9) .
Si8 O12 1.603(10) .
Si8 O13 1.606(9) .
Si8 O7 1.607(10) .
Si8 O8 1.609(10) .
Si9 O8 1.605(10) .
Si9 O18 1.607(10) 2_575
Si9 O25 1.610(9) .
Si9 O9 1.617(10) .
Si10 O10 1.602(10) .
Si10 O15 1.607(10) 2_575
Si10 O26 1.611(9) .
Si10 O9 1.616(10) .
Si11 O10 1.597(10) .
Si11 O11 1.604(10) .
Si11 O22 1.612(10) .
Si11 O14 1.616(10) .
Si12 O12 1.601(10) .
Si12 O20 1.605(10) .
Si12 O11 1.610(10) .
Si12 O24 1.612(9) .
