#------------------------------------------------------------------------------
#$Date: 2018-01-11 12:53:52 +0200 (Thu, 11 Jan 2018) $
#$Revision: 205069 $
#$URL: file:///home/coder/svn-repositories/cod/cif/1/54/86/1548625.cif $
#------------------------------------------------------------------------------
#
# This file is available in the Crystallography Open Database (COD),
# http://www.crystallography.net/
#
# All data on this site have been placed in the public domain by the
# contributors.
#
data_1548625
loop_
_publ_author_name
'Gruene, T.'
'Teng, Li.'
'Van Genderen, E.'
'Pinar, A. B.'
'Van Bokhoven, J. A.'
_publ_section_title
;
 Characterization at the level of individual crystals: single crystal MFI
 type zeolite grains
;
_journal_name_full               'Chemistry - A European Journal'
_journal_paper_doi               10.1002/chem.201704213
_journal_year                    2017
_chemical_formula_sum            'O24 Si12'
_chemical_formula_weight         721.20
_space_group_crystal_system      orthorhombic
_space_group_IT_number           62
_space_group_name_Hall           '-P 2ac 2n'
_space_group_name_H-M_alt        'P n m a'
_symmetry_space_group_name_Hall  '-P 2ac 2n'
_symmetry_space_group_name_H-M   'P n m a'
_atom_sites_solution_hydrogens   .
_audit_creation_method           SHELXL-2016/6
_cell_angle_alpha                90
_cell_angle_beta                 90
_cell_angle_gamma                90
_cell_formula_units_Z            8
_cell_length_a                   20.135(4)
_cell_length_b                   20.016(4)
_cell_length_c                   13.532(3)
_cell_measurement_temperature    293(2)
_cell_volume                     5454(2)
_computing_structure_refinement  'SHELXL-2016/6 (Sheldrick, 2016)'
_computing_structure_solution    'SHELXT 2014/5 (Sheldrick, 2014)'
_diffrn_ambient_temperature      293(2)
_diffrn_measured_fraction_theta_full 0.729
_diffrn_measured_fraction_theta_max 0.729
_diffrn_radiation_wavelength     0.02508
_diffrn_reflns_av_R_equivalents  0.2830
_diffrn_reflns_av_unetI/netI     0.2586
_diffrn_reflns_Laue_measured_fraction_full 0.729
_diffrn_reflns_Laue_measured_fraction_max 0.729
_diffrn_reflns_limit_h_max       17
_diffrn_reflns_limit_h_min       -17
_diffrn_reflns_limit_k_max       18
_diffrn_reflns_limit_k_min       -18
_diffrn_reflns_limit_l_max       11
_diffrn_reflns_limit_l_min       -11
_diffrn_reflns_number            5406
_diffrn_reflns_point_group_measured_fraction_full 0.729
_diffrn_reflns_point_group_measured_fraction_max 0.729
_diffrn_reflns_theta_full        0.685
_diffrn_reflns_theta_max         0.685
_diffrn_reflns_theta_min         0.064
_exptl_absorpt_coefficient_mu    0.281
_exptl_crystal_density_diffrn    1.757
_exptl_crystal_F_000             940
_refine_diff_density_max         0.319
_refine_diff_density_min         -0.208
_refine_diff_density_rms         0.078
_refine_ls_extinction_coef       .
_refine_ls_extinction_method     none
_refine_ls_goodness_of_fit_ref   1.201
_refine_ls_hydrogen_treatment    undef
_refine_ls_matrix_type           full
_refine_ls_number_parameters     149
_refine_ls_number_reflns         1873
_refine_ls_number_restraints     48
_refine_ls_restrained_S_all      1.191
_refine_ls_R_factor_all          0.3666
_refine_ls_R_factor_gt           0.1998
_refine_ls_shift/su_max          2.035
_refine_ls_shift/su_mean         0.081
_refine_ls_structure_factor_coef Fsqd
_refine_ls_weighting_details
'w=1/[\s^2^(Fo^2^)+(0.2000P)^2^] where P=(Fo^2^+2Fc^2^)/3'
_refine_ls_weighting_scheme      calc
_refine_ls_wR_factor_gt          0.4455
_refine_ls_wR_factor_ref         0.5260
_reflns_Friedel_coverage         0.000
_reflns_Friedel_fraction_full    .
_reflns_Friedel_fraction_max     .
_reflns_number_gt                588
_reflns_number_total             1873
_reflns_threshold_expression     'I > 2\s(I)'
_cod_data_source_file            zsm5_ChemEurJ.cif
_cod_data_source_block           z2b
_cod_original_cell_volume        5453.7(19)
_cod_database_code               1548625
_shelx_shelxl_version_number     2016/6
_shelx_space_group_comment
;
The symmetry employed for this shelxl refinement is uniquely defined
by the following loop, which should always be used as a source of
symmetry information in preference to the above space-group names.
They are only intended as comments.
;
_shelx_res_file
;
TITL 03_a.res in Pnma
    z2b.res
    created by SHELXL-2016/6 at 11:17:22 on 31-Oct-2017
REM Old TITL 03 in P222

REM SHELXT solution in Pnma
REM R1 0.374,  Rweak 0.031,  Alpha 0.156,  Orientation a'=b, b'=a, c'=-c
REM Formula found by SHELXT:  O2 Si

CELL  0.02508  20.1350  20.0160  13.5320   90.000   90.000   90.000
ZERR    8.000   0.0040   0.0040   0.0027    0.000    0.000    0.000
LATT  1
SYMM 1/2-X, -Y, 1/2+Z
SYMM -X, 1/2+Y, -Z
SYMM 1/2+X, 1/2-Y, 1/2-Z
SFAC O  0.237  0.799  0.649  3.654  0.800 10.924  0.261 29.964  0.035 =
   0.0 0.0 18.200 0.660 16.00
SFAC Si  0.543  0.995  1.112  6.061  2.706 23.751  1.394 71.925  0.071 =
   0.0 0.0 123.000 1.110 28.100
UNIT 192 96
ACTA
L.S. 20
XNPD 0.01
ISOR $O
RIGU
LIST 4
FMAP 2
EQIV $1   x-1/2, y, -z+3/2
EQIV $2   -x+1/2, -y+2, z-1/2
EQIV $3   x, -y+3/2, z
EQIV $4   -x+1/2, -y+2, z+1/2
EQIV $5   x+1/2, y, -z+3/2

DFIX 1.609 0.01 Si1  O1 Si1 O21_$5 Si1 O16 Si1 O15
DFIX 1.609 0.01 Si2  O2 Si2 O13 Si2 O6 Si2 O1
DFIX 1.609 0.01 Si3  O20_$4 Si3 O19_$4 Si3 O2 Si3 O3
DFIX 1.609 0.01 Si4  O4 Si4 O16_$4 Si4 O3 Si4 O17_$4
DFIX 1.609 0.01 Si5  O4 Si5 O5 Si5 O14 Si5 O21
DFIX 1.609 0.01 Si6  O19 Si6 O6 Si6 O5 Si6 O18
DFIX 1.609 0.01 Si7  O23 Si7 O17 Si7 O7 Si7 O22_$5
DFIX 1.609 0.01 Si8  O13 Si8 O8 Si8 O12 Si8 O7
DFIX 1.609 0.01 Si9  O18_$4 Si9 O8 Si9 O25 Si9 O9
DFIX 1.609 0.01 Si10 O15_$4 Si10 O26 Si10 O10 Si10 O9
DFIX 1.609 0.01 Si11 O10 Si11 O14 Si11 O11 Si11 O22
DFIX 1.609 0.01 Si12 O20 Si12 O24 Si12 O11 Si12 O12

PLAN 20
WGHT    0.200000
FVAR       0.44160
SI1   2    0.422316    1.057286    0.664963    11.00000    0.01571
SI2   2    0.308312    1.029163    0.809236    11.00000    0.01000
SI3   2    0.280414    1.062976    1.030894    11.00000    0.01101
SI4   2    0.121353    1.064005    1.027061    11.00000    0.01000
SI5   2    0.071973    1.028022    0.817170    11.00000    0.01000
SI6   2    0.185272    1.060014    0.669724    11.00000    0.01000
SI7   2    0.422797    0.828269    0.673389    11.00000    0.01000
SI8   2    0.309127    0.870651    0.814261    11.00000    0.01217
SI9   2    0.275528    0.827571    1.030433    11.00000    0.01000
SI10  2    0.119811    0.827581    1.028005    11.00000    0.01000
SI11  2    0.070238    0.869854    0.816800    11.00000    0.01000
SI12  2    0.186905    0.828320    0.681729    11.00000    0.01342
O1    1    0.371499    1.062694    0.756294    11.00000    0.04963
O2    1    0.303578    1.061557    0.917464    11.00000    0.05382
O3    1    0.200829    1.059717    1.034891    11.00000    0.10197
O4    1    0.093116    1.065101    0.916809    11.00000    0.03026
O5    1    0.114224    1.052904    0.723167    11.00000    0.02996
O6    1    0.241471    1.050440    0.752825    11.00000    0.06411
O7    1    0.376159    0.840712    0.767869    11.00000    0.06191
O8    1    0.310894    0.845107    0.926871    11.00000    0.04063
O9    1    0.197729    0.846279    1.027009    11.00000    0.03641
O10   1    0.089522    0.835180    0.919136    11.00000    0.05944
O11   1    0.114571    0.843747    0.726051    11.00000    0.03304
O12   1    0.242755    0.844727    0.761688    11.00000    0.03491
O13   1    0.302351    0.949786    0.810820    11.00000    0.05791
O14   1    0.079408    0.948803    0.829775    11.00000    0.02267
O15   1    0.419112    1.127424    0.606879    11.00000    0.03714
O16   1    0.407430    0.999629    0.585395    11.00000    0.02631
O17   1    0.398291    0.865442    0.574994    11.00000    0.02244
O18   1    0.188595    1.132612    0.618917    11.00000    0.02015
O19   1    0.192231    1.000749    0.590481    11.00000    0.04496
O20   1    0.195589    0.868189    0.579575    11.00000    0.02449
O21   1   -0.003875    1.046775    0.792327    11.00000    0.02210
O22   1   -0.005139    0.851587    0.789853    11.00000    0.03036
O23   1    0.420866    0.750000    0.646637    10.50000    0.01000
O24   1    0.189550    0.750000    0.657279    10.50000    0.01735
O25   1    0.290294    0.750000    1.052356    10.50000    0.06058
O26   1    0.113826    0.750000    1.057132    10.50000    0.01000
HKLF 4




REM  03_a.res in Pnma
REM R1 =  0.1998 for     588 Fo > 4sig(Fo)  and  0.3666 for all    1873 data
REM    149 parameters refined using     48 restraints

END

WGHT      0.2000      0.0000

REM Highest difference peak  0.319,  deepest hole -0.208,  1-sigma level  0.078
Q1    1   0.0664  0.7500  0.4883  10.50000  0.05    0.32
Q2    1   0.1440  0.7500  0.3565  10.50000  0.05    0.30
Q3    1   0.3016  0.7500  0.3717  10.50000  0.05    0.29
Q4    1   0.0790  0.7500  0.4002  10.50000  0.05    0.28
Q5    1  -0.0041  0.7500  0.6939  10.50000  0.05    0.26
Q6    1   0.4180  0.7500  0.9035  10.50000  0.05    0.26
Q7    1   0.1967  0.7500  1.2879  10.50000  0.05    0.26
Q8    1   0.2430  0.7500  1.3242  10.50000  0.05    0.26
Q9    1   0.1201  0.7500  0.5806  10.50000  0.05    0.25
Q10   1   0.1412  1.2500  0.8172  10.50000  0.05    0.24
Q11   1   0.0659  0.7500  0.6492  10.50000  0.05    0.24
Q12   1   0.4512  1.1885  0.9166  11.00000  0.05    0.23
Q13   1   0.0195  0.8080  0.4577  11.00000  0.05    0.23
Q14   1   0.1981  0.7916  0.4960  11.00000  0.05    0.23
Q15   1   0.5327  1.2500  0.7611  10.50000  0.05    0.23
Q16   1   0.4578  0.7500  0.9428  10.50000  0.05    0.23
Q17   1   0.1641  0.7500  0.4473  10.50000  0.05    0.22
Q18   1   0.1978  0.7500  0.8797  10.50000  0.05    0.22
Q19   1   0.3921  0.7500  1.2109  10.50000  0.05    0.22
Q20   1   0.0752  1.2500  0.7770  10.50000  0.05    0.22
;
_shelx_res_checksum              27292
_shelx_hkl_file
;
   1   0   1  630.76   42.07
  -2   0  -2  582.81   40.46
   2   0   2  481.55   35.78
  -3   0  -5 1053.21   69.66
   3   0   5 1050.08   68.85
  -3   0  -4   44.52   21.86
   3   0   4   37.52   21.28
  -3   0  -3 6631.06  397.91
   3   0   3 5917.32  355.53
  -3   0  -2   -0.65   19.16
   3   0   2  -29.22   21.12
   4   0   7   77.69   22.13
  -4   0  -6   50.12   21.19
   4   0   6   54.78   21.35
  -4   0  -5   53.08   20.16
   4   0   5    0.67   20.59
  -4   0  -4 1006.59   65.33
   4   0   4  902.21   59.51
  -4   0  -3 1074.62   69.12
   4   0   3 1251.94   79.80
  -4   0  -2  135.61   22.93
   4   0   2   94.37   23.93
   5   0   9 1199.75   80.01
  -5   0  -8  -11.60   19.58
   5   0   8   -2.14   19.34
  -5   0  -7   10.75   19.03
   5   0   7   21.10   18.42
  -5   0  -6   62.81   19.76
   5   0   6   19.87   20.25
  -5   0  -5  881.69   58.66
   5   0   5  854.48   57.39
  -5   0  -4   87.97   21.23
   5   0   4   58.19   19.20
  -5   0  -3 2509.23  153.27
   5   0   3 2295.11  140.85
  -5   0  -2   89.37   22.22
   5   0   2   49.63   22.71
  -6   0 -10   43.83   23.26
   6   0  10   49.43   23.98
  -6   0  -9  473.07   37.58
   6   0   9  355.31   31.69
  -6   0  -8    9.37   17.82
   6   0   8   39.86   18.29
  -6   0  -7   48.49   18.76
   6   0   7  118.88   20.21
  -6   0  -6  447.87   35.04
   6   0   6  502.07   37.94
  -6   0  -5  272.56   27.57
   6   0   5  253.82   27.66
  -6   0  -4   -0.20   20.63
   6   0   4  -46.82   19.87
  -6   0  -3  453.45   35.95
   6   0   3  407.72   33.50
  -7   0 -11   18.02   24.45
   7   0  11   -0.96   23.44
  -7   0 -10   50.47   20.83
   7   0  10   43.05   21.81
  -7   0  -9   68.41   19.76
   7   0   9   45.39   19.16
  -7   0  -8   19.43   18.13
   7   0   8   56.30   18.38
  -7   0  -7   11.42   17.75
   7   0   7   30.16   18.31
  -7   0  -6  351.74   30.76
   7   0   6  451.22   35.49
  -7   0  -5   19.14   19.96
   7   0   5    3.93   20.59
  -7   0  -4  119.24   22.62
   7   0   4  137.51   23.33
  -8   0 -11    2.28   21.21
   8   0  11  -14.03   21.03
  -8   0 -10  112.39   23.08
   8   0  10   82.08   22.79
  -8   0  -9   22.91   18.53
   8   0   9   25.90   19.76
  -8   0  -8  842.88   56.88
   8   0   8  840.87   57.05
  -8   0  -7  -43.18   17.35
   8   0   7  -10.42   18.38
  -8   0  -5  234.19   25.78
   8   0   5  328.32   30.11
  -8   0  -4 2877.25  175.94
   8   0   4 3055.68  186.87
  -9   0 -11   14.90   20.05
   9   0  11  -13.11   19.54
  -9   0 -10   52.86   21.81
   9   0  10   25.49   22.35
  -9   0  -9   67.65   20.21
   9   0   9   56.83   21.46
  -9   0  -8   13.67   18.04
   9   0   8   10.10   17.93
  -9   0  -7    6.69   17.71
   9   0   7   -4.44   17.91
  -9   0  -6  196.26   23.00
   9   0   6  230.18   25.34
  -9   0  -5   79.98   19.52
   9   0   5   81.23   21.23
  -9   0  -4   40.82   20.25
   9   0   4   45.88   20.68
 -10   0 -11    9.41   20.43
 -10   0 -10  143.80   24.16
  10   0  10  144.55   25.07
 -10   0  -9   34.57   21.03
  10   0   9    9.99   21.19
 -10   0  -8  421.10   34.26
  10   0   8  393.67   33.57
 -10   0  -7   -1.09   17.55
  10   0   7   31.56   18.22
 -10   0  -6  -20.54   18.78
  10   0   6   32.97   19.32
 -10   0  -5    5.31   18.00
  10   0   5   15.55   18.69
 -10   0  -4   38.92   18.89
 -11   0 -10   49.52   20.36
  11   0  10   71.86   21.70
 -11   0  -9  -21.26   21.68
  11   0   9   20.63   22.95
 -11   0  -8   12.36   19.76
  11   0   8   32.50   21.01
 -11   0  -7   35.80   18.62
  11   0   7   25.63   19.81
 -11   0  -6  301.33   28.33
  11   0   6  338.80   30.67
 -11   0  -5  -15.21   17.98
  11   0   5   49.18   19.07
 -12   0 -10   -8.25   18.36
  12   0  10   -9.35   19.52
 -12   0  -9   54.27   21.08
  12   0   9   16.75   22.04
 -12   0  -8  113.86   22.75
  12   0   8  121.58   24.24
 -12   0  -7  231.74   25.90
  12   0   7  231.96   26.92
 -12   0  -6    9.28   19.14
  12   0   6   23.24   19.85
 -12   0  -5  319.40   29.62
  12   0   5  250.92   27.10
 -13   0  -9   27.03   19.36
  13   0   9   34.55   21.30
 -13   0  -8   26.01   20.79
  13   0   8   30.33   22.59
 -13   0  -7  232.19   28.08
  13   0   7  334.79   32.68
 -13   0  -6   15.55   19.32
  13   0   6   57.21   21.19
 -13   0  -5  258.51   28.39
 -14   0  -8   46.06   20.12
  14   0   8   -7.49   21.64
 -14   0  -7   76.68   22.82
  14   0   7   73.36   23.62
 -14   0  -6  132.89   23.82
  14   0   6  125.60   22.19
 -15   0  -8   19.38   20.14
  15   0   8   -8.34   20.23
 -15   0  -7   51.97   21.23
  15   0   7   52.08   21.77
 -15   0  -6   49.25   20.43
 -16   0  -7  -11.40   20.43
  16   0   7   -4.84   19.49
  16  -1   6    6.65   22.08
 -16   1  -6   -2.25   21.97
  16  -1   7   27.48   21.86
 -16   1  -7    7.72   20.85
  15  -1   6   16.82   23.33
 -15   1  -6   30.71   22.59
  15  -1   7  -11.84   21.57
 -15   1  -7  -56.45   22.55
 -15   1  -8   21.23   20.74
 -14   1  -5   33.12   19.03
  14  -1   6   -2.90   21.93
 -14   1  -6    9.57   21.95
  14  -1   7   -1.83   22.95
 -14   1  -7   25.00   22.91
  14  -1   8   15.30   21.23
 -14   1  -8   15.35   20.27
  13  -1   5  -20.90   19.14
 -13   1  -5   -2.23   19.52
  13  -1   6  159.90   25.43
 -13   1  -6  229.51   27.48
  13  -1   7   51.88   22.75
 -13   1  -7  -12.13   21.61
  13  -1   8   36.87   23.00
 -13   1  -8   58.37   22.28
  13  -1   9    3.08   20.48
 -13   1  -9   -3.93   19.23
 -12   1  -4   24.91   20.85
  12  -1   5   -9.79   19.38
 -12   1  -5    8.48   19.67
  12  -1   6   15.72   20.81
 -12   1  -6    5.20   20.14
  12  -1   7   33.23   21.17
 -12   1  -7   50.92   20.83
  12  -1   8   25.65   22.13
 -12   1  -8   12.76   21.75
  12  -1   9  -22.95   22.50
 -12   1  -9   37.69   21.86
  11  -1   4   14.74   20.12
 -11   1  -4  -10.48   19.72
  11  -1   5    4.24   18.96
 -11   1  -5    0.13   18.85
  11  -1   6   12.51   19.40
 -11   1  -6   19.76   19.45
  11  -1   7   19.81   20.07
 -11   1  -7    5.64   19.09
  11  -1   8   15.75   21.43
 -11   1  -8   33.92   20.83
  11  -1   9   31.36   23.31
 -11   1  -9   16.06   22.08
  11  -1  10  -24.11   21.66
 -11   1 -10    2.14   20.10
  10  -1   4   15.19   20.92
 -10   1  -4  -27.43   20.23
  10  -1   5   30.65   19.67
 -10   1  -5  -19.65   18.71
  10  -1   6   23.82   18.80
 -10   1  -6   19.23   18.58
  10  -1   7    8.81   19.23
 -10   1  -7    4.42   18.71
  10  -1   8    6.02   20.14
 -10   1  -8  -13.61   19.27
  10  -1   9   41.02   22.44
 -10   1  -9   96.76   22.86
  10  -1  10    4.15   21.61
 -10   1 -10   32.79   22.04
   9  -1   3    2.21   22.08
  -9   1  -3   26.68   22.30
   9  -1   4   27.70   20.92
  -9   1  -4    3.30   21.30
   9  -1   5   15.57   20.81
  -9   1  -5  -32.97   18.60
   9  -1   6  -12.42   19.07
  -9   1  -6  -19.40   17.78
   9  -1   7   -5.75   18.80
  -9   1  -7  -10.37   18.47
   9  -1   8  -11.69   19.47
  -9   1  -8    5.40   18.71
   9  -1   9    0.33   20.90
  -9   1  -9   -7.12   20.74
   9  -1  10    2.30   23.26
  -9   1 -10  -18.74   22.26
   9  -1  11  -11.55   20.48
  -9   1 -11  -22.44   19.45
   8  -1   3   30.87   22.88
  -8   1  -3   49.05   22.30
   8  -1   4  -13.67   22.50
  -8   1  -4   -2.79   21.46
   8  -1   5  109.54   22.19
  -8   1  -5  110.00   22.04
   8  -1   6   47.78   19.96
  -8   1  -6   22.93   19.29
   8  -1   7  317.61   29.51
  -8   1  -7  352.41   30.96
   8  -1   8  -21.57   18.20
  -8   1  -8    5.33   18.91
   8  -1   9   25.58   19.87
  -8   1  -9  -15.90   19.58
   8  -1  10   30.00   22.75
  -8   1 -10   34.08   22.73
   8  -1  11  -22.37   21.43
  -8   1 -11   -6.18   21.26
   7  -1   3  -20.32   21.48
  -7   1  -3   32.56   22.37
   7  -1   4   36.74   21.64
  -7   1  -4   14.50   21.79
   7  -1   5   25.32   22.59
  -7   1  -5    1.32   20.56
   7  -1   6  -19.67   20.12
  -7   1  -6   22.86   20.03
   7  -1   7  -17.51   18.74
  -7   1  -7    6.00   18.60
   7  -1   8    9.93   19.27
  -7   1  -8    9.61   18.16
   7  -1   9  -10.46   18.87
  -7   1  -9   -0.33   18.16
   7  -1  10   26.45   22.42
  -7   1 -10   -6.74   21.77
   7  -1  11   41.13   24.00
  -7   1 -11   19.67   24.40
   6  -1   2  113.86   24.29
  -6   1  -2   46.26   22.44
   6  -1   3    7.94   21.37
  -6   1  -3  -40.50   21.10
   6  -1   4   45.50   21.61
  -6   1  -4   -7.81   21.32
   6  -1   5   30.78   22.75
  -6   1  -5   37.32   21.95
   6  -1   6   36.65   21.23
  -6   1  -6  -12.78   19.98
   6  -1   7   17.31   19.29
  -6   1  -7   -7.18   18.96
   6  -1   8  -13.07   19.49
  -6   1  -8    5.09   19.23
   6  -1   9   18.33   19.54
  -6   1  -9    7.63   19.27
   6  -1  10  -22.66   22.75
  -6   1 -10   22.55   23.42
   6  -1  11   35.58   25.67
   5  -1   2  332.56   32.63
  -5   1  -2  334.12   32.48
   5  -1   3  -46.93   22.66
  -5   1  -3  -29.35   21.93
   5  -1   4  294.86   29.13
  -5   1  -4  306.91   29.87
   5  -1   5   -8.77   21.61
  -5   1  -5   23.35   21.86
   5  -1   6   16.33   21.52
  -5   1  -6    4.15   21.26
   5  -1   7   -4.01   20.30
  -5   1  -7   15.55   19.65
   5  -1   8   12.85   20.48
  -5   1  -8   37.92   21.39
   5  -1   9   -3.59   20.77
   4  -1   1   63.77   24.09
  -4   1  -1  -10.08   27.72
   4  -1   2   74.94   25.05
  -4   1  -2   52.08   24.22
   4  -1   3  -40.88   24.16
  -4   1  -3    1.70   21.81
   4  -1   4  -14.56   20.56
  -4   1  -4   10.22   21.55
   4  -1   5   26.03   21.10
  -4   1  -5  -34.30   22.37
   4  -1   6   47.84   23.20
  -4   1  -6  115.27   24.49
   4  -1   7    0.16   22.64
  -4   1  -7   -2.90   24.27
   3  -1   1  -10.88   24.31
  -3   1  -1   18.31   21.70
   3  -1   2  480.88   38.76
   3  -1   3   25.00   24.27
  -3   1  -3    7.12   23.15
   3  -1   4  281.26   29.64
  -3   1  -4  267.43   28.10
   3  -1   5   10.33   23.22
  -3   1  -5   13.52   24.67
   2  -1   1   47.13   23.73
  -2   1  -1   72.87   21.61
   2  -1   2   35.80   23.13
   2  -1   3   46.86   25.40
  -2   1  -3   45.03   23.98
   1  -1   0  622.96   43.69
   1  -1   1  178.61   24.80
  -1   1  -1  226.17   26.12
  -2  -1  -3   54.33   18.09
   2   1   3   98.76   19.47
  -2  -1  -2   30.71   15.01
   2   1   2   20.36   15.52
  -3  -1  -5   12.65   21.14
   3   1   5   10.42   20.90
  -3  -1  -4  259.40   25.09
   3   1   4  253.15   24.98
  -3  -1  -3   -3.59   17.33
   3   1   3    9.41   18.78
  -3  -1  -2  501.85   35.24
   3   1   2  512.11   36.29
   4   1   7   -3.68   18.94
  -4  -1  -5  -17.02   18.82
   4   1   5  -16.37   18.16
  -4  -1  -4   -5.00   17.80
   4   1   4    4.71   18.20
  -4  -1  -3  -13.07   17.80
   4   1   3  -32.74   18.89
  -5  -1  -8   -8.48   19.11
   5   1   8   11.49   18.40
  -5  -1  -7  -24.58   17.24
   5   1   7   11.44   17.44
  -5  -1  -6   -7.69   17.49
   5   1   6  -11.69   18.16
  -5  -1  -5   22.95   18.65
   5   1   5   32.56   18.53
  -5  -1  -4  295.09   26.41
   5   1   4  233.30   23.98
  -5  -1  -3   -4.28   19.34
   5   1   3  -10.04   19.32
  -6  -1 -10   32.32   22.37
   6   1  10   20.07   20.81
  -6  -1  -9   30.18   17.82
   6   1   9    3.55   17.58
  -6  -1  -8    2.10   16.93
   6   1   8  -23.75   17.06
  -6  -1  -7  -19.67   16.33
   6   1   7   19.87   17.38
  -6  -1  -6  -38.92   17.66
   6   1   6   10.88   17.95
  -6  -1  -5   37.83   18.91
   6   1   5   28.86   18.47
  -6  -1  -4  -16.84   18.74
   6   1   4  -10.75   19.43
  -6  -1  -3   31.78   19.34
  -7  -1 -11   14.27   22.55
   7   1  11  -16.04   21.88
  -7  -1 -10  -27.99   20.97
   7   1  10   29.00   20.23
  -7  -1  -9  -12.42   17.42
   7   1   9    8.25   18.49
  -7  -1  -8   39.99   16.93
   7   1   8   49.65   17.71
  -7  -1  -7   -0.40   17.11
   7   1   7  -16.62   17.38
  -7  -1  -6   10.48   17.62
   7   1   6   54.11   18.45
  -7  -1  -5   13.27   18.13
   7   1   5   26.48   19.63
  -7  -1  -4    6.80   19.16
   7   1   4   37.83   19.72
  -8  -1 -11   40.77   20.19
   8   1  11  -13.54   19.47
  -8  -1 -10   40.21   20.79
   8   1  10   -1.70   20.48
  -8  -1  -9   46.62   18.33
   8   1   9   49.34   19.87
  -8  -1  -8   21.01   17.35
   8   1   8   -8.39   16.95
  -8  -1  -7  278.36   25.78
   8   1   7  325.87   28.37
  -8  -1  -6   19.94   17.26
   8   1   6   13.34   17.87
  -8  -1  -5   77.06   19.03
   8   1   5   56.97   18.76
  -8  -1  -4  -22.66   19.54
   8   1   4   -7.25   18.98
  -9  -1 -11   -8.81   18.20
   9   1  11  -21.06   18.47
  -9  -1 -10   17.13   19.94
   9   1  10  -26.72   21.12
  -9  -1  -9   -3.75   18.65
   9   1   9    1.18   20.34
  -9  -1  -8    1.00   17.55
   9   1   8  -16.42   17.91
  -9  -1  -7   10.28   16.88
   9   1   7   19.85   17.17
  -9  -1  -6  -10.95   16.33
   9   1   6   -8.36   17.42
  -9  -1  -5   13.36   18.09
   9   1   5   23.62   18.91
  10   1  11   -1.76   19.98
 -10  -1 -10   27.17   20.25
  10   1  10   30.85   21.35
 -10  -1  -9   32.90   20.05
  10   1   9   91.89   22.71
 -10  -1  -8   12.96   17.84
  10   1   8   -2.34   19.03
 -10  -1  -7   -2.30   16.97
  10   1   7   24.04   17.42
 -10  -1  -6  -38.12   17.98
  10   1   6  -28.26   18.51
 -10  -1  -5  -31.05   17.55
  10   1   5  -22.59   18.16
 -11  -1 -10    2.52   19.20
  11   1  10  -18.91   19.74
 -11  -1  -9   32.07   21.14
  11   1   9   42.33   21.19
 -11  -1  -8  -16.04   18.78
  11   1   8   20.03   20.14
 -11  -1  -7   -8.88   17.31
  11   1   7    0.45   18.09
 -11  -1  -6   -3.68   17.09
  11   1   6   16.48   18.13
 -11  -1  -5    3.79   16.82
 -12  -1 -10    8.45   18.85
  12   1  10  -27.79   19.65
 -12  -1  -9    6.60   19.90
  12   1   9   -9.55   21.35
 -12  -1  -8   10.44   19.81
  12   1   8  -24.33   20.59
 -12  -1  -7   78.40   20.41
  12   1   7   39.43   20.10
 -12  -1  -6    6.69   17.58
  12   1   6   30.38   19.72
 -13  -1  -9   26.54   19.25
  13   1   9  -26.48   18.74
 -13  -1  -8   36.47   21.12
  13   1   8   46.86   22.44
 -13  -1  -7   32.61   20.39
  13   1   7    3.32   20.85
 -13  -1  -6  170.27   22.84
  13   1   6  160.99   23.31
 -14  -1  -8  -14.43   18.94
  14   1   8    1.16   20.92
 -14  -1  -7   10.80   20.59
  14   1   7   30.60   22.08
 -14  -1  -6   22.10   20.12
 -15  -1  -8   26.45   19.18
  15   1   8  -28.33   20.65
 -15  -1  -7  -12.98   19.90
  15   1   7  -45.12   19.52
 -16  -1  -7  -10.35   18.45
 -16   2  -5    5.31   23.08
  16  -2   6   41.84   22.95
 -16   2  -6  -37.60   22.86
  15  -2   5   43.09   23.24
 -15   2  -5   46.37   23.15
  15  -2   6   23.71   24.13
 -15   2  -6  -14.65   23.02
  15  -2   7   35.73   23.04
 -15   2  -7  -14.72   22.08
  14  -2   5  -34.93   21.57
 -14   2  -5  -39.68   20.94
  14  -2   6   -2.03   22.97
 -14   2  -6    3.75   22.48
  14  -2   7   44.76   23.93
 -14   2  -7   14.52   23.15
  14  -2   8   -6.20   22.15
 -14   2  -8  -38.94   21.03
 -13   2  -4   -7.54   19.63
  13  -2   5   49.47   21.61
 -13   2  -5   24.85   21.72
  13  -2   6    9.19   21.32
 -13   2  -6   -6.02   20.16
  13  -2   7   25.38   23.24
 -13   2  -7   24.67   22.53
  13  -2   8   43.74   24.11
 -13   2  -8    8.25   22.79
  13  -2   9  -13.34   21.41
 -13   2  -9   37.27   20.63
  12  -2   4   44.54   20.70
 -12   2  -4    7.00   20.52
  12  -2   5   16.19   20.14
 -12   2  -5   66.22   20.81
  12  -2   6    3.30   20.56
 -12   2  -6   -2.83   20.10
  12  -2   7   19.69   22.57
 -12   2  -7   17.64   21.75
  12  -2   8   36.89   23.44
 -12   2  -8   14.32   22.46
  12  -2   9   21.03   22.71
 -12   2  -9   38.45   21.72
  11  -2   4  -14.21   20.54
 -11   2  -4    2.19   19.90
  11  -2   5    5.40   19.49
 -11   2  -5  -14.61   19.63
  11  -2   6    1.05   20.59
 -11   2  -6   26.70   20.14
  11  -2   7   41.42   21.88
 -11   2  -7  -25.16   21.08
  11  -2   8  -20.65   21.59
 -11   2  -8   -2.16   20.77
  11  -2   9  -48.27   22.77
 -11   2  -9   21.81   22.84
  11  -2  10  -22.82   20.81
 -11   2 -10   -3.99   20.32
  10  -2   4   -0.96   21.35
 -10   2  -4   24.42   21.01
  10  -2   5   38.92   20.30
 -10   2  -5    2.83   19.47
  10  -2   6  -59.44   19.36
 -10   2  -6  -14.77   19.20
  10  -2   7   12.27   19.54
 -10   2  -7  -34.15   20.79
  10  -2   8   20.16   20.94
 -10   2  -8   52.17   20.85
  10  -2   9    6.56   22.35
 -10   2  -9   20.50   22.88
  10  -2  10   53.75   23.91
 -10   2 -10   15.90   22.33
   9  -2   3   -2.97   22.57
  -9   2  -3   15.32   23.73
   9  -2   4  325.42   31.14
  -9   2  -4  331.22   32.59
   9  -2   5   12.62   21.03
  -9   2  -5    0.54   19.96
   9  -2   6   69.75   20.70
  -9   2  -6   78.89   20.48
   9  -2   7  -11.55   19.45
  -9   2  -7  -33.03   19.67
   9  -2   8  -41.60   19.98
  -9   2  -8  -18.20   19.45
   9  -2   9   -7.16   21.84
  -9   2  -9    6.38   21.23
   9  -2  10   21.52   22.82
  -9   2 -10   22.59   22.15
   9  -2  11   51.46   20.83
  -9   2 -11    4.91   20.41
   8  -2   2   40.35   23.71
  -8   2  -2   -1.41   22.75
   8  -2   3   18.33   22.82
  -8   2  -3   41.84   23.35
   8  -2   4   84.53   24.13
  -8   2  -4  116.38   24.29
   8  -2   5  -36.18   21.06
  -8   2  -5  -24.42   21.19
   8  -2   6   84.51   21.23
  -8   2  -6   44.74   20.43
   8  -2   7   26.05   19.67
  -8   2  -7   16.17   19.23
   8  -2   8  158.23   23.84
  -8   2  -8  157.74   23.55
   8  -2   9   -4.66   20.39
  -8   2  -9    0.49   19.69
   8  -2  10   -5.13   22.75
  -8   2 -10   16.73   23.20
   8  -2  11  -16.91   22.84
  -8   2 -11   39.05   21.99
   7  -2   2   10.95   22.93
  -7   2  -2   20.23   21.90
   7  -2   3   16.28   22.28
  -7   2  -3   76.84   24.09
   7  -2   4  109.63   24.62
  -7   2  -4   76.12   23.51
   7  -2   5   16.42   21.66
  -7   2  -5   25.03   22.10
   7  -2   6  -12.04   21.08
  -7   2  -6   34.55   20.56
   7  -2   7  -37.72   19.56
  -7   2  -7   -9.32   18.45
   7  -2   8   18.94   19.27
  -7   2  -8   30.69   19.40
   7  -2   9   53.13   21.12
  -7   2  -9   44.16   20.48
   7  -2  10   16.13   22.44
  -7   2 -10   20.83   23.55
   7  -2  11   -0.83   24.98
  -7   2 -11   36.51   25.23
   6  -2   2   18.67   23.93
   6  -2   3   -0.33   21.99
  -6   2  -3   11.82   22.42
   6  -2   4   16.71   22.33
  -6   2  -4   17.42   22.77
   6  -2   5   39.63   23.69
  -6   2  -5   14.27   22.93
   6  -2   6  -12.60   20.90
  -6   2  -6   -7.03   21.17
   6  -2   7   51.10   20.36
  -6   2  -7   28.77   20.01
   6  -2   8   -4.62   19.49
  -6   2  -8   31.72   19.54
   6  -2   9   17.40   21.39
  -6   2  -9   72.93   22.75
   6  -2  10  -18.38   23.64
  -6   2 -10   -3.46   24.04
   6  -2  11    4.68   27.32
   5  -2   1  435.16   38.10
  -5   2  -1  377.83   35.69
   5  -2   2   31.76   24.87
   5  -2   3  338.36   32.23
  -5   2  -3  341.92   32.54
   5  -2   4   86.72   23.20
  -5   2  -4   49.31   22.57
   5  -2   5   -3.72   22.35
  -5   2  -5   15.99   22.84
   5  -2   6   39.79   23.08
  -5   2  -6    5.44   22.04
   5  -2   7   17.64   21.86
  -5   2  -7  -18.74   20.90
   5  -2   8   50.34   20.88
  -5   2  -8    4.33   20.54
   5  -2   9  -28.62   22.53
   4  -2   1  760.80   54.73
  -4   2  -1  787.79   56.39
   4  -2   2   25.25   25.98
   4  -2   3  193.49   28.04
  -4   2  -3  147.63   25.92
   4  -2   4  -22.68   22.28
  -4   2  -4   24.31   21.66
   4  -2   5   87.50   23.49
  -4   2  -5   17.44   22.39
   4  -2   6   -9.08   23.62
  -4   2  -6   37.69   24.40
   4  -2   7  296.42   32.32
  -4   2  -7  232.41   30.18
   3  -2   0  -10.66   23.15
  -3   2   0    2.01   23.58
   3  -2   1  173.30   28.48
  -3   2  -1  165.94   27.95
   3  -2   2   10.44   25.25
  -3   2  -2   49.60   26.45
   3  -2   3  440.73   38.27
  -3   2  -3  367.13   34.21
   3  -2   4   39.34   23.75
  -3   2  -4    7.72   23.73
   3  -2   5   83.46   25.38
  -3   2  -5  123.12   26.41
   2  -2   1  -26.01   25.03
  -2   2  -1    1.14   23.20
   2  -2   2  -15.57   25.09
  -2   2  -2  -37.38   27.43
   2  -2   3    8.32   25.94
   1  -2   0  252.04   28.01
  -1   2   0  196.63   26.30
   1  -2   1  143.33   25.69
  -1   2  -1  118.59   24.29
   1  -2   2   40.01   29.58
   0  -2  -1   16.71   12.91
   0   2   1   30.94   15.35
   0  -2   0 1288.96   81.75
  -2  -2  -3   21.95   14.03
   2   2   3   31.09   13.96
   3   2   5  107.24   19.40
  -3  -2  -4   37.29   15.35
   3   2   4   45.17   15.61
  -3  -2  -3  463.71   32.16
   3   2   3  485.56   33.63
  -4  -2  -6   -7.00   17.49
   4   2   6    3.43   16.10
  -4  -2  -5   27.88   16.46
   4   2   5   20.83   16.97
  -4  -2  -4   -6.85   15.26
   4   2   4   -7.52   15.14
  -4  -2  -3  153.72   18.53
   4   2   3   95.37   17.62
  -5  -2  -8  -11.11   17.26
   5   2   8   31.78   17.40
  -5  -2  -7   17.89   15.35
   5   2   7   -4.75   16.08
  -5  -2  -6   21.01   16.59
   5   2   6    9.10   16.28
  -5  -2  -5   27.79   16.93
   5   2   5  -13.96   17.24
  -5  -2  -4   64.48   17.04
   5   2   4   59.17   17.22
   6   2  10   -6.09   20.05
  -6  -2  -9   20.07   17.66
   6   2   9   54.40   18.56
  -6  -2  -8   13.45   15.57
   6   2   8    2.25   16.01
  -6  -2  -7   55.49   16.22
   6   2   7    7.52   15.84
  -6  -2  -6  -21.35   16.37
   6   2   6   16.73   16.08
  -6  -2  -5   -7.05   17.04
   6   2   5   36.31   17.02
  -6  -2  -4   -6.91   17.49
   6   2   4   14.83   18.11
  -7  -2 -11   48.22   21.19
   7   2  11   -3.86   19.61
  -7  -2 -10   -9.99   20.05
   7   2  10  -15.68   19.40
  -7  -2  -9    0.74   17.20
   7   2   9   18.87   18.16
  -7  -2  -8    7.45   15.08
   7   2   8   23.44   16.59
  -7  -2  -7    3.86   15.03
   7   2   7    9.52   15.52
  -7  -2  -6    7.94   16.37
   7   2   6   -0.45   16.37
  -7  -2  -5  -14.85   16.84
   7   2   5  -13.63   18.02
  -7  -2  -4   93.59   19.03
  -8  -2 -11   13.49   18.45
   8   2  11   -4.24   18.16
  -8  -2 -10  -11.71   19.47
   8   2  10   27.43   19.58
  -8  -2  -9   12.27   17.46
   8   2   9   36.02   18.02
  -8  -2  -7   22.01   15.72
   8   2   7   13.05   16.33
  -8  -2  -5  -11.09   16.97
   8   2   5   -3.06   17.26
  -9  -2 -11  -14.12   16.71
   9   2  11   -1.09   17.02
  -9  -2 -10   14.74   19.56
   9   2  10    6.60   19.67
  -9  -2  -9   34.17   19.23
   9   2   9   -6.76   18.62
  -9  -2  -8   -0.04   16.28
   9   2   8   19.63   17.17
  -9  -2  -7   -4.91   15.77
   9   2   7    4.88   15.97
  -9  -2  -6  109.76   18.71
   9   2   6   44.79   17.42
  -9  -2  -5  -37.89   16.82
   9   2   5   22.42   16.93
 -10  -2 -10   46.73   19.47
  10   2  10   48.47   18.94
 -10  -2  -9  -13.52   19.27
  10   2   9   33.97   19.94
 -10  -2  -8   21.90   17.04
  10   2   8   -0.94   18.33
 -10  -2  -7   21.70   16.93
  10   2   7   34.82   17.84
 -10  -2  -6    3.66   16.71
  10   2   6  -17.40   16.64
 -11  -2 -10   -5.67   17.20
  11   2  10  -37.00   18.18
 -11  -2  -9   21.99   18.74
  11   2   9   19.05   20.12
 -11  -2  -8   38.12   18.85
  11   2   8    0.76   19.63
 -11  -2  -7   14.97   17.31
  11   2   7    0.29   18.22
 -11  -2  -6   18.80   16.95
  11   2   6   16.22   16.33
 -12  -2  -9    7.41   19.18
  12   2   9   -7.72   20.14
 -12  -2  -8   14.68   19.29
  12   2   8  -19.18   20.81
 -12  -2  -7   17.17   18.24
  12   2   7  -14.30   19.29
 -12  -2  -6  -21.32   16.48
 -13  -2  -9    3.50   18.13
  13   2   9   -3.08   19.27
 -13  -2  -8   64.35   21.01
  13   2   8   21.99   21.32
 -13  -2  -7    6.60   19.87
  13   2   7   35.53   20.34
 -14  -2  -8   22.15   18.74
  14   2   8   -5.00   19.92
 -15  -2  -7    1.18   18.22
 -17   3  -5  -13.92   19.83
  16  -3   5   -0.54   21.93
 -16   3  -5    8.43   23.31
  16  -3   6  -29.02   21.75
 -16   3  -6  -34.08   22.13
 -15   3  -4   16.80   23.46
  15  -3   5   55.31   24.02
 -15   3  -5    3.03   23.31
  15  -3   6   23.66   22.95
 -15   3  -6   20.14   24.82
  15  -3   7   14.39   22.35
 -15   3  -7  -14.70   22.84
  14  -3   4   29.98   21.90
 -14   3  -4   10.13   22.57
  14  -3   5    7.41   22.42
 -14   3  -5  -10.93   22.19
  14  -3   6  141.57   26.77
 -14   3  -6   86.43   25.32
  14  -3   7  -50.12   22.82
 -14   3  -7  -21.17   24.22
  14  -3   8  -12.40   21.72
 -14   3  -8   -4.39   21.70
  13  -3   4    3.48   21.28
 -13   3  -4   -9.14   21.32
  13  -3   5   26.77   21.32
 -13   3  -5   31.74   21.50
  13  -3   6   24.56   22.84
 -13   3  -6   21.35   21.39
  13  -3   7  -14.43   23.42
 -13   3  -7   31.72   23.22
  13  -3   8   48.91   24.76
 -13   3  -8   40.82   24.00
  13  -3   9   34.39   22.08
 -13   3  -9  -18.13   21.21
  12  -3   3   78.56   22.04
 -12   3  -3   35.55   21.03
  12  -3   4  -41.73   21.03
 -12   3  -4   26.14   21.32
  12  -3   5   55.60   21.75
 -12   3  -5   15.35   21.41
  12  -3   6   60.80   22.35
 -12   3  -6   33.68   22.17
  12  -3   7   61.07   23.13
 -12   3  -7  123.57   24.07
  12  -3   8    4.33   23.64
 -12   3  -8  -16.35   23.87
  12  -3   9   -9.86   22.19
 -12   3  -9  -12.53   23.20
  11  -3   3   19.78   21.37
 -11   3  -3   -4.77   21.17
  11  -3   4  -26.03   20.99
 -11   3  -4   -4.46   21.48
  11  -3   5    5.84   20.63
 -11   3  -5   -9.75   20.05
  11  -3   6   50.36   20.88
 -11   3  -6   24.98   20.48
  11  -3   7   -9.06   21.50
 -11   3  -7   27.99   20.32
  11  -3   8    3.72   22.68
 -11   3  -8   83.11   23.37
  11  -3   9   36.47   24.42
 -11   3  -9  -14.77   23.84
  11  -3  10  -20.52   21.32
 -11   3 -10   -4.73   20.72
  10  -3   3   -5.49   21.43
 -10   3  -3   17.93   21.52
  10  -3   4   -6.69   21.99
 -10   3  -4   -9.68   21.50
  10  -3   5  108.42   22.15
 -10   3  -5   69.30   21.75
  10  -3   6    9.35   19.76
 -10   3  -6   -8.79   19.58
  10  -3   7    6.13   20.81
 -10   3  -7  -19.07   20.83
  10  -3   8   30.98   22.04
 -10   3  -8   28.64   22.13
  10  -3   9   38.81   24.09
 -10   3  -9   86.14   24.76
  10  -3  10   28.77   22.97
 -10   3 -10  -11.29   21.64
   9  -3   2   13.38   22.28
   9  -3   3  506.53   40.91
  -9   3  -3  456.35   38.90
   9  -3   4   26.41   21.50
  -9   3  -4   13.09   21.81
   9  -3   5  188.72   25.58
  -9   3  -5  117.97   23.15
   9  -3   6  -50.27   19.16
  -9   3  -6   15.64   19.78
   9  -3   7   88.73   22.22
  -9   3  -7  102.93   22.24
   9  -3   8  -44.72   21.32
  -9   3  -8   -7.72   20.74
   9  -3   9    1.00   22.55
  -9   3  -9  -13.45   22.73
   9  -3  10    5.71   24.11
  -9   3 -10   -1.49   22.53
   9  -3  11  -17.35   20.79
  -9   3 -11   11.11   21.35
   8  -3   2   14.14   25.09
   8  -3   3  315.83   32.54
  -8   3  -3  295.75   31.98
   8  -3   4   18.24   22.46
  -8   3  -4   33.19   23.82
   8  -3   5  108.76   22.91
  -8   3  -5   75.03   23.51
   8  -3   6   88.86   22.44
  -8   3  -6  109.27   22.64
   8  -3   7   71.37   21.12
  -8   3  -7   43.96   20.41
   8  -3   8   10.42   21.37
  -8   3  -8    6.45   21.28
   8  -3   9   22.91   21.55
  -8   3  -9   -3.88   21.26
   8  -3  10   14.56   23.55
  -8   3 -10    2.30   23.31
   8  -3  11   31.47   22.13
  -8   3 -11    7.27   21.75
   7  -3   1  368.69   35.84
  -7   3  -1  384.53   36.78
   7  -3   2  146.12   26.34
   7  -3   3   13.61   23.75
  -7   3  -3   33.81   22.77
   7  -3   4  104.96   24.98
  -7   3  -4   96.69   25.20
   7  -3   5   61.29   22.59
  -7   3  -5   60.11   23.69
   7  -3   6   33.03   21.81
  -7   3  -6   48.24   21.03
   7  -3   7    6.25   19.74
  -7   3  -7   -5.93   20.12
   7  -3   8   63.79   21.03
  -7   3  -8   58.75   21.43
   7  -3   9    5.64   21.86
  -7   3  -9   16.66   21.06
   7  -3  10  -19.20   23.64
  -7   3 -10  -22.06   24.38
   7  -3  11   -9.81   23.75
  -7   3 -11   -0.89   24.56
   6  -3   1   -3.28   26.45
  -6   3  -1   -5.04   25.40
   6  -3   2  873.43   61.40
  -6   3  -2  707.71   51.72
   6  -3   3   30.74   23.40
  -6   3  -3   34.04   24.40
   6  -3   4  139.42   25.94
  -6   3  -4  120.84   25.83
   6  -3   5    2.79   23.49
  -6   3  -5   47.53   23.87
   6  -3   6   67.87   22.68
  -6   3  -6   40.73   22.42
   6  -3   7   88.86   22.33
  -6   3  -7   31.47   20.72
   6  -3   8   -0.22   20.03
  -6   3  -8    0.60   20.88
   6  -3   9    0.07   22.06
  -6   3  -9    8.30   22.53
   6  -3  10    7.69   24.09
  -6   3 -10  -11.55   25.49
   6  -3  11    1.29   26.30
   5  -3   1   14.94   25.85
  -5   3  -1   20.10   25.78
   5  -3   2  132.75   26.14
  -5   3  -2  121.11   26.32
   5  -3   3  -29.29   23.17
  -5   3  -3   12.22   18.58
   5  -3   4  170.40   26.41
  -5   3  -4  141.23   26.16
   5  -3   5  -13.47   23.89
  -5   3  -5    0.31   23.37
   5  -3   6  479.76   39.03
  -5   3  -6  528.83   42.29
   5  -3   7   26.39   22.22
  -5   3  -7   -3.01   21.23
   5  -3   8   53.53   21.95
  -5   3  -8  -14.50   21.70
   5  -3   9  -42.58   23.22
   4  -3   0  942.58   64.55
  -4   3   0  990.09   67.00
   4  -3   1   68.96   27.43
  -4   3  -1  126.33   27.46
   4  -3   2 1410.74   90.82
  -4   3  -2 1392.68   89.91
   4  -3   3   52.66   25.96
   4  -3   5   29.08   24.16
  -4   3  -5   19.94   24.20
   4  -3   6  572.10   45.10
  -4   3  -6  617.60   47.75
   4  -3   7    5.33   24.13
  -4   3  -7    2.61   25.38
   3  -3   0   25.96   24.51
  -3   3   0   -7.87   25.07
   3  -3   1  126.64   28.46
  -3   3  -1  112.41   28.01
   3  -3   2  382.30   36.71
  -3   3  -2  388.32   36.58
   3  -3   3  135.79   28.13
   3  -3   4   91.36   24.67
  -3   3  -4  108.02   26.01
   3  -3   5   21.37   25.61
  -3   3  -5   41.95   27.03
   2  -3  -1  -30.42   19.40
  -2   3   1  -19.23   19.87
   2  -3   1   45.57   25.18
  -2   3  -1  -10.86   25.67
   2  -3   2  299.77   33.86
  -2   3  -2  197.82   30.00
   2  -3   3  115.49   28.75
  -2   3  -3   50.18   27.19
   1  -3  -1  313.15   27.79
  -1   3   1  351.29   29.60
  -1   3   0  -12.49   24.11
   1  -3   1  341.03   32.90
  -1   3  -1  342.82   33.92
   1  -3   2   28.71   31.69
  -1   3  -2  107.26   31.20
   0  -3  -1  268.32   24.02
   0   3   0  -40.33   24.74
  -1  -3  -2   64.84   10.13
   1   3   2   76.46   10.66
   2   3   3  158.92   12.51
  -3  -3  -4   77.80   12.98
   3   3   4   67.56   12.60
  -4  -3  -6  794.25   51.72
   4   3   6  762.58   49.58
  -4  -3  -5   42.11   14.39
   4   3   5   -9.35   13.98
  -4  -3  -4  378.28   27.01
   4   3   4  362.89   26.01
  -5  -3  -8   -1.58   15.99
   5   3   8   -9.95   16.15
  -5  -3  -7    5.40   14.63
   5   3   7   10.66   14.74
  -5  -3  -6  480.88   34.06
   5   3   6  415.97   30.40
  -5  -3  -5   28.91   14.90
   5   3   5    6.20   14.85
  -5  -3  -4  238.21   21.03
   5   3   4  207.43   19.45
   6   3  10  -19.34   19.83
  -6  -3  -9    9.01   16.71
   6   3   9    4.71   15.95
  -6  -3  -8  -22.42   14.03
   6   3   8   -1.90   14.83
  -6  -3  -7   79.00   15.52
   6   3   7   45.61   14.59
  -6  -3  -6   26.43   15.41
   6   3   6   34.64   14.63
  -6  -3  -5   21.46   15.81
   6   3   5   32.30   15.01
  -7  -3 -11   -6.45   19.49
   7   3  11  -13.03   18.49
  -7  -3 -10    2.83   17.89
   7   3  10  -33.41   18.45
  -7  -3  -9   15.88   16.08
   7   3   9   13.29   15.72
  -7  -3  -8   42.67   15.46
   7   3   8   42.13   15.39
  -7  -3  -7   15.12   14.03
   7   3   7   -2.32   14.77
  -7  -3  -6    7.20   14.30
   7   3   6   42.87   15.10
  -7  -3  -5   11.26   16.24
   7   3   5    7.43   15.43
  -8  -3 -11   18.42   17.64
   8   3  11   28.79   17.55
  -8  -3 -10   13.32   18.00
   8   3  10   21.57   18.27
  -8  -3  -9   23.22   16.59
   8   3   9   81.68   18.22
  -8  -3  -8   14.88   15.28
   8   3   8    5.24   16.26
  -8  -3  -7  105.43   16.51
   8   3   7  109.63   17.35
  -8  -3  -6   93.41   16.33
   8   3   6   67.69   16.13
  -8  -3  -5   95.15   17.22
  -9  -3 -11   24.71   16.37
   9   3  11    2.03   16.71
  -9  -3 -10   43.78   18.62
   9   3  10   28.33   18.45
  -9  -3  -9   22.91   16.93
   9   3   9   56.50   18.98
  -9  -3  -8   -8.88   15.75
   9   3   8  -25.34   17.22
  -9  -3  -7  133.07   17.69
   9   3   7   76.26   16.84
  -9  -3  -6    5.29   15.35
   9   3   6  -19.49   15.72
 -10  -3 -10   -3.57   17.24
  10   3  10   -8.68   17.95
 -10  -3  -9   19.36   18.02
  10   3   9   47.95   19.67
 -10  -3  -8    1.70   16.59
  10   3   8   42.07   17.60
 -10  -3  -7   -7.05   15.17
  10   3   7    7.49   16.22
 -10  -3  -6    6.65   15.41
  10   3   6   -5.89   15.81
 -11  -3 -10   -7.76   16.97
  11   3  10   14.36   16.93
 -11  -3  -9   68.85   19.09
  11   3   9   24.38   19.38
 -11  -3  -8   25.69   18.58
  11   3   8  -11.51   18.02
 -11  -3  -7    3.37   16.48
  11   3   7  -24.29   17.58
 -12  -3  -9   -2.83   17.60
  12   3   9   -3.26   17.78
 -12  -3  -8   10.48   18.42
  12   3   8   23.51   19.58
 -12  -3  -7   87.90   19.11
  12   3   7   27.55   18.24
 -13  -3  -9  -16.08   16.71
  13   3   9   14.01   18.20
 -13  -3  -8   22.42   19.34
  13   3   8   24.47   19.98
 -13  -3  -7    0.71   17.84
 -14  -3  -8   -4.30   18.09
  14   3   8  -21.41   18.42
  17  -4   5   18.94   22.17
 -17   4  -5  -28.77   21.93
 -16   4  -4    8.36   20.92
  16  -4   5  -14.12   23.58
 -16   4  -5    9.84   23.82
  16  -4   6  -29.78   21.97
 -16   4  -6   37.25   22.73
  15  -4   4    3.41   22.08
 -15   4  -4  -16.82   22.79
  15  -4   5   12.53   24.42
 -15   4  -5   41.20   24.20
  15  -4   6    1.12   24.45
 -15   4  -6   19.52   24.16
  15  -4   7   -5.80   22.08
 -15   4  -7   19.81   22.13
 -14   4  -3    7.20   21.86
  14  -4   4    5.26   22.37
 -14   4  -4   10.97   22.15
  14  -4   5   54.91   24.18
 -14   4  -5   89.33   25.03
  14  -4   6   -0.69   23.73
 -14   4  -6   40.37   24.42
  14  -4   7    3.08   24.09
 -14   4  -7   11.49   24.38
  14  -4   8   34.26   22.30
 -14   4  -8   -4.53   22.26
  13  -4   3   40.35   22.62
 -13   4  -3   35.02   22.22
  13  -4   4    5.69   21.84
 -13   4  -4   -9.19   21.06
  13  -4   5   20.68   22.33
 -13   4  -5   52.84   23.02
  13  -4   6   35.98   23.15
 -13   4  -6   12.11   22.66
  13  -4   7   32.14   24.74
 -13   4  -7   28.19   25.05
  13  -4   8  -17.17   23.04
 -13   4  -8    8.27   24.42
  13  -4   9   29.13   23.02
 -13   4  -9  -28.73   21.72
  12  -4   3   53.53   22.42
 -12   4  -3   17.29   22.39
  12  -4   4    6.94   20.36
 -12   4  -4   18.96   20.19
  12  -4   5   -0.49   21.52
 -12   4  -5  -42.45   21.66
  12  -4   6  -34.55   21.30
 -12   4  -6   36.29   21.70
  12  -4   7   22.50   23.71
 -12   4  -7   21.23   22.91
  12  -4   8   41.11   24.18
 -12   4  -8    1.83   25.07
  12  -4   9   47.42   23.17
 -12   4  -9  -11.73   22.97
  11  -4   2    3.01   22.08
  11  -4   3   35.08   22.48
 -11   4  -3   13.32   22.13
  11  -4   4   -6.80   20.99
 -11   4  -4   24.85   21.88
  11  -4   5    6.96   21.14
 -11   4  -5  -44.88   20.97
  11  -4   6  -11.46   20.81
 -11   4  -6   35.04   20.97
  11  -4   7    1.25   22.30
 -11   4  -7   37.25   22.17
  11  -4   8  -50.70   24.00
 -11   4  -8   18.71   24.04
  11  -4   9    1.67   24.18
 -11   4  -9  -33.70   24.45
  11  -4  10   -3.41   22.08
 -11   4 -10  -12.76   20.77
  10  -4   2   59.02   23.20
  10  -4   3    8.05   21.86
 -10   4  -3   15.21   23.00
  10  -4   4  -24.76   20.74
 -10   4  -4   26.70   21.52
  10  -4   5   49.02   21.79
 -10   4  -5    3.55   21.01
  10  -4   6  -35.40   20.83
 -10   4  -6  -10.48   20.97
  10  -4   7   -5.11   21.37
 -10   4  -7  -10.04   21.79
  10  -4   8   19.45   22.15
 -10   4  -8   -3.10   21.86
  10  -4   9   -8.16   24.53
 -10   4  -9   28.91   24.78
  10  -4  10   26.48   23.02
 -10   4 -10  -25.74   22.30
  -9   4  -1   16.68   28.04
   9  -4   2  -12.49   24.11
  -9   4  -2   34.30   22.88
   9  -4   3    2.34   22.86
  -9   4  -3    3.19   23.26
   9  -4   4  -16.37   21.08
  -9   4  -4    1.52   22.33
   9  -4   5    9.28   21.39
  -9   4  -5  -11.91   21.37
   9  -4   6  -26.25   20.54
  -9   4  -6   -0.56   20.83
   9  -4   7   -9.46   20.56
  -9   4  -7   29.78   21.35
   9  -4   8   -2.94   21.30
  -9   4  -8   32.34   22.28
   9  -4   9   12.18   23.73
  -9   4  -9  -18.00   23.31
   9  -4  10  -31.45   23.51
  -9   4 -10   12.25   24.24
   9  -4  11  -15.93   23.26
  -9   4 -11  -50.63   22.17
   8  -4   1    2.59   22.28
  -8   4  -1  -25.09   24.74
   8  -4   2   64.24   26.43
  -8   4  -2   33.03   25.09
   8  -4   3   -0.42   25.25
  -8   4  -3  -33.95   21.95
   8  -4   4   69.81   23.80
  -8   4  -4  107.89   25.11
   8  -4   5  -35.04   20.48
  -8   4  -5   18.07   22.95
   8  -4   6   -3.12   20.83
  -8   4  -6    4.39   20.52
   8  -4   7  -13.54   20.56
  -8   4  -7    1.85   20.39
   8  -4   8   30.42   21.43
  -8   4  -8   63.39   22.86
   8  -4   9  -13.72   22.50
  -8   4  -9  -44.68   22.42
   8  -4  10   23.98   24.07
  -8   4 -10  -35.02   25.07
   8  -4  11   27.68   22.46
  -8   4 -11  -17.78   22.26
   7  -4   1  -32.30   24.71
  -7   4  -1  -21.95   24.29
   7  -4   2   49.11   24.85
  -7   4  -2  -19.63   24.62
   7  -4   3   28.15   26.45
   7  -4   4   43.36   24.07
  -7   4  -4   54.42   24.24
   7  -4   5  -10.48   22.10
  -7   4  -5   53.89   24.22
   7  -4   6   18.02   21.43
  -7   4  -6    7.76   21.70
   7  -4   7    4.44   21.10
  -7   4  -7    4.42   20.21
   7  -4   8   13.43   20.16
  -7   4  -8   -9.43   21.64
   7  -4   9   18.51   21.64
  -7   4  -9   22.79   22.08
   7  -4  10   15.08   24.60
  -7   4 -10   29.89   25.85
   7  -4  11    1.36   23.78
  -7   4 -11   12.09   26.01
   6  -4   0   14.23   25.25
  -6   4   0   14.68   23.31
   6  -4   1  -19.85   24.45
  -6   4  -1  -16.73   26.43
   6  -4   2   -8.63   25.23
  -6   4  -2   17.00   25.61
   6  -4   3  -25.74   25.83
   6  -4   4   50.45   24.24
  -6   4  -4  -21.41   24.69
   6  -4   5  -33.41   23.22
  -6   4  -5  -27.10   24.27
   6  -4   6    0.56   21.06
  -6   4  -6  -22.91   22.10
   6  -4   7  -28.15   21.70
  -6   4  -7    0.60   20.79
   6  -4   8   12.67   20.52
  -6   4  -8   30.04   21.57
   6  -4   9   -5.22   22.64
  -6   4  -9   22.30   23.08
   6  -4  10  -13.49   25.11
  -6   4 -10  -28.64   26.88
   6  -4  11   -2.99   26.34
   5  -4   0  -42.42   26.05
  -5   4   0  -46.53   25.85
   5  -4   1  150.46   27.43
  -5   4  -1  199.67   29.31
   5  -4   2  -42.53   27.19
  -5   4  -2  -26.70   25.23
   5  -4   3  -13.54   24.91
   5  -4   4    0.16   24.96
  -5   4  -4   31.52   23.89
   5  -4   5   41.20   25.09
  -5   4  -5   65.11   25.07
   5  -4   6    2.68   22.13
  -5   4  -6  -23.42   23.60
   5  -4   7   -0.87   22.62
  -5   4  -7  -48.89   21.88
   5  -4   8    3.79   21.21
  -5   4  -8  -26.72   22.33
   5  -4   9  -21.30   23.69
  -5   4  -9  -55.27   24.42
  -4   4   0   -3.37   27.03
   4  -4   1   27.72   25.90
  -4   4  -1   -4.84   26.65
   4  -4   2  -23.33   26.16
  -4   4  -2   -8.83   24.74
   4  -4   3  -40.95   25.85
  -4   4  -3    2.25   24.76
   4  -4   4   -8.10   23.87
  -4   4  -4   17.58   24.02
   4  -4   5   43.81   25.85
  -4   4  -5   13.36   25.14
   4  -4   6   28.68   23.49
  -4   4  -6   31.74   25.72
   4  -4   7   14.03   23.64
  -4   4  -7    8.23   25.81
   3  -4  -1   42.73   26.83
  -3   4   1   26.30   25.56
  -3   4   0  -30.96   24.89
   3  -4   1   40.17   26.01
  -3   4  -1   41.69   27.19
   3  -4   2  -17.78   26.32
  -3   4  -2   41.29   26.12
   3  -4   3  117.28   26.92
  -3   4  -3  139.36   27.46
   3  -4   4  -21.26   24.96
   2  -4  -1   45.52   22.66
  -2   4   1   53.26   23.35
  -2   4   0  134.63   25.63
   2  -4   1  -16.33   27.46
  -2   4  -1   22.46   26.77
   2  -4   2   25.58   26.39
  -2   4  -2   37.40   26.85
   2  -4   3  -18.24   26.97
  -2   4  -3   12.16   27.99
   2  -4   4   30.00   28.37
   1  -4  -2   59.33   18.67
  -1   4   2   65.95   19.61
   1  -4  -1   84.27   22.28
  -1   4   1   73.49   22.46
   1  -4   0   -4.75   21.68
  -1   4   0   12.82   22.88
   1  -4   1   38.18   26.90
  -1   4  -1   41.82   26.52
   1  -4   2   80.79   31.69
  -1   4  -2  105.99   32.36
   0  -4  -2   14.65   16.28
   0   4   2   29.60   15.10
   0  -4  -1  -69.03   20.63
   0   4   1  -81.01   22.19
   0  -4   0  959.53   63.61
   0   4   0 1040.49   68.74
  -1  -4  -2   45.90   14.94
  -2  -4  -3  -12.56    6.49
  -3  -4  -4    2.59    8.07
   3   4   4   10.13    7.90
  -4  -4  -6    2.61   13.43
   4   4   6    2.05   13.09
  -4  -4  -5    2.32   11.84
   4   4   5   21.64   12.13
  -5  -4  -8   16.93   14.16
   5   4   8  -24.71   14.45
  -5  -4  -7   17.04   12.29
   5   4   7    2.81   13.09
  -5  -4  -6  -17.71   12.71
   5   4   6   -4.26   12.60
  -5  -4  -5   87.25   13.81
   5   4   5   52.08   13.54
   6   4  10   29.62   18.94
  -6  -4  -9   -1.99   14.97
   6   4   9   -4.73   15.23
  -6  -4  -8    5.78   13.49
   6   4   8  -28.88   13.38
  -6  -4  -7    5.35   13.09
   6   4   7   10.91   13.09
  -6  -4  -6    3.68   13.00
   6   4   6    1.43   13.27
  -6  -4  -5  -18.67   14.21
   6   4   5  -13.90   12.80
  -7  -4 -11   22.66   18.38
   7   4  11  -18.42   18.11
  -7  -4 -10  -10.84   17.15
   7   4  10   -1.65   17.42
  -7  -4  -9    1.05   14.59
   7   4   9  -22.93   14.92
  -7  -4  -8    3.28   13.49
   7   4   8    8.21   13.78
  -7  -4  -7   -9.35   13.00
   7   4   7    8.63   13.09
  -7  -4  -6   -5.46   13.29
   7   4   6    0.54   13.69
  -8  -4 -11    2.36   16.28
   8   4  11   -8.94   16.04
  -8  -4 -10   15.26   16.91
   8   4  10  -20.74   16.77
  -8  -4  -9   15.03   15.75
   8   4   9   -3.01   16.10
  -8  -4  -8   23.75   14.07
   8   4   8   18.94   14.72
  -8  -4  -7    4.42   13.47
   8   4   7   -7.36   13.76
  -8  -4  -6   -5.33   13.52
   8   4   6  -17.64   13.65
  -9  -4 -11   -4.84   15.72
   9   4  11  -57.32   16.95
  -9  -4 -10    7.87   16.77
   9   4  10   17.46   17.58
  -9  -4  -9   13.74   15.79
   9   4   9   23.89   16.62
  -9  -4  -8    0.76   15.12
   9   4   8   -8.92   14.81
  -9  -4  -7    9.95   14.14
   9   4   7   11.24   14.83
  -9  -4  -6   -3.30   13.52
 -10  -4 -10   -3.88   16.30
  10   4  10    1.94   16.80
 -10  -4  -9   -9.46   16.95
  10   4   9    4.17   17.24
 -10  -4  -8   -2.88   15.43
  10   4   8    9.59   16.35
 -10  -4  -7   -3.10   15.30
  10   4   7   14.72   16.84
 -11  -4 -10   13.98   15.35
  11   4  10   30.07   17.22
 -11  -4  -9  -23.00   16.86
  11   4   9  -28.13   17.51
 -11  -4  -8   20.56   17.13
  11   4   8   25.34   18.20
 -11  -4  -7   19.85   16.26
  11   4   7  -32.54   16.64
 -12  -4  -9   14.48   16.66
  12   4   9   22.68   17.42
 -12  -4  -8  -15.93   17.93
  12   4   8   35.73   18.98
 -13  -4  -9   -7.87   15.99
  13   4   9   27.46   16.95
 -13  -4  -8   -2.70   17.31
  13   4   8   42.31   17.33
 -14  -4  -8    5.33   15.93
  17  -5   4  -20.30   22.64
 -17   5  -4    1.83   23.08
  16  -5   4   24.11   24.20
 -16   5  -4   -4.22   24.96
  16  -5   5   -2.50   23.64
 -16   5  -5   18.04   23.98
  16  -5   6   30.91   24.31
 -16   5  -6   32.68   22.88
  15  -5   3   15.77   23.91
 -15   5  -3  -18.82   20.45
  15  -5   4  242.67   32.10
 -15   5  -4  314.49   34.21
  15  -5   5   22.33   24.49
 -15   5  -5  -29.87   24.24
  15  -5   6   11.96   23.20
 -15   5  -6   10.86   24.27
  15  -5   7    4.15   22.42
 -15   5  -7   -4.66   22.46
  14  -5   3   17.04   20.39
 -14   5  -3  -21.99   22.50
  14  -5   4   92.92   25.40
 -14   5  -4   58.06   23.22
  14  -5   5   96.73   26.59
 -14   5  -5   88.01   25.67
  14  -5   6  218.16   30.82
 -14   5  -6  139.65   27.52
  14  -5   7    6.85   24.07
 -14   5  -7   60.00   24.20
  14  -5   8   20.63   23.84
 -14   5  -8   27.68   22.62
  13  -5   3   -2.74   22.30
 -13   5  -3  -21.97   21.97
  13  -5   4  246.69   29.53
 -13   5  -4  231.30   29.11
  13  -5   5  168.64   26.72
 -13   5  -5  139.80   26.77
  13  -5   6  866.52   62.85
 -13   5  -6  878.12   63.28
  13  -5   7  -10.48   23.71
 -13   5  -7   -4.95   24.78
  13  -5   8   10.24   22.59
 -13   5  -8   -8.90   23.62
  12  -5   2   84.53   22.37
 -12   5  -2   68.14   22.84
  12  -5   3    6.94   21.23
 -12   5  -3   22.17   22.17
  12  -5   4   25.83   22.91
 -12   5  -4   43.58   21.99
  12  -5   5   24.51   22.26
 -12   5  -5  -14.30   21.21
  12  -5   6   87.32   23.58
 -12   5  -6   80.36   24.42
  12  -5   7  348.84   36.24
 -12   5  -7  326.98   34.79
  12  -5   8   25.61   24.09
 -12   5  -8   30.71   25.43
  12  -5   9   -6.13   22.77
 -12   5  -9    6.58   22.77
  11  -5   2  -20.36   22.39
 -11   5  -2  -34.68   22.62
  11  -5   3   89.08   23.20
 -11   5  -3  116.38   22.13
  11  -5   4    4.10   22.06
 -11   5  -4   -7.49   22.33
  11  -5   5  -29.40   21.01
 -11   5  -5   18.47   20.92
  11  -5   6  -11.44   21.52
 -11   5  -6   21.64   22.77
  11  -5   7  128.36   25.67
 -11   5  -7  119.75   26.03
  11  -5   8   31.47   25.16
 -11   5  -8   54.80   25.52
  11  -5   9  -13.34   24.20
 -11   5  -9   38.70   25.94
  10  -5   1  198.55   27.88
 -10   5  -1  248.92   28.77
  10  -5   2  -37.27   22.88
 -10   5  -2    8.21   23.33
  10  -5   3  -32.54   21.95
  10  -5   4    3.46   21.93
 -10   5  -4  -11.80   22.08
  10  -5   5    5.26   21.32
 -10   5  -5    9.90   21.77
  10  -5   6  -29.29   20.59
 -10   5  -6   -3.81   21.84
  10  -5   7   68.54   22.64
 -10   5  -7   -9.68   21.99
  10  -5   8    9.90   23.49
 -10   5  -8  -34.37   23.02
  10  -5   9  302.67   34.64
 -10   5  -9  350.40   37.00
  10  -5  10    4.28   23.53
 -10   5 -10   19.94   22.57
   9  -5   1   47.62   26.05
  -9   5  -1   75.37   24.89
   9  -5   2   -7.27   23.98
  -9   5  -2  -15.43   25.45
   9  -5   3   -8.92   23.00
   9  -5   4   35.69   21.59
  -9   5  -4   24.91   22.95
   9  -5   5   45.90   21.55
  -9   5  -5   90.56   23.87
   9  -5   6    7.90   21.68
  -9   5  -6  -17.26   21.77
   9  -5   7   41.37   21.75
  -9   5  -7    7.12   22.06
   9  -5   8   28.97   22.46
  -9   5  -8   69.52   23.75
   9  -5   9   50.65   25.65
  -9   5  -9   56.23   24.53
   9  -5  10   46.79   24.42
  -9   5 -10   53.35   25.18
  -8   5   0    0.13   24.74
   8  -5   1   61.81   24.74
  -8   5  -1   12.78   24.69
   8  -5   2   32.92   26.23
  -8   5  -2   78.87   27.39
   8  -5   3  555.60   44.79
   8  -5   4    2.85   23.62
  -8   5  -4  -27.92   23.62
   8  -5   5  372.93   34.24
  -8   5  -5  432.26   37.60
   8  -5   6  124.90   24.47
  -8   5  -6  193.53   27.28
   8  -5   7 1169.41   78.06
  -8   5  -7 1163.84   77.62
   8  -5   8   34.55   21.68
  -8   5  -8    5.93   22.73
   8  -5   9  137.22   27.26
  -8   5  -9  119.24   25.23
   8  -5  10   13.52   25.18
  -8   5 -10   29.29   26.16
   8  -5  11    1.92   23.02
  -8   5 -11    2.28   23.04
  -7   5   0    5.62   24.82
   7  -5   1   50.65   25.63
  -7   5  -1   83.40   27.61
   7  -5   2   90.18   26.56
  -7   5  -2   79.09   26.72
   7  -5   3  128.81   28.73
  -7   5  -3   41.60   25.83
   7  -5   4    6.65   24.74
  -7   5  -4   31.56   24.45
   7  -5   5    7.58   21.97
  -7   5  -5   39.12   22.64
   7  -5   6   51.84   23.17
  -7   5  -6   75.05   23.02
   7  -5   7   31.85   21.37
  -7   5  -7    5.20   20.56
   7  -5   8  161.33   25.83
  -7   5  -8  161.30   25.58
   7  -5   9   10.59   23.29
  -7   5  -9   15.39   22.30
   7  -5  10   33.92   25.65
  -7   5 -10   20.61   27.06
   7  -5  11   -9.97   24.00
  -7   5 -11   33.95   26.61
  -6   5   0  389.43   36.20
   6  -5   1   31.38   24.96
  -6   5  -1   99.63   26.21
   6  -5   2  386.09   36.76
  -6   5  -2  411.29   37.98
   6  -5   3  -27.86   25.52
  -6   5  -3    1.81   25.34
   6  -5   4   58.21   26.56
   6  -5   5  -30.47   22.37
  -6   5  -5  -22.93   23.82
   6  -5   6   54.33   22.28
  -6   5  -6   39.14   22.04
   6  -5   7  -12.74   21.57
  -6   5  -7   43.78   21.93
   6  -5   8   12.02   21.72
  -6   5  -8   45.63   22.46
   6  -5   9  -23.87   22.93
  -6   5  -9  -15.59   23.80
   6  -5  10   56.74   27.14
  -6   5 -10   53.95   28.73
   6  -5  11  -41.04   27.35
   5  -5  -1  -22.42   23.37
  -5   5   1   14.72   22.64
  -5   5   0   25.43   24.91
   5  -5   1  -39.14   24.82
  -5   5  -1   -4.93   25.38
   5  -5   2 1311.94   85.87
  -5   5  -2 1265.77   83.46
   5  -5   3   35.00   25.69
  -5   5  -3   28.17   25.76
   5  -5   4   72.78   27.43
   5  -5   5   -3.79   22.97
  -5   5  -5  -27.48   23.62
   5  -5   6   -8.10   21.55
  -5   5  -6   -8.01   22.86
   5  -5   7   65.24   23.33
  -5   5  -7   20.01   22.97
   5  -5   8   26.99   22.86
  -5   5  -8   -3.08   24.27
   5  -5   9   36.04   24.47
  -5   5  -9  -23.17   26.21
   4  -5  -1  146.87   26.05
  -4   5   1   98.07   24.49
   4  -5   0  287.28   30.96
  -4   5   0  319.84   32.99
   4  -5   1  130.50   28.15
  -4   5  -1  132.98   27.32
   4  -5   2   93.74   26.97
  -4   5  -2   37.40   26.61
   4  -5   3   36.76   25.85
  -4   5  -3   37.56   27.17
   4  -5   4    2.52   26.94
   4  -5   5    2.90   25.18
  -4   5  -5   58.75   25.23
   4  -5   7   -1.16   24.56
  -4   5  -7   -2.56   25.49
   3  -5  -1  100.75   25.47
  -3   5   1  105.59   25.49
   3  -5   0   -9.61   26.48
  -3   5   0   19.16   25.38
   3  -5   1   73.16   25.18
  -3   5  -1   75.90   27.32
   3  -5   2 2154.59  134.70
  -3   5  -2 2015.19  126.55
   3  -5   3   -2.50   26.74
  -3   5  -3   -3.08   26.16
   3  -5   4  620.50   48.24
  -3   5  -4  633.44   49.45
   3  -5   5  160.06   30.94
  -3   5  -5  124.37   30.60
   3  -5   6 1131.94   78.24
   2  -5  -2  331.44   31.29
  -2   5   2  328.99   29.91
   2  -5  -1   44.30   24.16
  -2   5   1   47.04   24.51
   2  -5   0  484.67   41.06
  -2   5   0  588.39   45.63
  -2   5  -1  -45.63   27.06
   2  -5   2  217.20   30.74
  -2   5  -2  277.69   33.30
   2  -5   3   55.89   29.00
  -2   5  -3   12.11   28.57
   2  -5   4  185.39   31.87
  -2   5  -4  165.14   33.57
   1  -5  -2  409.73   31.78
  -1   5   2  482.00   36.13
   1  -5  -1 2915.17  177.54
  -1   5   1 3006.61  182.89
   1  -5   0  -32.76   26.70
  -1   5   0   23.95   26.43
  -1   5  -1 2861.64  175.80
   1  -5   2  488.02   44.12
  -1   5  -2  517.46   46.82
   0  -5  -3 2339.72  141.48
   0   5   3 2680.97  161.86
   0  -5  -2   -5.31   18.40
   0   5   2   -8.92   17.78
   0  -5  -1 9372.25  561.40
   0   5   1 9999.00  598.87
   0  -5   0   31.00   26.56
   0   5   0  -49.47   26.92
  -1  -5  -3 1361.68   83.06
  -1  -5  -2  534.86   37.18
   1   5   2  430.70   31.29
  -2  -5  -3   78.31   12.31
   2   5   3   66.67   12.31
  -4  -5  -6  265.87   19.83
   4   5   6  200.92   16.44
  -4  -5  -5   23.11    8.83
   4   5   5   35.17    9.41
   5   5   8  -22.57   13.56
  -5  -5  -7   11.75   10.75
   5   5   7   30.02   11.38
  -5  -5  -6    2.85   10.30
   5   5   6    1.63   10.95
   6   5  10   20.68   18.27
  -6  -5  -9   20.50   14.34
   6   5   9   14.94   14.32
  -6  -5  -8  -12.18   11.69
   6   5   8   16.93   12.45
  -6  -5  -7   74.43   12.20
   6   5   7   46.28   12.25
  -6  -5  -6   17.24   10.95
   6   5   6   49.94   12.31
  -7  -5 -11   21.43   17.06
   7   5  11   -9.50   16.13
  -7  -5 -10    5.87   16.71
   7   5  10   39.19   16.97
  -7  -5  -9   -4.48   13.96
   7   5   9   20.85   14.77
  -7  -5  -8  195.45   18.47
   7   5   8  196.61   18.85
  -7  -5  -7   47.15   12.13
   7   5   7   25.65   12.60
  -7  -5  -6   33.34   12.09
   7   5   6   44.30   12.11
  -8  -5 -11   -1.74   14.74
   8   5  11    5.60   15.14
  -8  -5 -10   27.37   16.19
   8   5  10   37.89   16.66
  -8  -5  -9  180.11   19.38
   8   5   9  197.37   20.94
  -8  -5  -8   32.61   13.49
   8   5   8    6.25   13.96
  -8  -5  -7 1197.52   74.50
   8   5   7 1193.28   74.36
  -9  -5 -10    0.27   15.52
   9   5  10    7.58   15.72
  -9  -5  -9   53.62   16.13
   9   5   9   56.70   17.15
  -9  -5  -8   19.38   14.03
   9   5   8   26.97   14.52
  -9  -5  -7   53.44   13.96
   9   5   7   43.63   14.19
 -10  -5 -10  -10.44   14.81
  10   5  10   -0.27   15.66
 -10  -5  -9  410.18   31.56
  10   5   9  409.95   32.12
 -10  -5  -8   29.84   15.21
  10   5   8   44.30   16.55
 -10  -5  -7   26.56   14.41
 -11  -5 -10   17.22   15.46
  11   5  10    4.68   15.97
 -11  -5  -9   -2.34   15.97
  11   5   9    0.07   16.57
 -11  -5  -8   71.02   17.17
  11   5   8   76.37   17.75
 -12  -5  -9    5.51   15.55
  12   5   9   26.16   16.77
 -12  -5  -8    9.77   16.75
 -17   6  -3  -15.75   22.97
  17  -6   4   39.32   23.66
 -17   6  -4   29.75   23.64
  16  -6   3   51.81   25.29
 -16   6  -3  -12.25   23.26
  16  -6   4   25.67   24.40
 -16   6  -4   -1.18   24.89
  16  -6   5    4.97   23.62
 -16   6  -5  -13.32   23.64
  15  -6   3   29.82   25.11
 -15   6  -3   21.99   24.71
  15  -6   4  -27.48   25.27
 -15   6  -4  -15.68   25.47
  15  -6   5   23.60   25.72
 -15   6  -5   35.80   26.27
  15  -6   6  -16.51   23.93
 -15   6  -6  -22.28   23.53
  14  -6   2   19.98   22.75
 -14   6  -2   45.92   21.97
  14  -6   3    1.70   22.59
 -14   6  -3   14.34   21.32
  14  -6   4   -1.29   24.29
 -14   6  -4   33.86   23.98
  14  -6   5   20.48   25.54
 -14   6  -5   50.70   24.98
  14  -6   6  -30.98   25.03
 -14   6  -6   30.85   25.03
  14  -6   7    0.85   23.51
 -14   6  -7   -6.65   22.97
  13  -6   2  -11.26   21.14
 -13   6  -2   38.72   22.26
  13  -6   3   69.70   24.67
  13  -6   4    5.38   22.73
 -13   6  -4    0.87   23.24
  13  -6   5   54.58   24.76
 -13   6  -5   38.99   23.55
  13  -6   6   35.69   24.80
 -13   6  -6   25.25   25.05
  13  -6   7   67.05   25.94
 -13   6  -7   70.77   25.11
  13  -6   8  -51.41   22.79
 -13   6  -8   19.11   23.75
 -12   6  -1   27.92   22.01
  12  -6   2  -31.43   20.72
 -12   6  -2  -19.58   22.01
  12  -6   3  -16.80   21.46
  12  -6   4   31.34   22.79
 -12   6  -4   38.23   22.84
  12  -6   5   -2.32   23.29
 -12   6  -5    0.09   21.77
  12  -6   6   26.12   23.93
 -12   6  -6    1.96   23.24
  12  -6   7  -19.85   25.05
 -12   6  -7   15.23   25.61
  12  -6   8   38.65   25.29
 -12   6  -8   50.32   24.78
  12  -6   9    2.81   22.97
 -12   6  -9    5.93   23.17
  11  -6   1   -7.09   19.67
 -11   6  -1    1.87   23.04
  11  -6   2   -3.23   22.44
 -11   6  -2  -12.74   21.84
  11  -6   3   -2.03   21.68
  11  -6   4   11.44   21.39
 -11   6  -4  -24.31   21.64
  11  -6   5   11.91   21.77
 -11   6  -5   19.00   21.35
  11  -6   6    7.78   22.68
 -11   6  -6   23.11   23.29
  11  -6   7    2.56   24.22
 -11   6  -7    6.91   25.07
  11  -6   8   -2.52   25.00
 -11   6  -8   22.97   25.27
  11  -6   9    3.57   22.75
 -11   6  -9   23.24   24.00
  10  -6   1   11.80   23.04
 -10   6  -1   24.51   23.80
  10  -6   2    3.68   22.19
 -10   6  -2  -13.54   23.46
  10  -6   3   17.02   23.20
 -10   6  -3    4.57   22.73
  10  -6   4   -6.89   21.70
 -10   6  -4   18.40   21.55
  10  -6   5   28.59   22.39
 -10   6  -5   20.72   22.42
  10  -6   6   14.54   21.93
 -10   6  -6    0.25   21.17
  10  -6   7   21.88   22.55
 -10   6  -7  -19.18   23.31
  10  -6   8   -9.23   24.45
 -10   6  -8   17.95   24.85
  10  -6   9   17.75   23.82
 -10   6  -9   -8.27   26.36
  10  -6  10  -14.27   23.42
 -10   6 -10  -23.89   22.91
  -9   6   0   23.42   21.86
   9  -6   1  -45.75   22.82
  -9   6  -1   -1.27   23.51
   9  -6   2  -17.58   23.17
  -9   6  -2   16.57   23.17
   9  -6   3   16.71   22.46
  -9   6  -3   13.09   23.44
   9  -6   4   35.15   22.57
  -9   6  -4   26.39   17.00
   9  -6   5  -14.56   21.97
  -9   6  -5   19.56   22.75
   9  -6   6   15.79   21.21
  -9   6  -6  -28.91   21.35
   9  -6   7  -13.85   21.50
  -9   6  -7  -17.09   21.99
   9  -6   8   14.92   23.44
  -9   6  -8   26.16   24.53
   9  -6   9  -20.34   24.76
  -9   6  -9   42.60   25.67
   9  -6  10    1.78   23.60
  -9   6 -10  -10.10   24.18
  -8   6   0   32.05   24.60
   8  -6   1   16.28   25.45
  -8   6  -1   25.90   25.03
   8  -6   2  -16.17   25.25
  -8   6  -2   -5.42   23.98
   8  -6   3   22.26   23.91
  -8   6  -3   21.08   24.38
   8  -6   4   45.26   24.20
   8  -6   5  -15.35   22.06
  -8   6  -5  -46.06   22.68
   8  -6   6   18.78   21.14
  -8   6  -6   29.08   22.64
   8  -6   7  -21.08   21.55
  -8   6  -7  -21.99   22.06
   8  -6   8   96.20   24.85
  -8   6  -8   87.41   25.00
   8  -6   9    1.63   24.65
  -8   6  -9   19.47   25.27
   8  -6  10   48.85   25.36
  -8   6 -10   39.70   26.27
  -7   6   1   55.43   25.18
   7  -6   0  -48.56   25.56
  -7   6   0   12.62   24.85
   7  -6   1  -13.81   26.10
  -7   6  -1   10.80   25.67
   7  -6   2  -23.58   25.90
  -7   6  -2   30.58   25.27
   7  -6   3    6.71   25.61
  -7   6  -3   -1.34   25.72
   7  -6   4    0.69   23.78
   7  -6   5   51.97   22.50
  -7   6  -5   46.68   22.77
   7  -6   6  -23.35   21.12
  -7   6  -6    7.36   22.59
   7  -6   7   16.28   21.21
  -7   6  -7  -12.29   21.26
   7  -6   8   -3.12   22.46
  -7   6  -8   10.53   23.46
   7  -6   9   25.23   24.69
  -7   6  -9   33.39   25.25
   7  -6  10   -7.47   24.94
  -7   6 -10    5.78   27.70
   7  -6  11   36.27   24.51
  -7   6 -11   41.46   26.88
   6  -6  -1  -25.34   23.69
  -6   6   1   33.68   24.71
   6  -6   0   66.20   26.07
  -6   6   0   10.53   24.78
   6  -6   1  -34.01   20.50
  -6   6  -1  -33.21   24.87
   6  -6   2   20.74   25.05
  -6   6  -2   21.97   26.10
   6  -6   3   26.56   26.54
  -6   6  -3   38.05   27.12
   6  -6   4  -23.33   24.74
  -6   6  -4   49.05   23.53
   6  -6   5   -8.94   22.93
  -6   6  -5  -26.92   24.42
   6  -6   6  -20.88   21.64
  -6   6  -6  -12.82   22.37
   6  -6   7   20.52   21.90
  -6   6  -7    4.57   22.19
   6  -6   8    2.25   21.97
  -6   6  -8   45.84   23.91
   6  -6   9   60.60   24.45
  -6   6  -9   18.09   25.94
   6  -6  10    1.52   26.27
  -6   6 -10   30.69   29.98
   6  -6  11  -18.78   26.16
   5  -6  -1  169.87   26.07
  -5   6   1  203.84   28.88
   5  -6   0  -19.63   23.95
  -5   6   0  -35.71   23.51
  -5   6  -1  133.67   26.59
   5  -6   2  -24.53   25.94
  -5   6  -2  -23.71   26.19
   5  -6   3   80.36   26.79
  -5   6  -3   10.17   26.61
   5  -6   4   20.50   26.63
  -5   6  -4    3.35   26.72
   5  -6   5   54.85   24.36
  -5   6  -5   46.77   21.03
   5  -6   6  -23.95   22.84
  -5   6  -6   54.00   23.33
   5  -6   7    6.25   22.24
  -5   6  -7   23.87   24.31
   5  -6   8    1.83   22.55
  -5   6  -8  -52.04   24.65
   5  -6   9  -18.00   24.62
  -5   6  -9  -24.60   27.68
   4  -6  -2   21.30   22.04
  -4   6   2    6.22   20.12
   4  -6  -1   69.50   24.02
  -4   6   1   -9.68   24.47
   4  -6   0    2.03   24.85
  -4   6   0    8.99   25.94
  -4   6  -1   12.09   25.81
   4  -6   2  -18.56   24.76
  -4   6  -2  -10.62   24.71
   4  -6   3   38.56   25.76
  -4   6  -3   14.05   25.94
   4  -6   4  -48.67   26.88
  -4   6  -4   26.39   26.32
   4  -6   5    4.84   25.34
   4  -6   6  -12.42   23.82
  -4   6  -6    4.64   25.23
   4  -6   7   45.28   24.58
  -4   6  -7   13.40   26.72
   4  -6   8   41.13   24.31
   3  -6  -2   28.24   22.13
  -3   6   2   11.93   20.32
   3  -6  -1   19.43   23.75
  -3   6   1   53.06   23.31
   3  -6   0   -8.07   23.58
  -3   6   0    9.81   24.02
  -3   6  -1   83.31   26.23
   3  -6   2   63.72   26.63
  -3   6  -2    4.04   24.76
   3  -6   3  125.71   27.48
  -3   6  -3  123.41   27.97
   3  -6   4   18.82   26.81
  -3   6  -4    9.28   26.99
   3  -6   5   40.33   28.06
   3  -6   6  -27.52   26.23
   2  -6  -2  -34.71   20.27
  -2   6   2   22.64   20.74
   2  -6  -1  -19.94   23.31
  -2   6   1  -40.66   22.64
   2  -6   0   17.73   24.36
  -2   6   0    4.64   23.13
   2  -6   1    1.70   24.18
  -2   6  -1  -41.40   25.63
   2  -6   2   15.26   24.65
  -2   6  -2   59.17   26.27
   2  -6   3   -9.48   26.63
  -2   6  -3   20.56   27.55
   2  -6   4   12.04   28.59
  -2   6  -4   57.90   30.82
   1  -6  -3    7.87   18.62
  -1   6   3   -6.04   16.93
   1  -6  -2  -15.10   19.54
  -1   6   2   41.93   19.81
   1  -6  -1   36.51   24.00
  -1   6   1   52.77   22.68
   1  -6   1   43.58   26.81
  -1   6  -1  140.34   28.30
  -1   6  -2   20.07   29.55
   0  -6  -3   15.95   16.24
   0   6   3  -28.82   15.06
   0  -6  -2   83.19   19.00
   0   6   2  116.43   19.65
   0  -6  -1  -16.68   22.71
   0   6   1    1.61   21.14
   0  -6   0 1708.06  108.02
   0   6   0 1771.85  111.95
  -1  -6  -4   69.66   12.80
  -1  -6  -3   13.56   14.43
   1   6   3    5.80   13.61
  -1  -6  -2   28.91   17.95
   1   6   2    4.19   16.64
  -1  -6  -1   73.34   23.29
  -2  -6  -4   20.07   10.22
   2   6   4   11.42    9.55
  -2  -6  -3   -1.49   13.74
  -4  -6  -6   -3.93    7.20
   4   6   6    2.54    6.87
   5   6   8  -13.23   11.35
  -5  -6  -7   48.82    9.52
   5   6   7   44.94    9.75
  -5  -6  -6   -3.55    7.74
   5   6   6    4.93    8.14
   6   6  10   20.56   16.33
  -6  -6  -9    6.85   13.67
   6   6   9   -4.62   12.87
  -6  -6  -8   -4.73   10.17
   6   6   8  -25.96   10.91
  -6  -6  -7   24.67    9.86
   6   6   7   12.11   10.04
  -7  -6 -11   14.54   15.19
   7   6  11    3.72   14.63
  -7  -6 -10   19.09   14.88
   7   6  10   17.53   15.06
  -7  -6  -9  -18.51   12.71
   7   6   9   -7.47   14.03
  -7  -6  -8    0.67   11.09
   7   6   8   14.01   12.20
  -7  -6  -7  -11.51   10.39
   7   6   7    4.71   11.11
  -8  -6 -11    8.30   13.49
   8   6  11  -27.06   14.54
  -8  -6 -10   34.66   14.92
   8   6  10   61.52   15.50
  -8  -6  -9   24.85   13.76
   8   6   9   36.02   14.50
  -8  -6  -8   79.49   13.78
   8   6   8  110.43   15.23
  -8  -6  -7   11.62   11.31
  -9  -6 -10  -11.24   14.10
   9   6  10   10.51   14.63
  -9  -6  -9    1.92   14.72
   9   6   9    2.79   15.12
  -9  -6  -8   38.43   13.90
   9   6   8   51.01   14.72
 -10  -6 -10   17.35   13.76
  10   6  10   30.38   14.65
 -10  -6  -9   11.24   15.14
  10   6   9   16.55   15.64
 -10  -6  -8   22.08   14.97
  10   6   8    3.68   15.35
 -11  -6  -9  -14.85   14.45
  11   6   9   -8.39   15.10
 -11  -6  -8   10.80   14.61
 -12  -6  -9   -5.67   14.77
  12   6   9   -1.36   15.41
  17  -7   3   11.80   21.21
 -17   7  -3   40.82   23.60
 -16   7  -2  -12.45   24.96
  16  -7   3  -14.63   23.89
  16  -7   4   39.97   25.09
 -16   7  -4    2.77   24.29
  16  -7   5   40.77   23.98
 -16   7  -5   43.23   24.38
  15  -7   2  -53.42   24.51
 -15   7  -2  -12.22   24.07
  15  -7   3   47.60   26.16
  15  -7   4   45.03   24.65
 -15   7  -4    6.67   24.40
  15  -7   5  -27.95   24.71
 -15   7  -5   -3.41   25.98
  15  -7   6   -8.36   23.91
 -15   7  -6  -16.24   23.22
  14  -7   2   45.46   23.98
 -14   7  -2   -8.90   23.62
  14  -7   3   11.00   23.55
  14  -7   4    4.73   24.51
 -14   7  -4   37.69   25.45
  14  -7   5    7.47   25.81
 -14   7  -5   14.94   25.16
  14  -7   6  -16.33   24.67
 -14   7  -6   41.53   25.38
  14  -7   7  -53.69   24.04
 -14   7  -7   -7.92   22.19
  13  -7   1  -17.42   23.33
 -13   7  -1    6.91   20.03
  13  -7   2   10.28   23.64
 -13   7  -2    0.74   22.88
  13  -7   3   22.42   23.17
 -13   7  -3   21.59   23.91
  13  -7   4   73.31   24.85
 -13   7  -4   49.87   25.36
  13  -7   5   -3.86   24.16
 -13   7  -5  -12.60   23.46
  13  -7   6   41.55   26.16
 -13   7  -6   29.82   25.18
  13  -7   7   15.86   25.09
 -13   7  -7  -11.55   24.47
  13  -7   8  -24.22   24.71
 -13   7  -8   24.09   23.15
  12  -7   1   15.30   22.73
 -12   7  -1   20.79   22.22
  12  -7   2   48.29   22.50
 -12   7  -2   50.54   22.79
  12  -7   3    0.13   22.35
 -12   7  -3  -24.62   22.37
  12  -7   4   -7.65   23.06
 -12   7  -4   20.30   18.49
  12  -7   5    1.36   23.84
 -12   7  -5  -32.83   23.46
  12  -7   6   79.20   26.39
 -12   7  -6   51.48   25.25
  12  -7   7   15.37   26.48
 -12   7  -7   50.88   25.94
  12  -7   8    9.12   25.00
 -12   7  -8    2.03   24.47
 -11   7   0    7.18   20.79
  11  -7   1    4.10   22.37
 -11   7  -1  -24.00   22.46
  11  -7   2  -10.93   23.08
 -11   7  -2   -8.77   22.17
  11  -7   3  -17.38   21.50
 -11   7  -3   15.43   23.06
  11  -7   4   -5.29   21.72
  11  -7   5   40.95   22.59
 -11   7  -5   -4.84   21.97
  11  -7   6   20.63   23.82
 -11   7  -6   14.16   23.40
  11  -7   7  -12.49   24.53
 -11   7  -7   -8.34   25.45
  11  -7   8   15.23   25.96
 -11   7  -8   -6.40   25.52
  11  -7   9  -30.56   22.91
 -11   7  -9   16.22   23.82
  10  -7   0   -6.51   19.20
 -10   7   0   26.16   22.44
  10  -7   1   26.94   22.84
 -10   7  -1   13.67   23.26
  10  -7   2   30.47   22.66
 -10   7  -2  -31.78   23.02
  10  -7   3   19.65   22.28
 -10   7  -3  -18.53   21.41
  10  -7   4  -48.24   21.81
  10  -7   5   28.26   22.93
 -10   7  -5   27.46   21.97
  10  -7   6  -30.87   23.13
 -10   7  -6   24.09   22.42
  10  -7   7   -5.00   24.38
 -10   7  -7    9.90   24.07
  10  -7   8   13.98   25.76
 -10   7  -8  -31.83   26.34
  10  -7   9   21.81   25.40
 -10   7  -9   20.56   24.11
   9  -7   0  -24.22   23.00
  -9   7   0   -4.26   23.44
   9  -7   1   68.76   21.19
  -9   7  -1   71.60   24.89
   9  -7   2  -37.94   23.42
  -9   7  -2   12.78   23.22
   9  -7   3  100.32   25.14
  -9   7  -3  103.40   25.18
   9  -7   4   31.81   21.77
   9  -7   5  210.91   27.41
  -9   7  -5  149.13   26.01
   9  -7   6  -21.21   22.95
  -9   7  -6    5.49   22.42
   9  -7   7   47.04   24.22
  -9   7  -7   17.35   23.46
   9  -7   8   -3.48   25.14
  -9   7  -8   18.60   26.16
   9  -7   9    0.04   25.78
  -9   7  -9   27.95   25.34
   9  -7  10    5.44   22.68
  -9   7 -10  -37.74   24.00
   8  -7  -1   71.95   24.71
  -8   7   1    9.19   21.37
   8  -7   0  -14.19   24.51
  -8   7   0  -22.53   24.36
  -8   7  -1   22.28   25.45
   8  -7   2   12.85   23.11
  -8   7  -2   30.22   24.24
   8  -7   3   31.61   23.04
  -8   7  -3   -2.32   24.20
   8  -7   4   39.57   23.29
  -8   7  -4   12.02   23.98
   8  -7   5   60.58   23.42
  -8   7  -5   69.43   22.15
   8  -7   6   54.56   22.33
  -8   7  -6  -11.78   23.04
   8  -7   7   33.99   23.53
  -8   7  -7    6.98   22.04
   8  -7   8   34.71   23.98
  -8   7  -8  -31.36   24.96
   8  -7   9  -18.94   25.90
  -8   7  -9   33.79   26.79
   8  -7  10  -16.68   23.66
  -8   7 -10   35.93   25.20
   7  -7  -1   67.20   24.56
  -7   7   1  118.30   26.19
   7  -7   0   32.32   26.14
  -7   7   0  -15.08   25.36
  -7   7  -1   35.24   25.23
   7  -7   2   37.07   26.43
  -7   7  -2  -34.15   24.67
   7  -7   3   38.07   24.16
  -7   7  -3   40.59   24.40
   7  -7   4   48.73   23.69
  -7   7  -4   17.11   24.04
   7  -7   5   69.37   23.71
   7  -7   6  -14.79   22.26
  -7   7  -6    8.92   23.15
   7  -7   7   -4.82   22.55
  -7   7  -7  -26.03   20.97
   7  -7   8   11.31   22.82
  -7   7  -8  -30.18   25.00
   7  -7   9   35.29   25.98
  -7   7  -9   39.72   27.48
   7  -7  10    9.35   26.30
  -7   7 -10   63.92   27.66
  -6   7   2   88.19   24.60
   6  -7  -1    7.98   24.76
  -6   7   1  -12.53   24.89
   6  -7   0   -1.18   23.87
  -6   7   0    0.56   25.56
  -6   7  -1   58.95   26.30
   6  -7   2   94.30   27.19
  -6   7  -2   51.92   26.59
   6  -7   3    7.27   26.07
  -6   7  -3   -2.01   25.20
   6  -7   4   13.76   23.95
  -6   7  -4   38.01   25.92
   6  -7   5  -17.09   22.97
   6  -7   6   -8.01   21.32
  -6   7  -6   24.18   22.64
   6  -7   7  -13.63   22.39
  -6   7  -7   11.62   21.75
   6  -7   8   32.34   22.77
  -6   7  -8  -15.12   23.00
   6  -7   9    3.90   25.76
  -6   7  -9   -3.95   27.95
   6  -7  10   15.10   27.88
  -6   7 -10   13.65   29.87
   6  -7  11   28.77   25.38
  -6   7 -11  -29.00   28.17
   5  -7  -2   52.08   23.84
  -5   7   2   38.45   23.15
   5  -7  -1   57.68   24.22
  -5   7   1   17.20   24.82
   5  -7   0    3.79   25.58
  -5   7   0  -34.55   25.03
   5  -7   1  -30.13   26.65
  -5   7  -1    8.03   25.78
   5  -7   2   32.56   26.23
  -5   7  -2   40.71   26.54
   5  -7   3   57.41   26.61
  -5   7  -3   51.14   26.32
   5  -7   4  -10.93   24.76
  -5   7  -4   19.43   26.99
   5  -7   5   14.48   23.75
   5  -7   6    2.77   22.33
  -5   7  -6    4.66   23.89
   5  -7   7   29.64   23.24
  -5   7  -7   -5.44   24.11
   5  -7   8   33.86   24.53
  -5   7  -8   80.01   26.05
   5  -7   9   29.75   26.45
  -5   7  -9    1.47   29.82
   5  -7  10   18.78   28.42
   4  -7  -2  400.14   35.33
  -4   7   2  415.08   36.20
   4  -7  -1    7.32   23.24
  -4   7   1   54.58   24.71
   4  -7   0  555.60   43.92
  -4   7   0  636.12   48.96
   4  -7   1   60.27   25.67
  -4   7  -1  -12.58   24.65
  -4   7  -2  365.12   36.24
   4  -7   3   12.42   26.52
  -4   7  -3   15.23   26.81
   4  -7   4   29.44   27.81
  -4   7  -4   52.48   29.00
   4  -7   5   30.74   24.49
  -4   7  -5  -13.03   25.74
   4  -7   6  145.47   27.17
  -4   7  -6  166.97   24.91
   4  -7   7  -18.49   24.45
  -4   7  -7   44.65   27.10
   4  -7   8  143.62   29.58
   3  -7  -3   52.08   19.11
  -3   7   3   10.55   19.92
   3  -7  -2   48.73   21.70
  -3   7   2   60.22   22.13
   3  -7  -1   17.95   23.35
  -3   7   1  -45.63   22.77
   3  -7   0   -8.94   23.84
  -3   7   0   -8.63   25.05
   3  -7   1   46.24   24.65
  -3   7  -1   69.75   25.54
  -3   7  -2   48.98   25.43
   3  -7   3   22.91   26.99
  -3   7  -3   23.26   27.21
   3  -7   4   93.08   28.77
  -3   7  -4  129.63   29.20
   3  -7   5  -36.13   26.27
  -3   7  -5  -55.14   29.29
   3  -7   6   49.25   26.56
   2  -7  -3   46.66   19.74
  -2   7   3    7.09   18.74
   2  -7  -2   -0.02   20.52
  -2   7   2    1.85   20.65
   2  -7  -1  -23.02   22.48
  -2   7   1  -62.63   21.59
   2  -7   1    7.92   24.65
  -2   7  -1   22.77   26.68
  -2   7  -2   29.62   25.52
   2  -7   3   87.77   28.84
  -2   7  -3   40.71   28.77
   2  -7   4   37.36   28.75
  -2   7  -4   57.37   31.72
  -1   7   4   58.26   17.55
   1  -7  -3  455.01   34.53
  -1   7   3  462.81   34.44
   1  -7  -2   21.86   19.81
  -1   7   2  -34.44   20.14
   1  -7  -1    0.94   22.48
  -1   7   1   28.10   21.12
   1  -7   0   -8.68   24.02
  -1   7   0   -5.20   24.38
   1  -7   1    0.04   24.42
  -1   7  -1   16.62   26.92
   1  -7   2   42.62   28.50
  -1   7  -2   22.39   29.08
   0  -7  -4    7.29   15.17
   0   7   4   29.08   15.64
   0  -7  -3   30.74   16.84
   0   7   3   45.68   16.86
   0  -7  -2   18.76   19.65
   0   7   2  -20.68   17.62
   0  -7  -1  358.88   31.78
   0   7   1  320.07   30.47
   0  -7   0   10.84   24.80
   0   7   0  -20.56   24.69
  -1  -7  -4   60.18   14.23
   1   7   4   41.62   13.43
  -1  -7  -3  412.85   30.40
   1   7   3  369.80   27.90
  -1  -7  -2   -8.50   19.27
   1   7   2  -16.06   17.38
  -1  -7  -1   -3.57   23.44
   1   7   1   18.24   23.89
  -2  -7  -5    3.68    9.46
   2   7   5    5.78    9.59
  -2  -7  -4   43.52   13.00
  -2  -7  -3   32.14   16.19
   2   7   3   36.87   16.51
   5   7   8   46.93   10.71
  -5  -7  -7   -4.19    6.85
   5   7   7    1.83    6.85
   6   7  10   34.19   15.97
  -6  -7  -9   -1.05   11.80
   6   7   9   -5.11   11.89
  -6  -7  -8    5.98    8.99
   6   7   8   -2.28    9.61
  -6  -7  -7   -8.59    8.14
   6   7   7    3.06    8.32
   7   7  11    4.62   14.16
  -7  -7 -10   31.23   13.23
   7   7  10   11.64   12.98
  -7  -7  -9   17.09   11.60
   7   7   9    2.90   12.36
  -7  -7  -8   11.06   10.06
   7   7   8   14.61   10.57
  -7  -7  -7    0.13    9.46
  -8  -7 -10  -12.94   12.89
   8   7  10  -29.37   13.07
  -8  -7  -8    2.85   11.20
   8   7   8   -0.51   11.82
  -9  -7 -10   -6.69   12.56
   9   7  10    4.10   12.94
  -9  -7  -9   21.57   13.27
   9   7   9    8.41   14.01
  -9  -7  -8    4.51   12.71
 -10  -7  -9   18.82   13.56
  10   7   9   10.75   14.34
 -11  -7  -9   -5.98   13.20
  11   7   9   13.76   13.58
 -17   8  -2    5.24   23.71
  16  -8   2   -9.19   21.66
 -16   8  -2  -12.42   24.85
  16  -8   3   20.65   24.40
 -16   8  -3    5.78   23.17
  16  -8   4   52.88   25.07
 -16   8  -4  -14.23   25.14
 -15   8  -1   94.46   27.03
  15  -8   2   23.26   25.74
 -15   8  -2  -30.29   25.27
  15  -8   3    8.10   25.83
 -15   8  -3   77.82   27.57
  15  -8   4   17.42   25.27
 -15   8  -4  -12.40   24.11
  15  -8   5   34.33   24.13
 -15   8  -5   -6.27   24.16
  14  -8   1   -0.47   23.82
 -14   8  -1  -30.98   23.93
  14  -8   2   15.57   24.53
 -14   8  -2   31.47   25.61
  14  -8   3  297.09   35.04
 -14   8  -3  262.30   33.68
  14  -8   4  -39.19   26.81
  14  -8   5  112.15   28.15
 -14   8  -5  159.41   29.40
  14  -8   6   11.11   24.36
 -14   8  -6   -2.45   24.85
  13  -8   1   75.25   24.04
 -13   8  -1  114.53   25.90
  13  -8   2   27.70   24.38
 -13   8  -2   60.94   23.82
  13  -8   3  191.26   29.53
 -13   8  -3  193.49   29.51
  13  -8   4   93.41   26.61
  13  -8   5   34.68   25.25
 -13   8  -5    1.41   25.27
  13  -8   6   61.00   27.28
 -13   8  -6   39.01   27.17
  13  -8   7  -62.61   24.29
 -13   8  -7   -3.28   24.62
  12  -8   0    6.96   23.15
 -12   8   0   18.98   19.78
  12  -8   1  157.71   24.67
 -12   8  -1  140.14   26.19
  12  -8   2  176.23   27.37
 -12   8  -2   98.43   25.25
  12  -8   3   88.57   25.27
 -12   8  -3  125.64   25.98
  12  -8   4   87.14   25.18
  12  -8   5   93.34   26.61
 -12   8  -5   67.27   25.85
  12  -8   6   42.62   27.03
 -12   8  -6    3.01   25.29
  12  -8   7   -2.28   26.05
 -12   8  -7   16.68   26.63
  12  -8   8   44.45   24.33
 -12   8  -8   -8.07   24.02
  11  -8   0    0.94   22.42
 -11   8   0   -6.65   21.61
 -11   8  -1   33.41   23.11
  11  -8   2   61.89   24.16
 -11   8  -2   65.55   23.20
  11  -8   3   -4.62   22.79
 -11   8  -3   -4.39   22.37
  11  -8   4    8.32   22.86
 -11   8  -4  -18.33   23.60
  11  -8   5   -0.83   22.46
 -11   8  -5   17.91   23.78
  11  -8   6   71.80   26.59
 -11   8  -6   53.37   26.36
  11  -8   7    4.51   26.56
 -11   8  -7   34.39   26.72
  11  -8   8   -3.75   24.82
 -11   8  -8   63.46   26.63
 -10   8   1   62.85   22.93
  10  -8   0   35.93   22.82
 -10   8   0   24.78   22.19
 -10   8  -1    6.02   22.48
  10  -8   2    1.18   22.19
 -10   8  -2   27.21   23.06
  10  -8   3  -19.29   22.77
 -10   8  -3   10.37   23.02
  10  -8   4   63.97   23.22
 -10   8  -4   53.49   23.13
  10  -8   5   34.93   24.29
  10  -8   6  111.59   26.01
 -10   8  -6  109.85   26.65
  10  -8   7   24.96   25.05
 -10   8  -7   -1.47   24.82
  10  -8   8  -29.00   26.27
 -10   8  -8   15.08   26.25
  10  -8   9   18.76   24.62
 -10   8  -9  -25.94   23.75
   9  -8  -1   29.04   19.16
  -9   8   1   13.47   23.31
   9  -8   0   54.04   23.20
  -9   8   0   12.45   22.26
  -9   8  -1   33.30   23.20
   9  -8   2   21.41   22.91
  -9   8  -2   26.97   23.75
   9  -8   3   21.46   23.84
  -9   8  -3    5.67   23.13
   9  -8   4  753.44   55.36
  -9   8  -4  718.87   53.55
   9  -8   5   20.21   22.48
   9  -8   6   14.32   23.31
  -9   8  -6   54.29   24.09
   9  -8   7    4.06   24.40
  -9   8  -7    8.10   24.04
   9  -8   8   90.58   27.97
  -9   8  -8   86.99   26.81
   9  -8   9   13.38   24.78
  -9   8  -9    1.38   26.36
   8  -8  -1  -10.08   22.93
  -8   8   1   29.40   23.17
   8  -8   0  401.25   36.82
  -8   8   0  432.26   38.76
   8  -8   1   16.24   24.22
  -8   8  -1   18.31   24.18
   8  -8   2   38.16   24.02
  -8   8  -2   60.56   24.62
   8  -8   3   74.63   24.36
  -8   8  -3   92.09   25.36
   8  -8   4   73.74   24.24
  -8   8  -4  121.78   25.14
   8  -8   5  124.37   25.18
   8  -8   6   46.66   23.40
  -8   8  -6  104.61   24.38
   8  -8   7    5.91   23.06
  -8   8  -7   21.32   23.58
   8  -8   8   83.26   26.39
  -8   8  -8   27.26   25.03
   8  -8   9   51.12   26.94
  -8   8  -9  -11.22   27.57
   8  -8  10  -27.48   23.84
  -8   8 -10   -9.72   25.18
   7  -8  -2   25.07   22.46
  -7   8   2   28.44   21.52
   7  -8  -1  124.08   25.65
  -7   8   1  100.66   25.32
   7  -8   0   18.71   24.87
  -7   8   0   -5.82   24.82
   7  -8   1  156.17   28.62
  -7   8  -1  143.22   27.55
   7  -8   2    4.15   18.20
  -7   8  -2   17.17   24.33
   7  -8   3  145.42   26.83
  -7   8  -3  171.07   28.35
   7  -8   4  205.09   28.28
  -7   8  -4  117.65   26.10
   7  -8   5   16.62   22.24
  -7   8  -5   18.82   24.18
   7  -8   6   -2.23   21.79
  -7   8  -6  -18.38   22.01
   7  -8   7   10.44   22.79
  -7   8  -7  -52.44   23.26
   7  -8   8   -4.64   25.43
  -7   8  -8   20.81   24.89
   7  -8   9   -9.03   25.61
  -7   8  -9    9.46   26.92
   7  -8  10  111.88   27.48
  -7   8 -10   89.35   28.17
   6  -8  -2   -6.29   22.10
  -6   8   2   -2.10   22.86
   6  -8  -1    1.54   23.44
  -6   8   1    1.36   24.40
   6  -8   0  110.94   26.88
  -6   8   0   86.16   26.48
   6  -8   1  -43.47   26.50
  -6   8  -1  -17.60   25.78
  -6   8  -2   10.22   25.67
   6  -8   3  147.99   26.72
  -6   8  -3   86.90   25.96
   6  -8   4   24.89   23.66
  -6   8  -4   41.87   24.78
   6  -8   5   18.09   23.37
  -6   8  -5    8.48   23.40
   6  -8   6   -9.77   21.68
   6  -8   7  405.49   37.76
  -6   8  -7  335.90   35.26
   6  -8   8   57.81   25.38
  -6   8  -8   -6.83   24.58
   6  -8   9  131.55   30.11
  -6   8  -9  243.79   34.57
   6  -8  10   44.85   27.41
  -6   8 -10   19.52   29.15
  -5   8   3   82.75   22.44
   5  -8  -2   19.69   23.04
  -5   8   2   10.64   22.93
   5  -8  -1   68.72   25.36
  -5   8   1   78.44   25.85
   5  -8   0   -8.05   25.81
  -5   8   0  -14.39   25.47
   5  -8   1   46.75   26.25
  -5   8  -1   49.67   26.83
  -5   8  -2   22.53   26.65
   5  -8   3   77.51   27.08
  -5   8  -3   94.06   26.48
   5  -8   4  -31.87   23.82
  -5   8  -4   20.34   24.60
   5  -8   5  358.21   35.15
  -5   8  -5  337.69   34.55
   5  -8   6   14.88   22.66
   5  -8   7  220.72   30.02
  -5   8  -7  156.89   28.64
   5  -8   8    7.29   24.62
  -5   8  -8   33.23   25.87
   5  -8   9   35.69   27.26
  -5   8  -9   90.38   30.76
   5  -8  10  -21.66   28.88
   4  -8  -2   37.74   23.87
  -4   8   2   15.59   21.32
   4  -8  -1  295.53   32.45
  -4   8   1  260.29   30.42
   4  -8   0   14.97   24.38
  -4   8   0   53.04   26.68
   4  -8   1  259.62   31.45
  -4   8  -1  252.26   32.01
   4  -8   2   72.18   27.46
  -4   8  -2   55.98   26.90
   4  -8   3  980.94   68.61
  -4   8  -3  858.27   61.67
   4  -8   4   12.89   25.00
  -4   8  -4   22.77   25.40
   4  -8   5  278.58   31.83
  -4   8  -5  193.00   29.62
   4  -8   6   34.33   24.36
   4  -8   8    9.93   25.98
   3  -8  -3   71.31   20.85
  -3   8   3   77.44   21.55
   3  -8  -2   -9.52   21.99
  -3   8   2   51.17   21.03
   3  -8  -1   25.78   23.80
  -3   8   1   20.36   23.95
   3  -8   0   13.07   25.20
  -3   8   0   56.36   25.63
   3  -8   1   28.35   26.19
  -3   8  -1   59.44   27.08
   3  -8   2  -32.52   26.79
  -3   8  -2   50.18   25.32
   3  -8   3   -4.91   18.87
  -3   8  -3   62.12   27.35
   3  -8   4  305.12   35.17
  -3   8  -4  332.78   36.04
   3  -8   6   29.93   26.94
  -3   8  -6    0.65   28.13
   2  -8  -4  187.47   21.75
  -2   8   4  221.97   23.37
   2  -8  -3    4.13   20.23
  -2   8   3   21.37   18.94
   2  -8  -2   68.83   21.52
  -2   8   2   53.73   21.32
   2  -8  -1  -29.15   23.17
  -2   8   1  -31.47   22.91
   2  -8   0  204.11   28.19
  -2   8   0  190.14   28.66
   2  -8   1  -13.40   24.36
  -2   8  -1   -9.10   26.25
   2  -8   2   75.30   26.90
  -2   8  -2  106.32   27.61
  -2   8  -3   49.47   28.79
   2  -8   4  261.85   35.55
  -2   8  -4  176.94   33.68
   1  -8  -4  595.75   41.51
  -1   8   4  650.62   44.56
   1  -8  -3   51.95   18.85
  -1   8   3   55.34   19.20
   1  -8  -2   46.75   20.16
  -1   8   2   47.40   20.61
   1  -8  -1   56.05   21.84
  -1   8   1   33.10   22.62
   1  -8   0   -6.40   23.62
  -1   8   0   10.84   23.93
   1  -8   1   -0.42   25.47
  -1   8  -1   62.70   26.48
   1  -8   2   42.33   28.26
  -1   8  -2   44.52   30.33
   0   8   5   -2.05   12.87
   0  -8  -4 1195.95   74.99
   0   8   4 1276.92   79.56
   0  -8  -3   25.16   18.51
   0   8   3   18.58   17.49
   0  -8  -2   39.95   20.50
   0   8   2   50.83   19.63
   0  -8  -1   -3.84   21.41
   0   8   1   17.93   21.41
   0  -8   1   -3.26   27.17
  -1  -8  -4  616.49   41.20
   1   8   4  604.22   39.95
  -1  -8  -3   32.36   18.38
   1   8   3   36.51   17.20
  -1  -8  -2   94.35   20.48
   1   8   2   61.47   19.90
  -1  -8  -1   40.84   22.88
   1   8   1   91.96   25.00
  -2  -8  -5    7.00   10.75
  -2  -8  -3   23.22   17.42
   2   8   3   30.22   17.87
  -3  -8  -6   13.94    6.38
   3   8   6    7.65    6.98
  -3  -8  -5   48.20    9.75
   3   8   5   54.82   10.26
  -4  -8  -6   19.36    5.20
   5   8   8    8.72    7.76
  -6  -8  -9  132.73   14.03
   6   8   9  157.49   14.27
  -6  -8  -8    8.52    7.61
   6   8   8   23.22    8.12
  -7  -8 -10   85.89   12.67
   7   8  10   74.67   12.47
  -7  -8  -9   19.34   10.62
   7   8   9    1.05   11.04
  -7  -8  -8   26.74    9.06
   7   8   8   35.26    9.48
  -8  -8 -10    7.74   10.71
   8   8  10   -2.25   11.58
  -8  -8  -9   18.62   11.11
   8   8   9    3.28   11.82
  -8  -8  -8   71.71   11.00
  -9  -8 -10   35.62   11.58
   9   8  10   57.59   12.67
  -9  -8  -9  -15.48   11.64
   9   8   9   -7.07   12.20
 -10  -8  -9    3.26   12.29
  16  -9   1    8.25   24.27
 -16   9  -1   39.88   21.39
  16  -9   2   -2.99   24.29
 -16   9  -2   42.82   25.65
  16  -9   3   12.71   24.74
 -16   9  -3   -8.25   25.16
  15  -9   1   14.03   21.08
 -15   9  -1   25.36   26.03
  15  -9   2   26.79   25.76
 -15   9  -2    2.45   26.36
  15  -9   3  -11.64   24.11
 -15   9  -3   -7.16   26.23
  15  -9   4   13.18   25.20
  15  -9   5  -15.55   25.83
 -15   9  -5   -3.50   24.00
 -14   9   0   30.24   25.05
 -14   9  -1    2.81   25.20
  14  -9   2   23.87   24.85
 -14   9  -2  -27.86   25.36
  14  -9   3   51.14   25.98
 -14   9  -3  -15.97   26.23
  14  -9   4   21.68   26.54
 -14   9  -4   35.89   27.59
  14  -9   5   -1.92   25.49
 -14   9  -5   57.59   26.25
  14  -9   6   26.45   23.89
 -14   9  -6   35.93   24.51
  13  -9   0  -48.60   22.93
 -13   9   0  -10.62   23.35
 -13   9  -1   -1.54   24.09
  13  -9   2  -41.11   23.37
 -13   9  -2   13.09   24.78
  13  -9   3  -12.87   25.07
 -13   9  -3   23.84   25.90
  13  -9   4   35.42   25.83
 -13   9  -4    6.71   28.24
  13  -9   5   37.14   26.36
 -13   9  -5   -6.04   19.29
  13  -9   6    3.88   25.18
 -13   9  -6   14.68   26.16
  13  -9   7   40.08   24.29
 -13   9  -7    5.00   25.56
 -12   9   1    4.59   22.64
  12  -9   0  -41.82   22.57
 -12   9   0   29.75   23.55
 -12   9  -1  -10.53   23.49
  12  -9   2    1.96   23.02
 -12   9  -2   -7.00   23.71
  12  -9   3  -16.48   24.29
 -12   9  -3    2.63   23.20
  12  -9   4   63.86   25.74
 -12   9  -4   19.94   25.40
  12  -9   5   12.91   26.61
  12  -9   6    1.76   26.01
 -12   9  -6   33.12   26.65
  12  -9   7   20.48   25.78
 -12   9  -7    6.71   25.49
  11  -9  -1   24.49   23.49
 -11   9   1   20.77   20.05
  11  -9   0  -23.13   21.84
 -11   9   0   -2.74   21.97
  11  -9   1   -5.40   22.75
 -11   9  -1  -15.26   21.95
  11  -9   2   11.49   22.57
 -11   9  -2  -25.78   22.01
  11  -9   3    1.07   22.73
 -11   9  -3   -3.10   22.95
  11  -9   4  -20.59   23.53
 -11   9  -4   25.20   23.75
  11  -9   5  -23.42   24.00
  11  -9   6   20.68   25.81
 -11   9  -6   46.97   26.41
  11  -9   7  -19.38   27.35
 -11   9  -7   37.07   26.43
  11  -9   8   -7.14   24.91
 -11   9  -8   53.71   26.03
  10  -9  -1  -11.09   23.11
 -10   9   1   28.42   23.04
  10  -9   0  -32.88   22.28
 -10   9   0   10.80   23.13
  10  -9   1    4.26   23.37
 -10   9  -1   56.61   23.04
  10  -9   2  -16.08   19.61
 -10   9  -2    4.73   23.11
  10  -9   3    4.53   22.68
 -10   9  -3    8.70   22.71
  10  -9   4   -5.69   22.84
 -10   9  -4   -8.59   22.88
  10  -9   5   14.36   23.98
 -10   9  -5   46.66   23.71
  10  -9   6   18.87   25.45
 -10   9  -6    2.19   25.81
  10  -9   7  -30.22   25.92
 -10   9  -7  -13.72   26.39
  10  -9   8   39.77   26.30
 -10   9  -8  -28.53   26.77
  10  -9   9   19.92   25.34
 -10   9  -9   22.84   23.91
  -9   9   2    2.88   22.39
   9  -9  -1   13.49   21.84
  -9   9   1   11.49   22.13
   9  -9   0  -15.17   21.41
  -9   9   0  -38.21   22.86
   9  -9   1    9.43   22.95
  -9   9  -1    6.27   21.28
  -9   9  -2  -44.16   22.26
   9  -9   3   52.26   24.11
  -9   9  -3    0.96   22.42
   9  -9   4   24.45   22.75
  -9   9  -4  -33.59   22.62
   9  -9   5    9.19   22.88
  -9   9  -5   -4.26   23.31
   9  -9   6  -32.83   23.71
  -9   9  -6    0.67   20.05
   9  -9   7   42.85   26.27
  -9   9  -7   15.41   26.23
   9  -9   8   28.68   27.03
  -9   9  -8   28.68   27.61
   9  -9   9   -7.69   24.80
  -9   9  -9   30.07   25.25
   8  -9  -2  -10.95   19.05
  -8   9   2    2.92   22.08
   8  -9  -1   29.44   22.53
  -8   9   1  -18.20   22.75
   8  -9   0   28.57   22.82
  -8   9   0    9.01   22.79
   8  -9   1  -36.78   22.37
  -8   9  -1    8.21   21.95
  -8   9  -2   18.29   22.88
   8  -9   3   74.50   23.46
  -8   9  -3   29.64   24.09
   8  -9   4  -51.34   23.40
  -8   9  -4   21.97   22.91
   8  -9   6   -1.58   23.08
   8  -9   7   -9.59   24.71
  -8   9  -7    1.03   24.33
   8  -9   8  -37.45   26.74
  -8   9  -8  -14.88   26.81
   8  -9   9   -5.29   25.90
  -8   9  -9   32.94   26.59
   7  -9  -2  -31.90   21.35
  -7   9   2   23.66   22.22
   7  -9  -1   -7.78   23.29
  -7   9   1    2.94   24.16
   7  -9   0  -19.38   23.46
  -7   9   0    5.98   22.13
   7  -9   1   27.41   24.13
  -7   9  -1   39.21   23.33
  -7   9  -2    2.34   23.62
   7  -9   3   -4.42   22.95
  -7   9  -3   40.35   24.74
   7  -9   4  -16.44   23.66
  -7   9  -4   -6.67   22.95
   7  -9   5   44.34   22.79
  -7   9  -5  -32.45   23.49
   7  -9   6  -14.32   23.02
   7  -9   7  -33.59   23.78
  -7   9  -7   -8.81   24.36
   7  -9   8    1.49   26.74
  -7   9  -8   21.43   25.69
   7  -9   9  -11.49   27.41
  -7   9  -9  -11.42   28.26
   7  -9  10   -5.35   24.31
  -7   9 -10    5.49   25.96
   6  -9  -3   10.57   20.70
  -6   9   3  -22.19   19.52
   6  -9  -2    4.08   21.72
  -6   9   2   17.84   21.88
   6  -9  -1  -24.94   22.10
  -6   9   1  -47.66   23.22
   6  -9   0    2.21   23.15
  -6   9   0    8.48   24.04
   6  -9   1  -30.22   23.69
  -6   9  -1  -20.70   23.98
   6  -9   2   26.97   25.07
  -6   9  -2   -2.48   24.85
   6  -9   3   12.69   21.57
  -6   9  -3   25.74   24.67
   6  -9   4   -6.89   23.20
  -6   9  -4  -19.54   23.64
   6  -9   5  -41.17   23.20
  -6   9  -5   19.14   23.00
   6  -9   6   -5.96   22.10
  -6   9  -6   -7.63   22.59
   6  -9   7  -49.47   23.69
  -6   9  -7   35.46   25.34
   6  -9   8  -34.08   25.43
  -6   9  -8  -42.29   25.90
   6  -9   9  -11.29   27.50
  -6   9  -9    1.47   28.84
   6  -9  10  -12.51   25.92
  -6   9 -10  -27.97   28.35
   5  -9  -3   -6.18   19.83
  -5   9   3   -6.76   20.65
   5  -9  -2  -42.18   21.90
  -5   9   2   35.91   21.99
   5  -9  -1  -12.74   22.71
  -5   9   1   15.77   23.84
   5  -9   0  -30.51   23.87
  -5   9   0   17.15   24.20
   5  -9   1   31.87   25.78
  -5   9  -1   -3.81   25.92
   5  -9   2  -21.19   25.29
  -5   9  -2   11.71   24.82
  -5   9  -3    9.21   25.27
   5  -9   5  -10.13   23.31
  -5   9  -5    3.68   23.29
   5  -9   6   24.04   22.46
  -5   9  -6   16.19   24.80
   5  -9   7    6.54   24.04
  -5   9  -7   -5.29   17.60
   5  -9   8    1.12   25.83
  -5   9  -8  -13.09   26.81
   5  -9   9  -32.21   29.08
  -5   9  -9    5.33   31.09
   5  -9  10   38.03   29.02
  -4   9   4   27.17   18.58
   4  -9  -3   -0.09   20.32
  -4   9   3    3.97   20.79
   4  -9  -2   22.71   21.95
  -4   9   2  -16.64   21.99
   4  -9  -1   -8.07   23.87
  -4   9   1   31.69   24.00
   4  -9   0  -17.89   24.04
  -4   9   0   20.50   24.96
   4  -9   1   60.56   26.05
  -4   9  -1   18.20   25.65
   4  -9   2  -19.72   26.34
  -4   9  -2  -42.51   25.92
  -4   9  -3  -14.90   25.29
   4  -9   4   23.95   24.24
  -4   9  -4   13.25   25.81
   4  -9   5    6.16   24.09
  -4   9  -5   13.36   25.34
   4  -9   6   10.95   23.66
  -4   9  -6   11.80   24.85
   4  -9   7  -34.64   24.18
   4  -9   8   13.96   26.05
   3  -9  -4   20.43   18.33
  -3   9   4    2.74   18.38
   3  -9  -3  -66.71   20.77
  -3   9   3   -8.77   21.08
   3  -9  -2   -0.98   22.15
  -3   9   2   21.21   21.52
   3  -9  -1   11.49   23.87
  -3   9   1    8.03   22.88
   3  -9   0   24.18   25.47
  -3   9   0  -20.32   25.76
   3  -9   1   19.96   26.07
  -3   9  -1    8.52   26.03
   3  -9   2   65.89   27.39
  -3   9  -2  -22.75   26.43
   3  -9   3   12.25   23.73
  -3   9  -3  -13.58   26.94
   3  -9   4   14.83   24.71
  -3   9  -4   14.21   25.54
   3  -9   5   17.40   25.47
  -3   9  -5   -0.74   25.78
   3  -9   6    5.46   26.34
  -3   9  -6   20.74   27.01
   2  -9  -4  -10.68   18.20
  -2   9   4  -44.83   18.49
   2  -9  -3   -8.30   19.54
  -2   9   3   19.96   19.16
   2  -9  -2   12.47   21.86
  -2   9   2   28.57   21.93
   2  -9  -1    9.59   23.73
  -2   9   1  -10.84   21.61
   2  -9   0   20.23   25.32
  -2   9   0  -16.77   24.96
   2  -9   1   -6.20   25.67
  -2   9  -1  -22.24   26.43
   2  -9   2  -25.90   26.45
  -2   9  -2   18.51   27.01
   2  -9   3   23.49   28.42
  -2   9  -3   50.81   29.00
   2  -9   4    2.50   21.43
  -2   9  -4  -50.30   28.62
   1  -9  -5  -10.37   14.56
  -1   9   5   -4.26   14.65
   1  -9  -4   17.89   17.55
  -1   9   4  -40.86   16.68
   1  -9  -3    4.19   19.45
  -1   9   3   26.56   19.00
   1  -9  -2   -0.07   20.88
  -1   9   2   11.31   19.98
   1  -9  -1   -0.42   23.02
  -1   9   1   50.50   21.97
   1  -9   0   15.77   24.22
  -1   9   0  -12.74   24.71
   1  -9   1   76.70   26.70
  -1   9  -1   93.32   28.68
   1  -9   2   14.30   27.28
  -1   9  -2   40.68   30.45
   1  -9   3   59.84   29.73
   0  -9  -5    8.48   14.05
   0   9   5   23.93   14.12
   0  -9  -4  -24.18   16.88
   0   9   4    2.68   16.06
   0  -9  -3   37.56   19.07
   0   9   3    0.56   18.11
   0  -9  -2   35.26   20.81
   0   9   2   -7.32   19.47
   0  -9  -1   42.24   22.91
   0   9   1   60.80   22.19
   0  -9   0  -18.18   25.56
   0   9   0   -6.83   26.50
   0  -9   1   62.81   29.24
   0   9  -1   49.69   29.80
   1   9   6   -6.98   10.48
  -1  -9  -5    6.65   12.38
   1   9   5   10.95   12.27
  -1  -9  -4  -10.28   15.70
   1   9   4    3.14   14.68
  -1  -9  -3   46.42   18.38
   1   9   3   36.74   18.42
  -1  -9  -2   57.90   21.72
   1   9   2    7.65   20.27
  -1  -9  -1   82.28   23.93
   1   9   1   22.84   24.80
  -2  -9  -6   11.80    9.88
  -2  -9  -5   -0.78   11.33
   2   9   5    5.31   11.64
  -2  -9  -4   11.22   14.52
   2   9   4   -3.95   13.47
  -2  -9  -3    2.54   18.47
   2   9   3  -15.64   18.40
  -3  -9  -6   16.44    8.27
   3   9   6    8.25    8.81
  -3  -9  -5   -3.64   10.37
  -4  -9  -7   -0.07    4.73
   4   9   7    8.14    5.46
  -4  -9  -6    9.28    7.52
  -6  -9  -9   -2.32    8.61
   6   9   9    5.35    8.21
  -6  -9  -8    0.16    5.71
  -7  -9 -10  -15.66    8.99
   7   9  10   15.97    9.39
  -7  -9  -9   24.76    9.10
   7   9   9   11.51    9.06
  -8  -9 -10    3.59    9.39
   8   9  10   -9.28   10.13
  -8  -9  -9  -10.77    9.37
   8   9   9   10.46    9.57
  -9  -9  -9   -6.49    9.46
 -16  10  -1   65.71   25.90
  15 -10   0   47.46   25.34
 -15  10   0   29.04   21.81
 -15  10  -1   42.94   26.16
  15 -10   2   14.77   24.18
 -15  10  -2  -23.15   23.93
  15 -10   3   -2.99   25.00
 -15  10  -3  -34.73   25.58
  15 -10   4  -26.99   26.79
 -15  10  -4  -30.24   25.40
  14 -10   0    1.76   22.84
 -14  10   0   -7.36   24.91
  14 -10   1  -19.92   24.82
 -14  10  -1  -32.45   26.12
  14 -10   2   11.13   25.94
 -14  10  -2   63.77   26.72
  14 -10   3   54.91   26.50
 -14  10  -3    8.05   27.12
  14 -10   4   10.06   24.85
 -14  10  -4  -14.48   25.65
  14 -10   5  116.87   27.35
 -13  10   1    3.70   23.80
  13 -10   0   27.01   23.98
 -13  10   0   -2.23   25.03
  13 -10   1   13.54   25.34
 -13  10  -1  -19.58   25.58
  13 -10   2  -15.79   21.97
 -13  10  -2    1.38   26.10
  13 -10   3  492.26   44.36
 -13  10  -3  419.10   40.53
  13 -10   4   65.28   27.12
 -13  10  -4   74.03   27.37
  13 -10   5   87.90   28.01
  13 -10   6    3.46   24.51
 -13  10  -6  -22.46   24.74
  12 -10  -1   55.69   22.66
 -12  10   1    8.61   22.82
  12 -10   0    2.16   23.40
 -12  10   0  -24.98   22.73
  12 -10   1  -41.13   23.89
 -12  10  -1   17.15   24.31
 -12  10  -2  135.88   27.66
  12 -10   3   36.47   25.18
 -12  10  -3   -4.13   25.40
  12 -10   4   53.91   27.35
 -12  10  -4   30.02   26.30
  12 -10   5   87.46   28.08
 -12  10  -5   99.32   29.71
  12 -10   6   30.22   26.52
 -12  10  -6  -19.40   25.27
  12 -10   7   11.53   24.18
 -12  10  -7   39.23   25.27
 -11  10   2   27.06   22.77
  11 -10  -1    2.34   22.39
 -11  10   1  -33.23   22.44
  11 -10   0  -49.05   23.26
 -11  10   0   13.54   22.66
  11 -10   1   27.12   23.15
 -11  10  -1   64.44   24.24
 -11  10  -2   -5.31   24.56
  11 -10   3    2.45   23.64
 -11  10  -3  -20.14   23.78
  11 -10   4  -28.68   24.65
 -11  10  -4  -13.32   24.96
  11 -10   5   10.08   27.28
 -11  10  -5  -31.07   26.83
  11 -10   6  167.53   30.89
 -11  10  -8    1.20   26.12
  10 -10  -2   18.31   20.97
 -10  10   2   -1.05   19.85
  10 -10  -1   -5.53   21.30
 -10  10   1   15.12   22.53
  10 -10   0  541.32   44.43
 -10  10   0  546.01   44.88
  10 -10   1   15.52   22.39
 -10  10  -1   43.78   21.75
 -10  10  -2   -5.06   23.00
  10 -10   3   -2.97   22.77
 -10  10  -3   63.43   24.71
  10 -10   4   24.74   24.58
 -10  10  -4    0.38   22.79
  10 -10   5   31.49   25.98
 -10  10  -5  -36.29   24.60
  10 -10   6   39.03   27.17
  10 -10   7    1.52   25.56
 -10  10  -7  -26.61   25.34
  10 -10   8   68.59   26.19
 -10  10  -8   42.51   26.36
   9 -10  -2   42.40   21.72
  -9  10   2    3.66   21.59
   9 -10  -1    7.00   21.39
  -9  10   1   11.93   21.93
   9 -10   0    8.61   23.17
  -9  10   0  -23.98   22.59
   9 -10   1    9.86   22.55
  -9  10  -1  -36.74   21.93
   9 -10   2  -17.13   23.49
  -9  10  -2  -17.46   21.55
   9 -10   3    9.88   23.15
  -9  10  -3   -7.54   23.08
   9 -10   4   74.83   24.65
  -9  10  -4   57.08   24.71
   9 -10   5   -8.23   23.91
  -9  10  -5  -25.98   23.87
   9 -10   6   23.24   25.05
   9 -10   7    9.68   26.50
  -9  10  -7  -15.97   27.06
   9 -10   8   83.04   27.63
  -9  10  -8  107.80   28.08
   9 -10   9  -16.86   24.96
  -9  10  -9   -0.83   26.88
  -8  10   3    4.80   20.50
   8 -10  -2   -6.09   20.23
  -8  10   2   54.76   23.26
   8 -10  -1   37.60   22.46
  -8  10   1   17.64   23.33
   8 -10   0   16.84   22.30
  -8  10   0  -19.98   21.97
   8 -10   1   41.64   22.97
  -8  10  -1   47.11   23.51
   8 -10   2   49.76   23.80
  -8  10  -2   49.11   23.22
  -8  10  -3   33.46   23.69
   8 -10   4  404.15   37.85
  -8  10  -4  413.07   37.96
   8 -10   5   31.81   24.58
  -8  10  -5   15.01   23.80
   8 -10   6  349.51   36.53
  -8  10  -6  405.94   39.61
   8 -10   7  -31.49   25.63
  -8  10  -7   -7.94   23.11
   8 -10   8   82.04   27.63
  -8  10  -8  121.20   30.16
   8 -10   9   27.68   24.96
  -8  10  -9    0.40   26.79
   7 -10  -3   45.95   19.47
  -7  10   3   51.95   21.21
   7 -10  -2   20.05   21.17
  -7  10   2    0.27   21.88
   7 -10  -1    1.41   22.15
  -7  10   1   -2.19   22.97
   7 -10   1  -12.29   22.10
  -7  10  -1   33.61   22.79
   7 -10   2   63.90   23.55
  -7  10  -2    7.54   22.01
  -7  10  -3   58.97   23.51
   7 -10   4   13.85   22.66
  -7  10  -4   28.82   23.66
   7 -10   5  -29.00   22.86
  -7  10  -5   -8.30   22.91
   7 -10   6    2.07   23.66
  -7  10  -6   67.40   25.36
   7 -10   7   68.41   25.78
   7 -10   8   38.97   27.68
  -7  10  -8  -24.76   25.63
   7 -10   9  -26.23   26.21
  -7  10  -9   21.39   28.08
   6 -10  -3   39.08   20.43
  -6  10   3   29.29   21.39
   6 -10  -2    2.63   21.86
  -6  10   2  -65.08   22.26
   6 -10  -1  -20.77   21.81
  -6  10   1  -38.03   22.46
   6 -10   0   94.70   24.53
  -6  10   0   60.09   24.78
   6 -10   1  -46.64   23.51
  -6  10  -1   33.23   23.20
   6 -10   2  -10.82   23.22
  -6  10  -2    1.83   23.02
  -6  10  -3   37.52   23.29
   6 -10   4  -12.36   23.24
  -6  10  -4  -16.53   23.71
   6 -10   5   14.70   23.17
  -6  10  -5  -40.10   22.50
   6 -10   6   23.87   23.02
  -6  10  -6   -1.36   22.95
   6 -10   7   38.43   25.36
   6 -10   8   11.17   25.81
  -6  10  -8   13.83   27.99
   6 -10   9  102.44   30.16
  -6  10  -9  116.65   31.61
   6 -10  10   -1.09   26.39
  -6  10 -10   48.15   29.93
   5 -10  -4   14.61   19.00
  -5  10   4    9.23   18.69
   5 -10  -3   96.93   21.93
  -5  10   3  131.97   23.29
   5 -10  -2  -28.39   20.77
  -5  10   2    9.30   21.46
   5 -10  -1  406.16   35.82
  -5  10   1  368.47   34.21
   5 -10   0   -1.38   23.08
  -5  10   0  -15.35   22.75
   5 -10   1  397.68   37.36
  -5  10  -1  309.14   32.97
   5 -10   2   32.27   23.75
  -5  10  -2    7.00   23.22
   5 -10   3  112.68   25.78
  -5  10  -3   76.97   24.29
   5 -10   4    1.61   22.53
  -5  10  -4   13.72   23.91
   5 -10   5   -6.36   23.82
  -5  10  -5   10.39   23.15
   5 -10   6   -1.29   22.97
  -5  10  -6   25.36   24.07
   5 -10   7   19.74   24.96
  -5  10  -7   17.26   24.76
   5 -10   8   46.93   26.97
  -5  10  -8  -17.51   30.04
   5 -10   9  326.76   39.90
  -5  10  -9  372.04   44.59
   5 -10  10   -5.09   27.63
   4 -10  -4  -24.69   18.94
  -4  10   4    7.74   18.56
   4 -10  -3   23.22   19.69
  -4  10   3   23.15   20.56
   4 -10  -2   21.28   20.85
  -4  10   2    1.16   20.94
   4 -10  -1   11.91   22.24
  -4  10   1   15.30   21.68
   4 -10   0   20.34   22.57
  -4  10   0   23.91   24.38
   4 -10   1   -3.43   24.33
  -4  10  -1   40.13   24.69
   4 -10   2    7.29   24.24
  -4  10  -2   13.63   24.16
   4 -10   3  -13.85   23.44
  -4  10  -3  -11.26   24.04
  -4  10  -4   43.31   24.65
   4 -10   5   86.38   25.58
  -4  10  -5  103.67   26.70
   4 -10   6   15.17   23.62
  -4  10  -6    6.09   25.25
   4 -10   7  -10.88   25.09
  -4  10  -7   26.79   27.12
   4 -10   8  -32.12   27.90
  -4  10  -8  -17.49   21.95
  -3  10   5  109.96   18.02
   3 -10  -4   71.86   19.36
  -3  10   4   46.57   18.20
   3 -10  -3  548.24   40.93
  -3  10   3  582.81   42.67
   3 -10  -2   17.91   21.35
  -3  10   2   -6.49   20.50
   3 -10  -1  -17.53   22.26
  -3  10   1   52.59   23.17
   3 -10   0   -2.03   23.37
  -3  10   0  -21.84   23.87
   3 -10   1   45.61   24.91
  -3  10  -1   76.75   25.52
   3 -10   2   22.15   25.40
  -3  10  -2  -14.99   24.85
   3 -10   3  560.28   45.57
  -3  10  -3  587.49   47.20
  -3  10  -4   49.92   26.45
   3 -10   5  133.45   27.50
  -3  10  -5  206.43   31.63
   3 -10   6   -1.72   25.92
  -3  10  -6   32.30   28.46
   2 -10  -5   11.53   16.28
  -2  10   5   24.24   16.48
   2 -10  -4   49.18   18.16
  -2  10   4   40.48   17.22
   2 -10  -3   36.49   19.65
  -2  10   3   20.68   18.27
   2 -10  -2   73.36   22.75
  -2  10   2  104.85   23.22
   2 -10  -1  -19.69   22.42
  -2  10   1   38.10   22.50
   2 -10   0  170.90   27.23
  -2  10   0  184.12   26.97
   2 -10   2   64.64   26.54
  -2  10  -2   55.45   26.23
   2 -10   3   11.13   25.45
  -2  10  -3   38.79   26.85
  -2  10  -4   57.97   29.06
   1 -10  -5   39.23   16.13
  -1  10   5   22.88   14.99
   1 -10  -4   -8.77   17.00
  -1  10   4   -1.49   16.64
   1 -10  -3   15.84   18.82
  -1  10   3   12.38   18.51
   1 -10  -2   26.56   20.85
  -1  10   2   20.56   20.59
   1 -10  -1   89.31   24.09
  -1  10   1  133.31   23.78
   1 -10   0  -34.46   23.55
  -1  10   0   23.62   23.84
   1 -10   1  142.10   27.68
  -1  10  -1  159.92   29.22
   1 -10   2  -21.08   26.54
  -1  10  -2   -7.29   28.50
   1 -10   3   45.08   27.88
   0 -10  -6  120.82   15.08
   0  10   6  117.86   15.55
   0 -10  -5    4.19   14.32
   0  10   5   -6.49   14.16
   0 -10  -4  217.44   22.30
   0  10   4  217.51   21.61
   0 -10  -3  -12.56   18.60
   0  10   3    1.27   17.49
   0 -10  -2 1031.57   67.67
   0  10   2 1046.52   68.45
   0 -10  -1    1.38   22.17
   0  10   1   40.04   23.00
   0 -10   1   24.00   27.26
   0  10  -1    3.81   28.86
  -1 -10  -6   56.59   12.71
   1  10   6   36.71   12.40
  -1 -10  -5   38.39   13.43
   1  10   5   30.74   13.52
  -1 -10  -4   -8.12   15.79
   1  10   4    8.30   14.74
  -1 -10  -3   16.33   18.07
   1  10   3   57.86   17.73
  -1 -10  -2   -7.83   19.36
   1  10   2   17.87   19.96
  -1 -10  -1  185.19   27.84
   1  10   1  219.63   29.55
   2  10   7    4.22    9.64
  -2 -10  -6   27.35   11.17
   2  10   6   29.75   11.31
  -2 -10  -5   24.67   12.58
   2  10   5   -7.18   12.20
  -2 -10  -4   53.20   15.30
   2  10   4   51.99   15.01
  -2 -10  -3   72.69   18.31
   2  10   3   44.43   18.38
  -3 -10  -7   57.39    9.46
   3  10   7   25.27    8.63
  -3 -10  -6  -12.89    9.81
  -3 -10  -5  146.14   15.59
   3  10   5  113.86   14.23
  -3 -10  -4   71.02   16.35
  -4 -10  -7    7.36    7.27
   4  10   7   21.32    7.56
  -4 -10  -6   15.66    9.48
  -7 -10  -9   -5.24    6.47
 -15  11   1  -48.89   24.38
  15 -11   0  -16.08   24.27
 -15  11   0   -0.78   23.37
  15 -11   1   10.19   23.51
 -15  11  -1  -48.65   24.78
 -15  11  -2   35.82   25.83
  14 -11  -1  -20.79   24.65
 -14  11   1  -24.27   22.68
  14 -11   0   34.30   25.52
 -14  11   0   15.03   25.36
  14 -11   1    6.13   25.36
 -14  11  -1   23.98   25.78
 -14  11  -2   10.91   25.61
  14 -11   3    7.61   25.29
 -14  11  -3  -22.08   24.40
  14 -11   4   -6.54   24.87
 -14  11  -4   27.10   26.48
  13 -11  -1   20.16   23.75
 -13  11   1  -49.67   25.14
  13 -11   0   18.65   26.48
 -13  11   0  -21.97   24.62
  13 -11   1   21.43   25.34
 -13  11  -1  -20.45   25.67
 -13  11  -2   79.83   27.99
  13 -11   3   22.08   26.43
 -13  11  -3  -26.07   26.97
  13 -11   4   10.53   26.21
 -13  11  -4  -16.86   25.96
  13 -11   5    3.17   24.33
 -13  11  -5  -25.27   25.49
 -12  11   2   -9.12   24.51
  12 -11  -1   24.96   25.11
 -12  11   1   28.42   26.07
  12 -11   0  -33.75   25.83
 -12  11   0   42.38   25.07
  12 -11   1   -1.45   24.24
 -12  11  -1   25.49   25.45
  12 -11   2   47.55   25.52
 -12  11  -2   11.75   25.52
  12 -11   3   42.00   26.68
 -12  11  -3    5.84   27.37
  12 -11   4  -27.63   25.85
 -12  11  -4   12.91   27.61
  12 -11   5  -17.11   25.56
 -12  11  -5  -30.94   27.19
  12 -11   6  -11.35   25.47
  11 -11  -2   11.20   21.19
 -11  11   2   -5.13   23.80
  11 -11  -1   17.15   23.87
 -11  11   1   13.56   24.02
  11 -11   0   16.39   22.93
 -11  11   0   17.40   23.04
  11 -11   1  -29.11   23.89
 -11  11  -1   10.17   23.84
  11 -11   2    7.32   25.29
 -11  11  -2   43.94   24.82
  11 -11   3   10.97   18.91
 -11  11  -3   33.43   26.25
  11 -11   4   13.29   25.47
 -11  11  -4   12.78   27.39
  11 -11   5    0.87   27.14
 -11  11  -5    1.12   27.39
  11 -11   6   34.13   26.81
 -11  11  -6   81.90   28.62
  11 -11   7   21.17   25.49
 -11  11  -7   15.93   26.27
 -10  11   3    6.69   22.24
  10 -11  -2   19.20   22.33
 -10  11   2  -13.43   22.10
  10 -11  -1   14.01   21.79
 -10  11   1   47.08   23.89
  10 -11   0   -1.83   22.42
 -10  11   0   37.20   23.31
  10 -11   1  -17.24   23.29
 -10  11  -1   19.76   22.79
  10 -11   2   -6.04   23.20
 -10  11  -2   47.29   24.42
 -10  11  -3  -28.75   24.87
  10 -11   4   35.49   25.92
 -10  11  -4    1.65   25.38
  10 -11   5    5.33   25.94
 -10  11  -5   -5.46   27.43
  10 -11   6   28.59   27.28
 -10  11  -6   43.47   29.42
  10 -11   7   -0.58   25.38
 -10  11  -7   12.29   19.36
   9 -11  -3  -33.48   21.61
  -9  11   3    2.03   20.10
   9 -11  -2   -0.29   20.79
  -9  11   2   24.11   22.46
   9 -11  -1   17.62   21.64
  -9  11   1   32.39   22.53
   9 -11   0  -35.93   22.62
  -9  11   0    7.14   23.06
   9 -11   1  -14.61   23.46
  -9  11  -1   -3.19   23.80
   9 -11   2   -7.47   23.04
  -9  11  -2   25.65   23.22
  -9  11  -3    6.47   23.95
   9 -11   4   41.75   24.89
  -9  11  -4    2.90   24.80
   9 -11   5    9.97   26.05
  -9  11  -5   21.72   26.92
   9 -11   6    2.65   26.81
  -9  11  -6   27.50   28.44
   9 -11   7   -8.32   26.45
   9 -11   8   -8.12   24.71
  -9  11  -8   23.06   25.43
   8 -11  -3  -20.16   21.23
  -8  11   3   18.60   21.86
   8 -11  -2  -20.94   20.56
  -8  11   2  -22.26   21.01
   8 -11  -1   15.21   22.19
  -8  11   1    2.90   22.30
   8 -11   0    1.47   21.32
  -8  11   0   38.56   22.84
   8 -11   1    5.04   23.64
  -8  11  -1   17.20   22.33
   8 -11   2   -2.68   22.26
  -8  11  -2  -18.42   22.30
   8 -11   3    2.77   21.59
  -8  11  -3   66.85   23.58
   8 -11   4  -19.45   23.64
  -8  11  -4    9.93   24.11
   8 -11   5   22.59   24.58
  -8  11  -5  -13.52   24.09
   8 -11   6   39.57   26.97
  -8  11  -6  -23.71   26.14
   8 -11   7   37.38   27.86
   8 -11   8   50.32   27.41
  -8  11  -8   14.39   27.12
  -7  11   4   19.76   20.99
   7 -11  -3  -22.26   21.30
  -7  11   3    8.01   21.35
   7 -11  -2   -1.00   20.77
  -7  11   2   12.40   21.08
   7 -11  -1    3.57   21.12
  -7  11   1  -13.61   21.97
   7 -11   0    1.45   21.75
  -7  11   0   25.27   22.88
   7 -11   1  -13.00   23.00
  -7  11  -1   -9.12   23.44
   7 -11   2   37.00   23.24
  -7  11  -2   -3.03   22.37
   7 -11   3    0.98   23.24
  -7  11  -3  -22.53   22.50
   7 -11   4  -31.29   18.38
  -7  11  -4   -8.77   23.69
   7 -11   5    1.94   23.40
  -7  11  -5   30.82   24.49
   7 -11   6  -23.13   25.29
  -7  11  -6    8.41   26.07
   7 -11   7   -4.04   26.68
  -7  11  -7  -23.31   28.04
   7 -11   8   13.00   27.03
  -7  11  -8   34.24   27.12
   7 -11   9   -4.24   24.71
  -7  11  -9   26.36   26.65
   6 -11  -4   20.70   18.20
  -6  11   4   -4.06   19.18
   6 -11  -3   -5.87   20.99
  -6  11   3  -22.26   21.01
   6 -11  -2   27.43   20.79
  -6  11   2    0.85   21.26
   6 -11  -1   28.33   21.43
  -6  11   1  -30.69   21.84
   6 -11   0   -6.54   22.48
  -6  11   0  -49.11   22.37
   6 -11   1    7.49   22.08
  -6  11  -1   29.26   23.35
   6 -11   2   35.33   23.08
  -6  11  -2    4.37   23.17
   6 -11   3  -23.87   23.46
  -6  11  -3  -22.08   22.26
  -6  11  -4    2.94   23.35
   6 -11   5  -34.88   23.22
  -6  11  -5   -1.67   23.60
   6 -11   6   -0.11   24.53
  -6  11  -6   19.98   24.94
   6 -11   7   18.47   27.12
  -6  11  -7   17.55   26.99
   6 -11   8   25.20   28.28
   6 -11   9   26.48   26.70
  -6  11  -9    3.55   27.39
   5 -11  -4   19.27   19.61
  -5  11   4   17.06   18.82
   5 -11  -3   18.89   19.78
  -5  11   3  -12.16   19.09
   5 -11  -2    9.28   20.54
  -5  11   2   26.14   21.23
   5 -11  -1    8.19   22.46
  -5  11   1  -35.42   22.04
   5 -11   0   12.45   22.28
  -5  11   0   18.16   22.53
   5 -11   1  -12.16   22.50
  -5  11  -1    2.68   22.93
   5 -11   2   15.50   22.24
  -5  11  -2   26.61   23.08
   5 -11   3   19.40   23.80
  -5  11  -3  -17.73   22.24
  -5  11  -4   42.18   23.08
   5 -11   5   11.73   23.11
  -5  11  -5   -1.16   23.24
   5 -11   6  -27.03   24.29
  -5  11  -6   -4.17   24.38
   5 -11   7   12.53   27.10
  -5  11  -7   16.91   27.10
   5 -11   8   32.65   28.79
   5 -11   9  -38.70   28.26
  -5  11  -9  -16.73   30.76
   4 -11  -5    2.28   17.89
  -4  11   5   14.01   17.22
   4 -11  -4   15.41   19.29
  -4  11   4   34.17   18.16
   4 -11  -3   31.69   19.34
  -4  11   3    9.97   19.32
   4 -11  -2   -8.79   20.30
  -4  11   2   16.15   21.08
   4 -11  -1   22.66   21.57
  -4  11   1   33.55   22.17
   4 -11   0   17.09   22.24
  -4  11   0  -14.48   22.93
   4 -11   1   22.86   23.35
  -4  11  -1  -19.92   24.22
   4 -11   2  -35.13   22.44
  -4  11  -2   43.31   23.64
   4 -11   3  -16.06   23.49
  -4  11  -3    0.74   22.86
   4 -11   4   17.35   24.69
  -4  11  -4   23.64   22.82
   4 -11   5   31.07   24.47
  -4  11  -5  -16.84   24.67
   4 -11   6   14.54   24.65
  -4  11  -6   71.44   26.79
   4 -11   7   34.62   26.90
  -4  11  -7   50.39   28.93
   4 -11   8   56.36   30.04
   3 -11  -5    6.31   17.60
  -3  11   5   22.28   16.73
   3 -11  -4    1.70   18.91
  -3  11   4    2.81   17.26
   3 -11  -3   32.50   19.87
  -3  11   3   -3.39   18.56
   3 -11  -2   38.39   20.63
  -3  11   2   66.89   21.21
   3 -11  -1  -27.23   21.32
  -3  11   1   -9.86   21.39
   3 -11   0    5.53   22.30
  -3  11   0    8.74   22.86
   3 -11   1   33.63   23.73
  -3  11  -1    4.93   23.40
   3 -11   2   -1.07   22.93
  -3  11  -2  -40.77   22.13
   3 -11   3   22.26   23.29
  -3  11  -3  -14.14   23.24
   3 -11   4   24.36   24.33
  -3  11  -4   11.38   23.73
  -3  11  -5   29.17   26.61
   3 -11   6    2.77   25.23
  -3  11  -6   14.79   28.50
  -2  11   6   -9.77   14.34
   2 -11  -5   24.80   16.53
  -2  11   5  -22.66   16.37
   2 -11  -4    1.70   17.26
  -2  11   4   19.47   16.80
   2 -11  -3  -47.78   19.67
  -2  11   3    1.56   17.89
   2 -11  -2   24.49   20.23
  -2  11   2    0.09   20.14
   2 -11  -1    7.72   20.90
  -2  11   1    9.59   21.39
   2 -11   0  -43.29   22.28
  -2  11   0   -8.63   22.39
   2 -11   1   36.58   23.04
  -2  11  -1   48.00   24.09
   2 -11   2  -17.62   24.16
  -2  11  -2   30.89   25.94
   2 -11   3   19.25   24.45
  -2  11  -3    5.40   24.96
   2 -11   4  -52.19   25.49
  -2  11  -4   -2.28   25.38
   1 -11  -6  -19.65   14.61
  -1  11   6    7.94   14.10
   1 -11  -5   -1.81   15.70
  -1  11   5   -1.74   14.65
   1 -11  -4   15.50   16.84
  -1  11   4   26.52   16.71
   1 -11  -3  -25.98   18.04
  -1  11   3   19.67   17.31
   1 -11  -2   13.49   19.74
  -1  11   2   30.96   18.98
   1 -11  -1   53.55   21.17
  -1  11   1   77.06   21.77
   1 -11   0  -29.75   22.44
  -1  11   0    4.77   22.57
   1 -11   1   47.57   23.69
  -1  11  -1   40.15   25.29
   1 -11   2   -3.50   25.58
  -1  11  -2   33.84   28.21
   1 -11   3  -25.67   25.76
   0 -11  -6   -5.53   14.43
   0  11   6   -0.25   13.49
   0 -11  -5   19.72   14.85
   0  11   5    5.35   13.76
   0 -11  -4   13.00   16.42
   0  11   4  -14.41   15.61
   0 -11  -3   67.67   18.58
   0  11   3   47.51   18.22
   0 -11  -2  -15.77   19.92
   0  11   2  -13.43   18.49
   0 -11  -1  152.52   24.53
   0  11   1  192.95   26.01
   0 -11   0   -8.41   23.37
   0  11   0   11.60   24.00
   0 -11   1  206.18   30.13
   0  11  -1  191.59   31.20
  -1 -11  -7   11.78   12.18
   1  11   7  -22.95   12.16
  -1 -11  -6   -1.16   12.74
   1  11   6  -20.54   12.60
  -1 -11  -5   17.13   14.56
   1  11   5   13.52   13.56
  -1 -11  -4   37.54   16.17
   1  11   4   27.79   15.14
  -1 -11  -3   17.62   18.00
   1  11   3   14.74   17.17
  -1 -11  -2   33.43   20.27
   1  11   2   -7.94   19.25
  -1 -11  -1   -5.06   22.77
   1  11   1   31.96   24.56
  -2 -11  -7    2.77   11.06
   2  11   7   -1.25   10.71
  -2 -11  -6   -2.30   11.80
   2  11   6  -26.12   12.07
  -2 -11  -5   14.74   13.32
   2  11   5   -1.16   12.85
  -2 -11  -4  -12.87   15.17
   2  11   4  -16.06   14.19
  -2 -11  -3    7.43   18.45
   2  11   3   23.78   18.42
  -2 -11  -2   12.78   20.81
  -3 -11  -7   -3.21   10.06
  -3 -11  -6   36.91   11.38
   3  11   6   50.18   11.58
  -3 -11  -5  -15.32   12.98
   3  11   5  -20.05   12.76
  -3 -11  -4   10.06   15.81
  -4 -11  -8   26.72    8.72
   4  11   8   40.42    8.85
  -4 -11  -7   -9.79    9.37
   4  11   7    4.57    9.19
  -4 -11  -6    9.95   11.11
   4  11   6    2.03   11.91
  -5 -11  -8   30.47    7.58
   5  11   8   31.76    7.94
 -14  12   2   -5.31   24.13
  14 -12  -1   26.16   24.65
 -14  12   1  -20.77   24.62
  14 -12   0    3.75   23.87
 -14  12   0   -8.52   24.65
  14 -12   1    8.54   24.29
 -14  12  -1  -69.70   25.76
  14 -12   2   14.48   24.69
 -14  12  -2  -23.24   25.25
  14 -12   3   22.46   22.26
 -14  12  -3   52.33   26.39
  13 -12  -2    5.17   24.96
 -13  12   2   -5.49   22.86
  13 -12  -1   97.58   26.79
 -13  12   1  109.11   27.97
  13 -12   0  -40.39   25.18
 -13  12   0   -2.07   25.58
  13 -12   1   75.08   27.08
 -13  12  -1   56.83   28.17
  13 -12   2   28.06   25.85
 -13  12  -2   32.25   26.45
 -13  12  -3  -27.55   25.45
  13 -12   4  -37.03   26.25
 -13  12  -4  -11.87   25.25
  12 -12  -2   24.04   23.78
 -12  12   2    6.65   25.23
  12 -12  -1   89.80   26.48
 -12  12   1  140.18   28.75
  12 -12   0   38.05   26.63
 -12  12   0   58.50   26.92
  12 -12   1  101.40   28.33
 -12  12  -1  139.96   29.66
  12 -12   2    4.28   25.76
 -12  12  -2   47.11   26.72
 -12  12  -3   86.74   29.11
  12 -12   4   17.78   25.98
 -12  12  -4  -16.55   26.45
  12 -12   5   51.88   26.36
 -12  12  -5   72.49   28.39
 -11  12   3    8.74   25.03
  11 -12  -2   19.78   23.80
 -11  12   2   -6.87   24.56
  11 -12  -1   54.51   24.80
 -11  12   1   30.04   23.95
  11 -12   0  -13.29   25.32
 -11  12   0    2.45   25.69
  11 -12   1   72.62   27.19
 -11  12  -1   37.94   24.76
  11 -12   2   28.37   25.58
 -11  12  -2   57.72   26.34
 -11  12  -3  -58.66   27.21
  11 -12   4   97.51   28.66
 -11  12  -4   37.96   28.42
  11 -12   5  -39.05   26.74
 -11  12  -5   17.40   26.63
  11 -12   6   22.01   24.94
 -11  12  -6  -21.08   26.41
  10 -12  -3  -20.99   21.39
 -10  12   3  -22.79   23.73
  10 -12  -2   20.14   22.75
 -10  12   2   31.27   24.20
  10 -12  -1    1.92   22.93
 -10  12   1  -19.72   23.71
  10 -12   0   -0.16   24.11
 -10  12   0  -14.34   23.40
  10 -12   1    2.65   23.84
 -10  12  -1   -6.60   24.18
  10 -12   2   29.11   24.71
 -10  12  -2  -26.74   24.09
  10 -12   3   15.72   25.69
 -10  12  -3   10.06   26.19
  10 -12   4   50.63   24.74
 -10  12  -4   71.15   28.53
  10 -12   5    2.56   27.32
 -10  12  -5   29.42   28.10
  10 -12   6   64.50   26.81
 -10  12  -6    5.22   27.57
  10 -12   7   14.07   24.78
 -10  12  -7  -55.27   22.75
  -9  12   4  453.89   39.21
   9 -12  -3   -0.67   22.35
  -9  12   3    4.44   22.64
   9 -12  -2  114.20   24.42
  -9  12   2  107.82   24.69
   9 -12  -1   14.21   21.99
  -9  12   1   12.36   22.59
   9 -12   0    6.51   22.06
  -9  12   0   21.23   24.13
   9 -12   1   24.69   23.49
  -9  12  -1  -35.95   22.75
   9 -12   2   76.04   24.94
  -9  12  -2   83.51   25.40
   9 -12   3    2.19   25.34
  -9  12  -3    1.32   24.98
  -9  12  -4  443.63   41.69
   9 -12   5    4.55   26.65
  -9  12  -5  -19.72   27.66
   9 -12   6   36.98   28.10
  -9  12  -6   53.11   28.46
   8 -12  -4  -25.18   21.17
  -8  12   4  -20.59   21.81
   8 -12  -3   51.23   22.57
  -8  12   3    8.63   21.35
   8 -12  -2  -11.40   21.48
  -8  12   2  -51.34   21.75
   8 -12  -1   33.01   21.86
  -8  12   1   -2.70   22.08
   8 -12   0  168.49   26.16
  -8  12   0  202.54   28.06
   8 -12   1    0.29   22.33
  -8  12  -1   29.13   23.24
   8 -12   2  -31.40   22.88
  -8  12  -2    4.64   23.62
   8 -12   3   37.34   23.46
  -8  12  -3   23.00   24.74
  -8  12  -4   15.72   25.78
   8 -12   5  -15.61   25.83
  -8  12  -5    8.97   26.88
   8 -12   6   10.55   26.97
  -8  12  -6   40.13   28.53
   8 -12   7    4.73   26.77
  -8  12  -7   55.92   29.00
   8 -12   8   33.14   25.05
   7 -12  -4  165.99   24.82
  -7  12   4  104.25   23.24
   7 -12  -3   19.83   20.43
  -7  12   3   19.18   21.19
   7 -12  -2  -16.26   21.46
  -7  12   2   28.97   21.84
   7 -12  -1   10.73   21.28
  -7  12   1   41.82   22.19
   7 -12   0    0.49   21.79
  -7  12   0  -21.06   21.43
   7 -12   1   21.30   22.79
  -7  12  -1   24.76   23.51
   7 -12   3    9.77   23.02
  -7  12  -3  -25.69   23.13
  -7  12  -4  153.07   28.62
   7 -12   5   42.98   25.20
  -7  12  -5  -45.59   25.38
   7 -12   6  -56.30   26.77
  -7  12  -6    8.48   27.21
   7 -12   7  -64.12   26.97
  -7  12  -7   15.70   28.71
   7 -12   8   36.09   26.90
  -6  12   5   35.60   18.60
   6 -12  -4    6.09   20.16
  -6  12   4   22.17   19.29
   6 -12  -3   32.41   21.01
  -6  12   3   -1.43   21.88
   6 -12  -2   22.17   21.55
  -6  12   2    2.39   21.19
   6 -12  -1   59.04   21.81
  -6  12   1    0.36   20.94
   6 -12   0   -2.21   21.23
  -6  12   0  -13.20   22.93
   6 -12   1   56.43   22.75
  -6  12  -1    8.07   22.42
   6 -12   2  -37.83   24.18
  -6  12  -2   27.92   22.91
   6 -12   3    7.00   22.88
  -6  12  -3   11.29   23.08
   6 -12   4  -11.75   23.73
  -6  12  -4   -5.62   23.53
   6 -12   5    6.29   20.94
  -6  12  -5   26.50   25.23
   6 -12   6  -19.81   25.94
  -6  12  -6   27.21   26.92
   6 -12   7  107.08   29.24
  -6  12  -7  219.18   34.50
   6 -12   8   36.00   27.39
  -6  12  -8   22.37   29.22
   6 -12   9   -6.85   25.74
  -6  12  -9  -33.26   28.57
   5 -12  -5   11.13   17.78
  -5  12   5  -20.85   18.71
   5 -12  -4   24.69   19.40
  -5  12   4   20.94   19.00
   5 -12  -3  178.75   24.65
  -5  12   3  137.19   23.35
   5 -12  -2   27.61   21.39
  -5  12   2    4.37   21.50
   5 -12  -1   52.28   21.99
  -5  12   1   58.15   22.17
   5 -12   0    1.18   20.74
  -5  12   0   21.90   22.44
   5 -12   1   30.56   22.10
  -5  12  -1   58.19   23.98
   5 -12   2   22.26   23.69
  -5  12  -2   15.21   24.04
   5 -12   3  189.43   27.90
  -5  12  -3  208.97   28.50
   5 -12   4   36.00   23.11
  -5  12  -4   12.04   23.42
  -5  12  -5  -28.93   25.69
   5 -12   6   16.48   24.91
  -5  12  -6  -30.67   26.39
   5 -12   7   24.80   27.59
  -5  12  -7   44.14   29.80
   5 -12   8   44.36   29.00
  -5  12  -8    1.25   31.25
   5 -12   9    5.24   26.39
  -4  12   6  -13.40   18.11
   4 -12  -5   73.56   20.16
  -4  12   5   86.54   19.36
   4 -12  -4   32.76   19.45
  -4  12   4   11.02   18.96
   4 -12  -3  114.64   22.24
  -4  12   3   71.62   20.27
   4 -12  -2   -3.01   20.30
  -4  12   2  -34.17   20.19
   4 -12  -1  354.19   33.28
  -4  12   1  413.97   36.33
   4 -12   0   -4.66   21.64
  -4  12   0   37.60   23.02
   4 -12   1  405.27   37.05
  -4  12  -1  411.29   37.56
   4 -12   2   -0.11   22.50
  -4  12  -2  -28.91   22.55
   4 -12   3   81.75   25.11
  -4  12  -3   94.32   25.05
   4 -12   4   21.52   23.95
  -4  12  -4   10.19   22.73
  -4  12  -5   87.70   26.45
   4 -12   6  -34.77   25.11
  -4  12  -6   -8.07   27.61
   4 -12   7  428.69   43.45
  -4  12  -7  428.02   46.48
   4 -12   8   14.61   29.24
  -4  12  -8  -32.68   33.01
   3 -12  -6   20.99   17.29
  -3  12   6   -5.09   16.88
   3 -12  -5   21.08   18.45
  -3  12   5   35.49   17.64
   3 -12  -4   75.77   19.45
  -3  12   4   52.75   18.47
   3 -12  -3   57.05   20.92
  -3  12   3   38.43   19.16
   3 -12  -2    4.19   20.30
  -3  12   2   28.86   19.74
   3 -12  -1   33.28   20.70
  -3  12   1   18.02   21.50
   3 -12   0   -7.41   22.10
  -3  12   0   -0.76   22.04
   3 -12   1   12.58   21.43
  -3  12  -1   26.45   22.59
   3 -12   2   56.36   23.98
  -3  12  -2   33.99   23.26
   3 -12   3   57.77   24.24
  -3  12  -3   26.23   24.00
   3 -12   4   59.17   24.29
  -3  12  -4   14.21   24.40
   3 -12   5   72.67   24.82
  -3  12  -5   42.22   27.35
   3 -12   6   14.65   25.72
  -3  12  -6  -15.10   29.53
   3 -12   7   -6.71   28.08
   2 -12  -6    6.47   17.15
  -2  12   6   19.54   15.95
   2 -12  -5    8.12   17.71
  -2  12   5   -4.35   16.39
   2 -12  -4   16.53   18.42
  -2  12   4   21.19   17.22
   2 -12  -3   16.59   18.76
  -2  12   3   12.58   17.29
   2 -12  -2    5.15   19.69
  -2  12   2  -10.55   19.83
   2 -12  -1   65.91   21.88
  -2  12   1    6.98   21.14
   2 -12   0   26.97   21.95
  -2  12   0   32.76   21.84
   2 -12   1  -31.65   20.90
  -2  12  -1   -3.03   22.93
   2 -12   2    3.75   23.66
  -2  12  -2   34.93   23.71
   2 -12   3  -34.01   23.02
  -2  12  -3    0.40   25.05
   2 -12   4   -3.17   24.82
  -2  12  -4   32.54   27.12
   2 -12   5  -21.35   26.05
  -1  12   7   -6.65   14.61
   1 -12  -6  183.10   21.08
  -1  12   6  228.40   21.93
   1 -12  -5   -2.70   16.24
  -1  12   5   21.97   15.97
   1 -12  -4  150.42   21.21
  -1  12   4  159.01   20.41
   1 -12  -3   83.69   20.43
  -1  12   3   54.82   18.38
   1 -12  -2  219.21   26.03
  -1  12   2  137.82   22.39
   1 -12  -1   35.49   21.01
  -1  12   1  -36.96   20.63
   1 -12   0   23.66   21.86
  -1  12   0   23.11   22.35
   1 -12   1   15.30   23.04
  -1  12  -1   10.77   23.40
   1 -12   2  174.84   28.84
  -1  12  -2  191.42   31.36
   1 -12   3   33.23   26.12
  -1  12  -3   88.19   28.37
   0 -12  -7    9.95   15.10
   0  12   7   -3.30   14.01
   0 -12  -6   23.40   15.26
   0  12   6   34.55   14.48
   0 -12  -5    2.45   15.68
   0  12   5    7.34   14.61
   0 -12  -4  102.93   18.71
   0  12   4   78.85   17.60
   0 -12  -3    1.36   18.04
   0  12   3   -0.80   17.09
   0 -12  -2  505.19   38.92
   0  12   2  430.92   34.73
   0 -12  -1   -6.85   19.98
   0  12   1   20.48   20.54
   0 -12   0  219.30   27.79
   0  12   0  226.39   29.15
   0 -12   1   47.93   25.00
   0  12  -1   -6.74   26.68
   1  12   8  166.97   18.20
  -1 -12  -7    2.61   13.87
   1  12   7  -11.91   13.45
  -1 -12  -6  221.17   20.70
   1  12   6  196.92   19.23
  -1 -12  -5    1.94   15.06
   1  12   5    9.75   14.14
  -1 -12  -4  102.44   18.09
   1  12   4  123.92   18.20
  -1 -12  -3   50.21   18.24
   1  12   3   37.69   17.91
  -1 -12  -2  230.40   25.90
   1  12   2  178.41   23.06
  -1 -12  -1   28.84   22.10
   1  12   1   15.43   22.64
  -2 -12  -8   -3.32   11.58
   2  12   8    8.45   12.56
  -2 -12  -7   48.89   13.20
   2  12   7   28.44   12.91
  -2 -12  -6    4.53   13.45
   2  12   6    3.19   12.89
  -2 -12  -5    0.45   13.94
   2  12   5  -21.46   13.49
  -2 -12  -4   14.81   16.39
   2  12   4   20.99   15.55
  -2 -12  -3    4.44   17.91
   2  12   3  -18.11   17.98
  -2 -12  -2   31.76   21.41
  -3 -12  -8   44.05   11.51
  -3 -12  -7   23.66   11.93
   3  12   7    1.87   11.73
  -3 -12  -6    4.84   12.80
   3  12   6  -24.94   12.29
  -3 -12  -5   48.51   13.94
   3  12   5   29.00   14.48
  -3 -12  -4   75.75   18.38
   4  12   9   45.14    9.03
  -4 -12  -8    3.99   10.13
   4  12   8   16.13   10.37
  -4 -12  -7  399.47   27.72
  -4 -12  -6   -0.36   12.60
   4  12   6  -14.01   13.36
  -5 -12  -9   -1.65    6.51
   5  12   9  -10.37    6.58
  -5 -12  -8    8.79    9.26
   5  12   8   19.63    9.81
  -5 -12  -7   30.20   13.83
 -13  13   3   27.39   25.85
  13 -13  -2   90.31   25.20
 -13  13   2   48.29   25.00
  13 -13  -1   60.42   25.90
 -13  13   1   20.74   24.76
  13 -13   0    3.75   25.05
 -13  13   0   20.45   25.49
  13 -13   1   46.82   25.05
 -13  13  -1   24.47   24.91
  13 -13   2  117.61   27.39
 -13  13  -2  102.60   26.61
  12 -13  -3   55.27   23.58
 -12  13   3   88.57   25.16
  12 -13  -2   57.59   25.43
 -12  13   2   15.32   25.67
  12 -13  -1   42.62   26.54
 -12  13   1   -2.81   25.47
  12 -13   1   25.63   25.38
 -12  13  -1   58.46   26.39
  12 -13   2   22.64   26.03
 -12  13  -2   30.45   27.01
  12 -13   3   89.33   26.45
 -12  13  -3  108.09   28.33
 -12  13  -4   59.55   26.05
  11 -13  -3  -23.00   22.66
 -11  13   3    3.17   26.03
  11 -13  -2   11.75   24.58
 -11  13   2   49.18   26.01
  11 -13  -1  288.17   34.21
 -11  13   1  253.82   33.39
  11 -13   0  -23.51   26.12
 -11  13   0   26.03   26.99
  11 -13   1  281.48   34.62
 -11  13  -1  209.73   32.10
  11 -13   2    0.40   26.85
 -11  13  -2   52.21   28.13
  11 -13   3  -18.58   26.41
 -11  13  -3    9.77   26.92
 -11  13  -4   55.87   27.37
  11 -13   5   -4.06   26.41
 -11  13  -5   22.93   25.40
 -10  13   4   50.32   22.04
  10 -13  -3   24.89   24.07
 -10  13   3    7.49   24.24
  10 -13  -2   22.24   24.31
 -10  13   2   82.68   26.16
  10 -13   0   72.51   25.63
 -10  13   0   67.69   26.19
  10 -13   1    4.95   26.94
 -10  13  -1   49.54   26.50
  10 -13   2   28.62   26.52
 -10  13  -2   61.96   26.65
 -10  13  -4   39.03   29.58
  10 -13   5   87.03   28.19
 -10  13  -5   49.54   28.42
  10 -13   6  -13.18   25.38
 -10  13  -6  -15.97   26.65
   9 -13  -4   -6.51   20.30
  -9  13   4    1.34   23.26
   9 -13  -3  496.05   42.16
  -9  13   3  636.56   49.74
   9 -13  -2   45.57   24.49
  -9  13   2   18.53   24.53
   9 -13  -1  136.21   25.87
  -9  13   1  150.29   27.57
   9 -13   0   -5.87   23.42
  -9  13   0   -2.48   23.95
   9 -13   1  108.87   26.56
  -9  13  -1  106.82   28.06
   9 -13   2   -8.41   25.94
  -9  13  -2  -18.04   24.67
   9 -13   3  586.60   49.40
  -9  13  -3  523.26   46.62
   9 -13   6    6.36   26.27
  -9  13  -6   15.95   27.08
   9 -13   7   60.58   27.43
  -9  13  -7    5.26   27.01
  -8  13   5  -15.93   22.62
   8 -13  -4   23.64   22.64
  -8  13   4   26.25   23.02
   8 -13  -3  205.56   28.50
  -8  13   3  237.32   29.71
   8 -13  -2   18.80   23.55
  -8  13   2  -23.40   22.75
   8 -13  -1   38.85   22.73
  -8  13   1  -19.90   22.86
   8 -13   0   85.16   23.89
  -8  13   0   72.40   25.47
   8 -13   1   18.74   23.98
  -8  13  -1   36.33   24.53
   8 -13   2   17.66   24.24
  -8  13  -2   62.54   25.32
   8 -13   3  216.64   31.03
  -8  13  -3  308.02   34.75
   8 -13   4   52.01   27.03
  -8  13  -4   29.15   28.39
  -8  13  -5  -30.51   28.44
   8 -13   6   37.47   28.04
  -8  13  -6   92.61   29.20
   8 -13   7   -8.48   25.14
  -8  13  -7  -14.79   27.70
   7 -13  -5   56.65   22.62
  -7  13   5   82.97   22.46
   7 -13  -4   68.05   23.35
  -7  13   4   83.46   23.69
   7 -13  -3  -15.43   21.72
  -7  13   3  -24.20   22.68
   7 -13  -2   68.96   23.55
  -7  13   2   74.96   22.93
   7 -13  -1  262.74   30.27
  -7  13   1  241.56   29.17
   7 -13   0  -26.27   21.99
  -7  13   0   18.47   22.97
   7 -13   1  258.73   30.09
  -7  13  -1  212.83   29.64
   7 -13   2   31.09   24.02
  -7  13  -2   37.74   24.76
   7 -13   3   17.24   24.22
  -7  13  -3   28.82   24.02
   7 -13   4   39.90   26.12
  -7  13  -4  124.66   27.70
  -7  13  -5   42.96   27.06
   7 -13   6   47.46   28.01
  -7  13  -6   12.67   29.17
   7 -13   7   29.66   26.92
  -7  13  -7   51.21   29.02
   7 -13   8   83.15   29.64
  -7  13  -8   16.30   27.86
   6 -13  -5   -1.92   21.46
  -6  13   5   -1.27   21.39
   6 -13  -4   14.85   21.48
  -6  13   4   82.61   21.59
   6 -13  -3   -6.51   20.68
  -6  13   3   40.57   22.44
   6 -13  -2  522.14   42.04
  -6  13   2  413.74   36.24
   6 -13  -1   11.13   21.50
  -6  13   1  -17.75   21.37
   6 -13   0  145.11   24.89
  -6  13   0  234.42   29.71
   6 -13   1  -16.39   21.72
  -6  13  -1    9.59   23.00
   6 -13   2  329.21   33.92
  -6  13  -2  358.43   36.16
   6 -13   3    5.64   23.37
  -6  13  -3  -17.46   24.62
   6 -13   4   44.85   24.69
  -6  13  -4   45.14   25.67
  -6  13  -5  -13.90   27.70
   6 -13   6    4.80   27.59
  -6  13  -6  108.42   31.09
   6 -13   7   50.43   27.95
  -6  13  -7   28.53   29.15
   6 -13   8   -6.94   25.69
  -6  13  -8  -24.96   27.46
  -5  13   6  228.40   24.45
   5 -13  -5    3.26   20.16
  -5  13   5   13.03   19.45
   5 -13  -4   68.23   21.79
  -5  13   4   24.60   20.43
   5 -13  -3   32.99   20.54
  -5  13   3   28.15   20.23
   5 -13  -2  -34.97   20.79
  -5  13   2  -64.82   20.59
   5 -13  -1    2.07   22.17
  -5  13   1   24.27   21.79
   5 -13   0   28.55   21.72
  -5  13   0    5.51   22.35
   5 -13   1   11.29   22.84
  -5  13  -1   23.53   21.77
   5 -13   2    1.56   22.46
  -5  13  -2   29.87   24.18
   5 -13   3   68.81   24.02
  -5  13  -3   85.92   25.18
   5 -13   4   52.50   24.74
  -5  13  -4   55.09   25.18
   5 -13   5  -30.94   26.21
  -5  13  -5  -15.97   25.94
   5 -13   6  443.63   42.56
  -5  13  -6  546.68   49.45
   5 -13   7   10.53   27.77
  -5  13  -7   57.14   31.40
   5 -13   8  -11.55   25.61
  -5  13  -8   55.29   30.51
   4 -13  -6  785.56   53.93
  -4  13   6  958.41   64.10
   4 -13  -5  -34.13   20.10
  -4  13   5  -31.00   19.27
   4 -13  -4  218.22   25.47
  -4  13   4  177.21   23.55
   4 -13  -3  -10.13   20.14
  -4  13   3  -19.23   19.25
   4 -13  -2  928.53   63.59
  -4  13   2  904.21   62.41
   4 -13  -1   28.68   21.55
  -4  13   1   51.92   22.13
   4 -13   0  660.21   49.31
  -4  13   0  510.99   41.87
   4 -13   1   63.61   23.33
  -4  13  -1   48.07   23.66
   4 -13   3  -11.02   23.00
  -4  13  -3  -12.16   23.49
   4 -13   4  222.33   30.65
  -4  13  -4  251.82   31.69
   4 -13   5    7.20   25.11
  -4  13  -5  -41.29   26.52
  -4  13  -6  721.32   58.53
   4 -13   7    3.21   28.93
  -4  13  -7   61.45   32.59
   4 -13   8   66.31   30.42
  -4  13  -8  133.33   35.42
  -3  13   7    4.71   17.60
   3 -13  -6   -2.05   18.80
  -3  13   6   12.67   18.53
   3 -13  -5   79.40   19.63
  -3  13   5   56.01   18.96
   3 -13  -4   25.47   19.07
  -3  13   4   30.69   18.27
   3 -13  -3  101.95   21.17
  -3  13   3  140.25   22.06
   3 -13  -2   46.13   21.48
  -3  13   2   14.54   19.43
   3 -13  -1   30.80   22.06
  -3  13   1   71.55   22.42
   3 -13   0   29.80   21.46
  -3  13   0    3.68   21.37
   3 -13   1   -8.70   21.19
  -3  13  -1   -2.19   22.73
   3 -13   2   34.53   22.91
  -3  13  -2   27.59   23.60
   3 -13   3  136.61   27.10
  -3  13  -3  100.50   25.96
   3 -13   4  -23.64   23.95
  -3  13  -4   12.38   25.81
   3 -13   5   57.48   26.27
  -3  13  -5   96.62   29.95
  -3  13  -6   78.56   32.56
   3 -13   7   26.70   30.20
   2 -13  -7   57.61   18.89
  -2  13   7   49.76   17.71
   2 -13  -6    0.02   18.94
  -2  13   6  -14.27   16.97
   2 -13  -5   48.11   18.47
  -2  13   5   64.99   18.58
   2 -13  -4   47.86   19.20
  -2  13   4   42.31   18.00
   2 -13  -3   58.26   20.05
  -2  13   3   42.56   19.18
   2 -13  -2   97.45   22.33
  -2  13   2   96.44   20.61
   2 -13  -1   24.33   21.28
  -2  13   1   23.26   21.35
   2 -13   0   59.53   22.35
  -2  13   0   52.77   21.55
   2 -13   1   32.68   21.86
  -2  13  -1   11.22   23.17
   2 -13   2   71.84   24.62
  -2  13  -2   27.55   24.36
   2 -13   3   10.95   23.55
  -2  13  -3   -6.89   25.52
   2 -13   4   71.44   26.01
  -2  13  -4   70.99   29.31
   2 -13   5   86.70   27.95
   1 -13  -7   13.94   17.93
  -1  13   7   69.66   17.11
   1 -13  -6   52.21   17.75
  -1  13   6   42.78   16.84
   1 -13  -5  153.83   21.59
  -1  13   5  133.42   19.49
   1 -13  -4   16.66   18.76
  -1  13   4   18.94   17.87
   1 -13  -2  -19.67   20.25
  -1  13   2    8.45   19.43
   1 -13  -1  118.03   22.84
  -1  13   1   98.21   21.95
   1 -13   0  -15.97   21.70
  -1  13   0   20.43   22.44
   1 -13   1  112.15   24.40
  -1  13  -1  144.04   26.52
   1 -13   2   27.97   23.11
  -1  13  -2   -2.25   26.45
   0  13   8    1.76   14.41
   0 -13  -7  398.58   31.27
   0  13   7  411.29   31.00
   0 -13  -6   -8.01   16.48
   0  13   6   20.79   15.79
   0 -13  -5  286.39   26.23
   0  13   5  344.82   28.26
   0 -13  -3   87.25   20.52
   0  13   3   75.12   18.74
   0 -13  -2  -15.95   19.74
   0  13   2   28.91   18.94
   0 -13  -1   78.87   21.35
   0  13   1   72.02   21.10
   0 -13   0  -26.52   21.61
   0  13   0    0.11   23.53
   0 -13   1   82.17   25.27
   0  13  -1   27.52   25.78
  -1 -13  -8   14.52   14.72
   1  13   8   30.18   14.54
  -1 -13  -7   27.23   15.12
   1  13   7   18.62   15.17
  -1 -13  -6   63.21   16.48
   1  13   6   61.25   15.43
  -1 -13  -4  -13.63   17.17
   1  13   4   13.36   16.33
  -1 -13  -2   10.91   19.27
   1  13   2   16.82   19.40
  -1 -13  -1  145.09   24.74
   1  13   1   92.50   23.80
  -1 -13   0   57.52   23.73
   2  13   9    7.54   10.71
  -2 -13  -8   17.44   13.25
   2  13   8   -3.46   13.43
  -2 -13  -7   43.76   14.79
   2  13   7   30.00   14.90
  -2 -13  -4   44.72   17.20
   2  13   4   -2.14   15.77
  -2 -13  -3    6.00   18.42
   2  13   3   24.09   18.85
  -2 -13  -2  131.71   24.07
  -3 -13  -9   31.14    9.86
   3  13   9    7.29   10.39
  -3 -13  -8   15.95   12.13
   3  13   8   25.20   12.29
  -3 -13  -7   20.25   13.90
   3  13   7   40.82   14.05
  -3 -13  -6   42.49   14.74
   3  13   6   18.74   14.16
  -3 -13  -5   22.50   15.19
   3  13   5    0.96   15.41
  -3 -13  -4   11.71   17.55
   3  13   4  -19.14   16.46
  -4 -13  -9    8.21    9.06
  -4 -13  -8  121.09   13.96
  -4 -13  -7   23.75   12.69
   4  13   7   32.56   13.56
  -4 -13  -6  693.66   46.19
   4  13   6  759.91   50.61
  -5 -13  -8    9.61   10.26
  -5 -13  -7   11.40   13.83
 -12  14   3   -1.12   25.36
  12 -14  -2  -19.38   23.40
 -12  14   2   21.55   25.74
  12 -14  -1   25.07   24.09
 -12  14   1   18.53   24.42
  12 -14   0   25.52   25.16
 -12  14   0   16.10   26.88
  12 -14   1    7.27   25.00
 -12  14  -1    6.71   25.11
  12 -14   2  -25.40   24.85
 -12  14  -2   29.64   25.54
 -12  14  -3    6.96   27.26
  11 -14  -4   69.81   23.55
 -11  14   4   -3.48   22.91
  11 -14  -3   -7.98   23.11
 -11  14   3   44.79   24.96
  11 -14  -2  -29.42   23.02
 -11  14   2  -16.13   25.87
  11 -14  -1   -8.63   25.07
 -11  14   1  -44.59   26.36
  11 -14   0  -13.20   25.38
 -11  14   0   67.65   27.17
  11 -14   1   23.58   26.77
 -11  14  -1  -21.55   25.87
  11 -14   2  -39.52   25.07
 -11  14  -2  -10.64   25.92
  11 -14   3   28.19   25.32
 -11  14  -3   20.70   26.21
  11 -14   4   -6.47   25.16
 -11  14  -4    0.80   25.83
  10 -14  -4   39.81   23.02
 -10  14   4   16.46   22.73
  10 -14  -3    1.25   23.71
 -10  14   3  -21.35   24.13
  10 -14  -2   50.36   25.69
 -10  14   2   53.04   26.92
  10 -14  -1   23.08   25.00
 -10  14   1    0.11   25.43
  10 -14   0   23.33   26.45
 -10  14   0    0.04   26.43
  10 -14   1    1.18   27.08
 -10  14  -1    0.47   26.48
  10 -14   2   55.20   27.19
 -10  14  -2   40.73   27.35
  10 -14   3   38.92   26.85
 -10  14  -3  -29.13   27.90
  10 -14   4   -6.18   25.83
 -10  14  -4   56.21   27.01
 -10  14  -5   81.03   26.74
  -9  14   5   39.72   21.41
   9 -14  -4   32.68   24.02
  -9  14   4   30.56   23.40
   9 -14  -3   15.59   24.31
  -9  14   3    8.07   24.47
   9 -14  -2   12.71   24.60
  -9  14   2   42.78   25.16
   9 -14  -1   55.83   26.01
  -9  14   1   -2.74   25.03
   9 -14   0   -5.40   24.60
  -9  14   0  -53.86   25.20
   9 -14   1   17.62   25.27
  -9  14  -1   17.66   26.85
   9 -14   2    9.48   27.14
  -9  14  -2  -26.41   27.61
   9 -14   3  -15.66   26.92
  -9  14  -3   18.69   28.24
   9 -14   4   78.58   27.86
  -9  14  -4   30.29   27.72
  -9  14  -5   37.52   27.14
   9 -14   6   41.51   27.43
  -9  14  -6   17.40   26.92
   8 -14  -5    1.61   21.79
  -8  14   5  -12.00   22.84
   8 -14  -4  -32.65   24.56
  -8  14   4  -23.71   23.80
   8 -14  -3    6.11   23.62
  -8  14   3    5.84   23.37
   8 -14  -2   91.76   25.38
  -8  14   2   91.29   25.92
   8 -14  -1   -7.03   24.33
  -8  14   1  -12.00   24.09
   8 -14   0    7.69   24.04
  -8  14   0   52.68   24.78
   8 -14   1   31.20   24.98
  -8  14  -1   46.97   26.83
   8 -14   2  125.53   28.84
  -8  14  -2  136.10   29.66
   8 -14   3   21.97   27.59
  -8  14  -3   -2.83   26.10
   8 -14   4   41.69   27.59
  -8  14  -4  -40.26   27.23
   8 -14   5    0.60   25.85
  -8  14  -5   19.94   28.19
   8 -14   6   38.90   27.37
  -8  14  -6   56.16   26.27
  -7  14   6   55.92   22.15
   7 -14  -5    9.41   22.73
  -7  14   5   50.59   23.08
   7 -14  -4   40.71   23.15
  -7  14   4   19.14   23.71
   7 -14  -3   16.53   23.15
  -7  14   3   31.74   23.13
   7 -14  -2   -7.83   23.73
  -7  14   2   13.47   23.73
   7 -14  -1   31.65   23.17
  -7  14   1  -26.21   23.13
   7 -14   0  -21.32   22.46
  -7  14   0  -65.06   23.95
   7 -14   1   -2.77   23.51
  -7  14  -1   17.89   24.00
   7 -14   2   -3.06   25.52
  -7  14  -2  -29.71   25.23
   7 -14   3   28.19   26.65
  -7  14  -3   -0.25   25.83
   7 -14   4    1.23   27.30
  -7  14  -4   20.39   28.13
   7 -14   5    9.01   27.59
  -7  14  -5  -10.35   27.84
   7 -14   6   12.94   19.67
  -7  14  -6   33.55   27.48
   7 -14   7   29.62   27.17
  -7  14  -7   17.78   26.77
   6 -14  -6   -4.19   21.14
  -6  14   6   -0.07   21.23
   6 -14  -5   42.89   21.97
  -6  14   5   37.11   22.22
   6 -14  -4  -30.07   23.31
  -6  14   4    8.88   21.52
   6 -14  -3  -17.66   22.13
  -6  14   3  -45.70   22.50
   6 -14  -2   -5.80   22.82
  -6  14   2  -35.87   22.48
   6 -14  -1   18.42   23.22
  -6  14   1   20.68   23.08
   6 -14   0   37.38   23.53
  -6  14   0  -12.51   23.69
   6 -14   1    6.20   22.26
  -6  14  -1   -1.25   24.04
   6 -14   2    9.37   24.49
  -6  14  -2  -46.39   25.81
   6 -14   3  -32.43   24.20
  -6  14  -3  -18.51   25.18
   6 -14   4   11.40   26.34
  -6  14  -4   22.79   26.61
   6 -14   5   11.60   27.10
  -6  14  -5   73.09   28.28
  -6  14  -6   83.15   29.60
   6 -14   7   -0.20   27.06
  -6  14  -7   23.55   27.52
   5 -14  -6   -8.99   21.01
  -5  14   6   10.88   21.28
   5 -14  -5  203.28   26.99
  -5  14   5  246.46   28.53
   5 -14  -4    4.66   21.39
  -5  14   4  -23.42   21.08
   5 -14  -3   48.27   22.01
  -5  14   3   53.75   21.61
   5 -14  -2    4.44   21.10
  -5  14   2  -37.67   22.08
   5 -14  -1   -9.28   22.66
  -5  14   1   -6.13   21.46
   5 -14   0    3.35   21.79
  -5  14   0   24.58   22.93
   5 -14   1  -14.52   22.17
  -5  14  -1    9.12   22.95
   5 -14   2   29.24   22.64
  -5  14  -2   39.75   25.14
   5 -14   3  -21.41   24.65
  -5  14  -3   18.04   24.62
   5 -14   5  196.14   32.52
  -5  14  -5  196.52   32.85
  -5  14  -6    9.50   31.09
   5 -14   7   39.92   27.14
  -5  14  -7    5.13   28.75
  -4  14   7   22.91   17.82
   4 -14  -6   55.36   21.48
  -4  14   6   39.99   20.05
   4 -14  -5   -1.70   20.68
  -4  14   5   26.21   19.81
   4 -14  -4   25.94   20.68
  -4  14   4   20.63   19.78
   4 -14  -3    9.64   21.57
  -4  14   3    5.46   20.43
   4 -14  -2   17.93   20.90
  -4  14   2    7.54   21.21
   4 -14  -1  -11.89   21.32
  -4  14   1   29.02   22.06
   4 -14   0   -9.64   22.75
  -4  14   0  -13.25   22.88
   4 -14   1   10.66   22.66
  -4  14  -1   -3.61   23.40
   4 -14   2  -39.19   22.59
  -4  14  -2  -12.02   23.06
   4 -14   3  -14.36   24.09
  -4  14  -3    0.31   24.31
   4 -14   4  -30.13   24.58
  -4  14  -4   40.24   26.16
   4 -14   5    3.28   27.06
  -4  14  -5   20.50   28.19
   4 -14   6  -18.04   27.37
  -4  14  -6   -3.55   30.78
   4 -14   7   42.56   27.14
  -4  14  -7   18.49   32.23
   4 -14   8   41.64   27.92
  -4  14  -8   41.24   32.07
   3 -14  -7   55.49   19.09
  -3  14   7   -8.94   18.94
   3 -14  -6  -22.82   20.05
  -3  14   6   14.14   19.52
   3 -14  -5   32.56   20.05
  -3  14   5   24.40   19.65
   3 -14  -4  -26.59   20.16
  -3  14   4    4.39   19.83
   3 -14  -3   15.41   20.41
  -3  14   3   21.21   19.92
   3 -14  -2   10.08   21.14
  -3  14   2  -11.42   19.90
   3 -14  -1   18.62   21.23
  -3  14   1    5.33   21.48
   3 -14   0    4.91   22.15
  -3  14   0   35.53   22.88
   3 -14   1   -5.53   21.64
  -3  14  -1  -22.53   21.77
   3 -14   2   20.19   22.79
  -3  14  -2    6.07   23.31
   3 -14   3   17.22   23.35
  -3  14  -3    3.46   24.80
   3 -14   4   11.44   24.85
  -3  14  -4   -0.71   25.85
   3 -14   5   62.32   27.48
  -3  14  -5   64.39   30.04
   3 -14   6   17.93   27.55
  -3  14  -6   35.08   33.95
  -2  14   8  -21.68   15.81
   2 -14  -7   23.91   19.36
  -2  14   7   20.83   17.73
   2 -14  -6  -15.26   19.34
  -2  14   6   -5.24   18.27
   2 -14  -5  -19.81   19.20
  -2  14   5   12.98   18.94
   2 -14  -4    0.69   19.61
  -2  14   4    2.30   18.16
   2 -14  -3   36.31   19.61
  -2  14   3   -5.29   18.89
   2 -14  -2    6.09   20.88
  -2  14   2  -30.58   19.54
   2 -14  -1   18.49   20.70
  -2  14   1  -10.10   21.43
   2 -14   0    7.41   21.88
  -2  14   0   11.51   21.97
   2 -14   1  -14.72   21.81
  -2  14  -1   -5.29   22.42
   2 -14   2   17.40   22.46
  -2  14  -2   27.26   24.04
   2 -14   3   63.54   24.13
  -2  14  -3   15.28   26.01
   2 -14   4   13.61   25.47
  -2  14  -4   18.38   27.95
   2 -14   5   -1.83   28.93
   1 -14  -8   16.57   15.86
  -1  14   8   55.58   16.48
   1 -14  -7   30.53   18.62
  -1  14   7   29.24   17.31
   1 -14  -6  -22.73   19.52
  -1  14   6   17.80   17.42
   1 -14  -5  -16.26   18.96
  -1  14   5    1.38   18.00
   1 -14  -4   -7.81   18.22
  -1  14   4   36.13   18.94
   1 -14  -3    1.74   19.52
  -1  14   3   -3.70   18.04
   1 -14  -2  -14.59   19.25
  -1  14   2   10.24   19.32
   1 -14  -1   11.02   20.52
  -1  14   1  -55.49   20.94
   1 -14   0  -10.30   21.64
  -1  14   0   20.14   22.17
   1 -14   1  -18.13   22.13
  -1  14  -1   -8.56   23.40
   1 -14   2  -15.70   22.82
  -1  14  -2    7.90   25.78
   1 -14   3   36.71   25.78
  -1  14  -3   34.62   28.73
   0 -14  -8   10.71   15.08
   0  14   8   25.34   15.08
   0 -14  -7   -5.04   17.62
   0  14   7    6.16   16.04
   0 -14  -6  201.63   24.04
   0  14   6  204.17   22.37
   0 -14  -5   -2.63   18.36
   0  14   5    0.42   16.95
   0 -14  -4    3.97   18.18
   0  14   4   31.20   18.16
   0 -14  -3  -38.70   18.98
   0  14   3   17.09   18.00
   0 -14  -2   43.40   19.47
   0  14   2   90.53   21.21
   0 -14  -1   -9.57   20.56
   0  14   1   26.63   21.03
   0 -14   0   96.27   23.71
   0  14   0  110.25   25.36
   0 -14   1  -12.74   24.45
   0  14  -1   -9.79   26.61
   0 -14   2   31.85   25.54
  -1 -14  -8   10.95   14.27
   1  14   8    8.32   13.61
  -1 -14  -7   23.22   16.01
   1  14   7   18.71   15.23
  -1 -14  -6   40.13   18.36
   1  14   6  -18.91   16.28
  -1 -14  -5   22.84   17.35
   1  14   5  -17.06   16.91
  -1 -14  -4   -3.37   18.18
   1  14   4  -19.11   16.64
  -1 -14  -3  -43.16   19.09
   1  14   3   18.71   18.20
  -1 -14  -2    7.63   19.87
   1  14   2  -19.94   19.09
  -1 -14  -1   35.58   21.57
   1  14   1   10.51   22.62
  -1 -14   0  -27.41   23.46
  -2 -14  -8  -26.63   13.16
   2  14   8   12.11   13.09
  -2 -14  -7   11.17   15.01
   2  14   7   17.40   14.77
  -2 -14  -6   10.10   16.91
   2  14   6    6.54   16.06
  -2 -14  -5   11.42   17.73
   2  14   5   14.90   16.37
  -2 -14  -4    3.41   18.04
   2  14   4  -13.23   17.22
  -2 -14  -3  -30.45   19.92
   2  14   3   -0.13   19.74
  -2 -14  -2   22.28   22.01
  -3 -14  -8    0.87   11.73
   3  14   8    7.14   11.89
  -3 -14  -7   21.59   15.01
   3  14   7    4.64   14.74
  -3 -14  -6   44.34   16.66
   3  14   6   12.09   16.06
  -3 -14  -5   67.69   19.23
   3  14   5   53.91   17.64
  -3 -14  -4   18.36   19.03
   3  14   4    8.12   18.98
  -4 -14  -8  -14.48   11.06
   4  14   8  -10.84   11.02
  -4 -14  -7    4.46   14.23
   4  14   7   24.51   14.03
  -4 -14  -6   31.52   16.82
   4  14   6   -7.47   17.84
  -4 -14  -5   -4.15   19.58
  -5 -14  -8  -11.22   11.09
   5  14   8    8.92   11.51
  -5 -14  -7    6.38   14.43
  11 -15  -2   23.51   23.62
 -11  15   2  -12.53   23.87
  11 -15  -1   11.26   24.82
 -11  15   1   27.39   24.82
  11 -15   0   10.80   23.55
 -11  15   0   13.94   23.95
  11 -15   1   37.94   25.90
 -11  15  -1    4.55   25.58
  11 -15   2    7.27   25.16
 -11  15  -2  -16.17   24.56
  10 -15  -3   10.66   23.11
 -10  15   3   19.81   23.53
  10 -15  -2   24.22   23.49
 -10  15   2  -21.06   25.87
  10 -15  -1    8.97   24.47
 -10  15   1   15.10   25.29
  10 -15   0   -9.57   25.54
 -10  15   0  -26.83   25.72
  10 -15   1   43.98   26.30
 -10  15  -1   15.99   26.34
  10 -15   2   28.79   25.87
 -10  15  -2   21.57   26.88
  10 -15   3   21.66   26.43
 -10  15  -3  -49.31   25.27
   9 -15  -4  -38.68   22.26
  -9  15   4    0.54   21.86
   9 -15  -3   64.66   25.43
  -9  15   3   56.14   24.78
   9 -15  -2   20.16   24.74
  -9  15   2   57.05   25.78
   9 -15  -1  -12.98   24.74
  -9  15   1    0.80   26.99
   9 -15   0  -19.03   25.29
  -9  15   0   49.60   26.94
   9 -15   1   -4.46   25.58
  -9  15  -1   19.83   27.63
   9 -15   2  -37.45   26.07
  -9  15  -2   43.07   27.21
   9 -15   3   68.72   27.55
  -9  15  -3  -15.72   26.36
   9 -15   4   -3.41   25.07
  -9  15  -4  -11.02   26.72
   8 -15  -5   -5.49   21.99
  -8  15   5   28.19   21.28
   8 -15  -4    4.84   23.42
  -8  15   4   21.17   24.29
   8 -15  -3   75.75   25.34
  -8  15   3   85.94   25.34
   8 -15  -2   26.72   25.23
  -8  15   2  -25.52   24.56
   8 -15  -1  232.63   31.52
  -8  15   1  248.47   32.99
   8 -15   0   -9.21   25.18
  -8  15   0   20.21   26.63
   8 -15   1  239.99   33.03
  -8  15  -1  205.47   31.94
   8 -15   2   -1.78   26.92
  -8  15  -2   -3.30   28.10
   8 -15   3   77.86   29.02
  -8  15  -3   73.43   28.08
   8 -15   4   41.06   26.88
  -8  15  -4   11.44   28.44
   8 -15   5  -38.59   24.87
  -8  15  -5  -15.57   26.90
   7 -15  -6    1.67   18.60
  -7  15   6   -5.84   20.41
   7 -15  -5   26.59   22.68
  -7  15   5    3.35   22.79
   7 -15  -4   22.35   24.18
  -7  15   4  -10.30   23.71
   7 -15  -3   58.28   25.03
  -7  15   3   30.31   25.05
   7 -15  -2   23.15   24.69
  -7  15   2   18.96   24.60
   7 -15  -1   20.34   24.71
  -7  15   1  -15.17   24.45
   7 -15   0   37.11   25.87
  -7  15   0  -31.47   25.96
   7 -15   1   86.16   26.14
  -7  15  -1   -1.25   26.59
   7 -15   2  -28.35   26.99
  -7  15  -2   54.36   28.10
   7 -15   3   19.67   27.48
  -7  15  -3   42.02   28.26
   7 -15   4   11.04   26.54
  -7  15  -4   15.12   27.84
   7 -15   5   46.42   26.83
  -7  15  -5    0.91   26.30
  -7  15  -6    5.67   25.58
   6 -15  -6   15.66   20.54
  -6  15   6    7.18   21.17
   6 -15  -5    0.54   21.84
  -6  15   5   62.36   23.35
   6 -15  -4   34.55   23.00
  -6  15   4    1.94   22.79
   6 -15  -3   17.26   23.69
  -6  15   3   40.93   24.65
   6 -15  -2   15.30   23.40
  -6  15   2    6.65   23.55
   6 -15  -1   16.57   23.73
  -6  15   1   47.66   24.85
   6 -15   0    0.74   24.45
  -6  15   0   -1.00   25.45
   6 -15   1    3.97   24.91
  -6  15  -1  -25.29   25.49
   6 -15   2   -0.33   25.25
  -6  15  -2   49.83   27.12
   6 -15   3   39.70   27.75
  -6  15  -3   29.33   28.04
   6 -15   4   68.52   29.22
  -6  15  -4   63.05   27.95
   6 -15   5   -3.43   26.72
  -6  15  -5    6.71   27.92
   5 -15  -7  -12.58   19.58
  -5  15   7   16.95   19.09
   5 -15  -6  -32.94   20.77
  -5  15   6   39.23   20.52
   5 -15  -5  -43.05   21.64
  -5  15   5    6.58   22.39
   5 -15  -4  360.88   34.33
  -5  15   4  407.94   36.65
   5 -15  -3   28.57   23.78
  -5  15   3   16.95   22.57
   5 -15  -2   31.03   23.20
  -5  15   2   25.29   23.87
   5 -15  -1   -5.17   23.98
  -5  15   1   -0.49   23.98
   5 -15   0   74.36   25.32
  -5  15   0   30.96   23.66
   5 -15   1   63.46   23.87
  -5  15  -1   37.27   26.12
   5 -15   2   14.56   25.81
  -5  15  -2   11.89   25.81
   5 -15   3  -33.68   25.47
  -5  15  -3   26.05   27.06
   5 -15   4  318.06   37.29
  -5  15  -4  330.55   37.98
   5 -15   5   -5.11   27.10
  -5  15  -5   -7.78   29.69
  -5  15  -7    2.45   28.91
   4 -15  -7   13.25   18.98
  -4  15   7    6.45   18.27
   4 -15  -6   46.64   21.70
  -4  15   6   95.73   22.22
   4 -15  -5   30.60   22.48
  -4  15   5    3.61   21.48
   4 -15  -4   19.25   22.28
  -4  15   4   22.35   21.72
   4 -15  -3   39.30   22.44
  -4  15   3    3.61   21.93
   4 -15  -2   25.56   23.00
  -4  15   2    6.74   23.29
   4 -15  -1   14.43   23.78
  -4  15   1  -16.57   23.64
   4 -15   0   77.80   25.27
  -4  15   0  123.83   26.14
   4 -15   1   46.08   23.71
  -4  15  -1    4.73   24.38
   4 -15   2   38.74   24.69
  -4  15  -2  -26.70   25.76
   4 -15   3   18.45   25.38
  -4  15  -3    7.36   26.43
   4 -15   4   24.74   27.90
  -4  15  -4   21.95   28.10
   4 -15   5  -30.13   28.17
  -4  15  -5   32.03   30.07
   4 -15   6   90.49   29.17
  -4  15  -6  106.97   31.11
  -4  15  -7  -51.68   28.68
   3 -15  -7    5.31   18.71
  -3  15   7    6.76   18.29
   3 -15  -6    7.58   20.63
  -3  15   6   17.51   18.38
   3 -15  -5   -5.67   21.21
  -3  15   5  -21.30   20.52
   3 -15  -4   15.10   21.93
  -3  15   4    2.99   21.14
   3 -15  -3   13.92   22.04
  -3  15   3    2.10   21.70
   3 -15  -2   44.39   22.93
  -3  15   2  -10.08   20.99
   3 -15  -1   15.35   22.39
  -3  15   1   19.47   23.08
   3 -15   0   40.93   23.69
  -3  15   0  -10.30   22.68
   3 -15   1  -13.32   23.60
  -3  15  -1  -29.87   22.88
   3 -15   2   20.99   24.31
  -3  15  -2    0.71   24.85
   3 -15   3    5.58   24.78
  -3  15  -3    5.40   25.98
   3 -15   4    8.99   27.95
  -3  15  -4   44.61   28.97
   3 -15   5   25.14   28.93
  -3  15  -5  -20.05   30.00
   3 -15   6  -50.32   28.48
  -3  15  -6   50.56   32.88
   3 -15   7   23.04   28.71
   2 -15  -7   33.95   18.74
  -2  15   7  -16.39   16.82
   2 -15  -6   38.81   20.72
  -2  15   6   52.79   19.94
   2 -15  -5  -11.71   20.74
  -2  15   5   24.98   20.07
   2 -15  -4    0.42   20.63
  -2  15   4   20.30   20.23
   2 -15  -3   -2.74   21.23
  -2  15   3   -0.54   20.10
   2 -15  -2   17.60   21.81
  -2  15   2    5.35   21.43
   2 -15  -1   17.95   22.15
  -2  15   1   -0.49   22.13
   2 -15   0   -9.77   22.71
  -2  15   0   24.20   22.62
   2 -15   1   11.11   23.69
  -2  15  -1  -10.66   23.75
   2 -15   2    8.99   22.82
  -2  15  -2   13.40   25.20
   2 -15   3  -44.52   25.05
  -2  15  -3   15.06   26.92
   2 -15   4    9.35   27.43
  -2  15  -4    1.99   31.38
   2 -15   5    7.65   29.31
  -2  15  -5  -29.17   30.78
   1 -15  -7  -24.11   17.95
  -1  15   7   31.38   17.00
   1 -15  -6   -9.43   19.54
  -1  15   6   27.99   18.40
   1 -15  -5   50.39   21.06
  -1  15   5   45.68   20.12
   1 -15  -4   18.36   20.79
  -1  15   4    8.56   19.76
   1 -15  -3   35.95   21.46
  -1  15   3   58.39   21.08
   1 -15  -2   59.26   22.37
  -1  15   2   17.89   20.30
   1 -15  -1    1.74   21.03
  -1  15   1   24.87   21.66
   1 -15   0  -43.52   21.14
  -1  15   0   24.87   23.40
   1 -15   1  -19.40   23.87
  -1  15  -1   34.08   24.56
   1 -15   2    3.55   23.55
  -1  15  -2   26.03   26.97
   1 -15   3   81.72   27.68
  -1  15  -3   54.87   31.00
   0 -15  -7   77.95   18.80
   0  15   7   55.94   17.22
   0 -15  -6  -17.71   19.11
   0  15   6   -1.27   17.82
   0 -15  -5  215.73   25.92
   0  15   5  141.65   22.01
   0 -15  -4   18.04   20.23
   0  15   4  -40.71   19.81
   0 -15  -3   55.63   21.59
   0  15   3   37.32   20.45
   0 -15  -2   -4.44   21.41
   0  15   2  -16.88   19.85
   0 -15  -1    2.72   21.46
   0  15   1   -4.15   21.43
   0 -15   0  -22.10   21.95
   0  15   0  -10.15   25.00
   0 -15   1   24.94   25.29
   0  15  -1  -39.75   25.76
   0 -15   2   16.37   25.45
  -1 -15  -7   -2.36   15.93
   1  15   7    9.50   15.39
  -1 -15  -6   19.29   18.82
   1  15   6  -20.85   17.44
  -1 -15  -5   49.36   20.99
   1  15   5   37.63   18.78
  -1 -15  -4   48.36   20.30
   1  15   4   -2.92   19.25
  -1 -15  -3   53.11   20.72
   1  15   3   32.27   20.16
  -1 -15  -2    4.62   21.17
   1  15   2   48.67   21.66
  -1 -15  -1   -0.36   22.82
   1  15   1   27.97   23.73
  -1 -15   0   20.79   24.27
  -2 -15  -7    6.67   15.14
   2  15   7   -3.55   14.90
  -2 -15  -6   26.21   18.69
   2  15   6    3.32   16.77
  -2 -15  -5   21.86   19.69
   2  15   5   24.49   17.84
  -2 -15  -4   19.45   20.50
   2  15   4    0.54   18.67
  -2 -15  -3   12.31   20.10
   2  15   3    8.45   21.17
  -2 -15  -2   23.02   23.20
   2  15   2  -32.05   22.66
  -3 -15  -7   -4.91   15.01
   3  15   7   -4.75   13.52
  -3 -15  -6   41.60   16.80
   3  15   6   19.52   16.42
  -3 -15  -5   61.27   20.54
   3  15   5    0.13   18.29
  -3 -15  -4    9.84   21.41
   3  15   4   35.02   21.12
  -4 -15  -7   -7.18   13.92
   4  15   7    3.30   13.27
  -4 -15  -6   69.66   17.89
   4  15   6   38.92   18.20
  -4 -15  -5   30.09   21.41
  -5 -15  -7   14.85   14.25
  10 -16  -1   29.42   25.81
 -10  16   1   10.86   26.23
  10 -16   0   93.70   26.45
 -10  16   0   82.39   27.30
  10 -16   1   -6.36   26.32
 -10  16  -1    5.75   25.63
   9 -16  -3   13.16   24.20
  -9  16   3   -5.02   23.51
   9 -16  -2   64.59   23.89
  -9  16   2   73.36   25.36
   9 -16  -1   11.02   23.66
  -9  16   1   39.19   25.49
   9 -16   0    5.64   24.78
  -9  16   0   16.86   26.07
   9 -16   1    1.18   25.18
  -9  16  -1   37.20   25.38
   9 -16   2   76.06   26.63
  -9  16  -2   69.08   27.86
   9 -16   3   10.82   24.94
  -9  16  -3   25.25   26.14
   8 -16  -4   59.17   23.84
  -8  16   4   51.26   24.89
   8 -16  -3  -22.22   22.35
  -8  16   3   -5.89   22.64
   8 -16  -2   33.57   24.91
  -8  16   2   28.42   24.27
   8 -16  -1   11.78   25.00
  -8  16   1  -19.72   26.05
   8 -16   0   -1.05   26.30
  -8  16   0   44.25   27.06
   8 -16   1   34.95   26.48
  -8  16  -1   21.10   26.45
   8 -16   2  -16.19   26.34
  -8  16  -2   37.45   27.77
   8 -16   3  -10.66   25.78
  -8  16  -3  -17.24   25.58
   8 -16   4   85.47   27.17
  -8  16  -4  101.19   28.42
  -7  16   5   23.62   22.77
   7 -16  -4   10.22   23.02
  -7  16   4  -14.36   21.90
   7 -16  -3   58.64   24.53
  -7  16   3   52.68   24.53
   7 -16  -2   11.71   24.80
  -7  16   2   13.65   24.02
   7 -16  -1   -5.87   24.69
  -7  16   1    0.87   25.45
   7 -16   0  -43.34   25.09
  -7  16   0    1.54   27.14
   7 -16   1   65.42   26.54
  -7  16  -1    1.58   28.24
   7 -16   2  -21.84   26.52
  -7  16  -2   53.02   26.54
   7 -16   3   32.10   27.14
  -7  16  -3   54.36   28.71
   7 -16   4   25.23   25.25
  -7  16  -4   35.98   26.27
   6 -16  -5   30.16   20.39
  -6  16   5   27.48   21.68
   6 -16  -4   11.13   23.37
  -6  16   4   14.56   22.39
   6 -16  -3   73.76   25.63
  -6  16   3   61.00   25.52
   6 -16  -2    7.72   24.80
  -6  16   2   33.26   24.53
   6 -16  -1  -18.89   25.34
  -6  16   1   24.80   26.14
   6 -16   0   18.91   25.36
  -6  16   0   32.48   26.90
   6 -16   1   85.00   26.77
  -6  16  -1    2.41   27.06
   6 -16   2   35.08   27.66
  -6  16  -2   -8.14   27.52
   6 -16   3   87.70   28.55
  -6  16  -3   18.80   27.06
   6 -16   4   15.75   27.01
  -6  16  -4  -42.89   26.83
   6 -16   5  -16.26   27.19
  -6  16  -5   -6.51   26.52
   5 -16  -6   15.48   22.15
  -5  16   6   -1.63   20.25
   5 -16  -5  -30.65   20.68
  -5  16   5    1.34   21.86
   5 -16  -4   27.46   22.77
  -5  16   4   12.31   21.79
   5 -16  -3  -41.58   24.36
  -5  16   3   25.72   23.75
   5 -16  -2   15.21   25.16
  -5  16   2   18.94   24.76
   5 -16  -1  463.71   42.02
  -5  16   1  432.93   40.77
   5 -16   0   30.00   25.47
  -5  16   0   36.40   25.96
   5 -16   1  424.45   41.06
  -5  16  -1  436.94   42.56
   5 -16   2    0.62   25.61
  -5  16  -2   26.59   27.63
   5 -16   3  -37.03   26.50
  -5  16  -3  -20.12   27.52
   5 -16   4    1.81   27.92
  -5  16  -4  -20.43   28.10
   5 -16   5   23.69   26.25
  -5  16  -5   50.12   27.88
   4 -16  -6   17.69   19.67
  -4  16   6   19.52   19.32
   4 -16  -5   60.85   22.26
  -4  16   5   23.37   20.23
   4 -16  -4   24.71   22.33
  -4  16   4   -7.05   22.59
   4 -16  -3  168.08   27.32
  -4  16   3  177.32   27.50
   4 -16  -2   35.42   24.47
  -4  16   2   32.34   24.89
   4 -16  -1  158.90   28.04
  -4  16   1  120.40   27.03
   4 -16   0   42.78   25.49
  -4  16   0   75.63   26.68
   4 -16   1   78.91   27.08
  -4  16  -1   91.22   27.88
   4 -16   2   57.41   26.07
  -4  16  -2   -8.85   26.63
   4 -16   3  176.85   31.83
  -4  16  -3  110.16   29.69
   4 -16   4   40.73   28.13
  -4  16  -4   55.58   29.64
   4 -16   5   11.29   26.39
  -4  16  -5   36.53   28.73
   4 -16   6    1.43   25.90
  -4  16  -6   -2.99   28.17
   3 -16  -6   -6.98   19.85
  -3  16   6    2.45   18.53
   3 -16  -5    3.26   21.86
  -3  16   5   -0.27   21.12
   3 -16  -4   13.32   22.15
  -3  16   4   14.03   21.72
   3 -16  -3   76.15   24.31
  -3  16   3   67.63   23.37
   3 -16  -2   -5.31   24.65
  -3  16   2    6.38   23.08
   3 -16  -1   10.64   23.80
  -3  16   1   30.40   25.09
   3 -16   0   30.36   25.00
  -3  16   0   42.89   25.52
   3 -16   1    3.99   24.33
  -3  16  -1   15.93   25.74
   3 -16   2   73.27   26.65
  -3  16  -2   37.23   27.39
   3 -16   3   14.19   26.34
  -3  16  -3   36.78   28.17
   3 -16   4   59.73   28.64
  -3  16  -4    3.99   29.80
   3 -16   5    4.77   27.99
  -3  16  -5  -31.83   29.55
   3 -16   6   58.19   29.33
  -3  16  -6   21.55   30.56
   2 -16  -6   -2.23   19.25
  -2  16   6   -5.26   18.51
   2 -16  -5  -19.83   21.37
  -2  16   5   -5.42   19.20
   2 -16  -4   27.61   22.93
  -2  16   4    6.91   21.97
   2 -16  -3    0.76   22.64
  -2  16   3    6.36   22.71
   2 -16  -2   25.85   23.00
  -2  16   2   38.85   23.29
   2 -16  -1   47.66   23.93
  -2  16   1   13.36   23.91
   2 -16   0   -5.40   24.98
  -2  16   0   62.10   25.03
   2 -16   1  -49.76   24.38
  -2  16  -1   10.10   25.58
   2 -16   2  -14.90   25.54
  -2  16  -2   -4.95   27.14
   2 -16   3   56.25   26.70
  -2  16  -3  -17.66   28.79
   2 -16   4  -20.45   28.55
  -2  16  -4    8.54   31.98
   2 -16   5   44.68   30.38
  -2  16  -5   40.15   33.19
   1 -16  -6   21.84   19.20
  -1  16   6  -31.05   17.49
   1 -16  -5    7.45   21.52
  -1  16   5  -20.63   19.11
   1 -16  -4   25.07   22.50
  -1  16   4   28.10   21.03
   1 -16  -3   18.51   22.68
  -1  16   3   12.25   21.88
   1 -16  -2  165.32   26.25
  -1  16   2  167.88   26.39
   1 -16  -1   53.71   24.49
  -1  16   1   54.24   24.53
   1 -16   0   27.19   24.09
  -1  16   0   10.71   24.16
   1 -16   1    2.16   24.87
  -1  16  -1   30.18   27.12
   1 -16   2  197.57   31.43
  -1  16  -2  176.18   33.03
   1 -16   3   14.03   26.43
  -1  16  -3   17.22   31.52
   1 -16   4  125.75   31.16
   0 -16  -7   12.40   18.18
   0  16   7  -16.08   16.57
   0 -16  -6   15.93   19.18
   0  16   6    7.34   17.33
   0 -16  -5  -26.99   21.17
   0  16   5  -16.75   19.78
   0 -16  -4   94.35   22.95
   0  16   4  100.53   22.35
   0 -16  -3  -30.45   21.46
   0  16   3   -2.19   20.63
   0 -16  -2  102.73   24.74
   0  16   2   79.80   23.42
   0 -16   1  -48.13   25.87
   0  16  -1   34.62   29.17
   0 -16   2  116.65   30.40
  -1 -16  -6   -3.30   18.40
   1  16   6   -8.77   17.33
  -1 -16  -5   20.54   20.03
   1  16   5   24.78   18.94
  -1 -16  -4   76.33   22.39
   1  16   4    0.94   20.65
  -1 -16  -3   43.02   22.22
   1  16   3   -3.28   21.43
  -1 -16  -2  154.17   26.07
   1  16   2  165.74   26.79
  -1 -16  -1   27.41   24.38
   1  16   1   98.41   26.94
  -1 -16   0  -27.79   25.76
  -2 -16  -6   -8.32   17.98
   2  16   6   -1.45   15.84
  -2 -16  -5  -14.27   19.87
   2  16   5   13.78   18.98
  -2 -16  -4    6.45   21.66
   2  16   4   21.99   21.06
  -2 -16  -3   20.48   22.46
   2  16   3   24.04   23.46
  -2 -16  -2   17.64   24.00
   2  16   2  -35.42   24.94
  -3 -16  -6  -15.19   16.64
   3  16   6   -5.49   15.86
  -3 -16  -5    5.04   19.65
   3  16   5   15.32   19.20
  -3 -16  -4    8.34   22.37
   3  16   4    2.65   23.02
  -3 -16  -3   57.79   23.26
  -4 -16  -6    4.93   16.86
   4  16   6   17.11   17.44
  -4 -16  -5    1.96   20.85
   8 -17  -1  -21.70   23.55
  -8  17   1   20.59   24.96
   8 -17   0   22.79   24.67
  -8  17   0   31.16   25.78
   8 -17   1  -22.10   24.18
  -8  17  -1  -34.97   24.94
   7 -17  -3   -3.48   23.84
  -7  17   3   29.13   23.42
   7 -17  -2  -15.48   22.68
  -7  17   2   40.46   23.17
   7 -17  -1   56.41   24.69
  -7  17   1   22.50   24.22
   7 -17   0   12.36   24.22
  -7  17   0   12.51   25.47
   7 -17   1  -19.23   25.00
  -7  17  -1   -0.16   26.45
   7 -17   2    8.48   24.85
  -7  17  -2   17.38   25.40
   7 -17   3   11.67   26.52
  -7  17  -3   35.55   27.06
   6 -17  -4  -44.25   23.20
  -6  17   4   -6.54   22.26
   6 -17  -3  -19.58   22.77
  -6  17   3   -3.84   22.53
   6 -17  -2   39.26   24.38
  -6  17   2   16.55   23.60
   6 -17  -1    7.27   24.80
  -6  17   1  -34.46   24.67
   6 -17   0    7.00   24.76
  -6  17   0   -6.83   26.16
   6 -17   1    2.32   24.65
  -6  17  -1   10.51   26.16
   6 -17   2   39.01   25.92
  -6  17  -2    7.94   26.59
   6 -17   3   16.26   25.11
  -6  17  -3   16.57   25.27
   5 -17  -4    1.38   21.06
  -5  17   4   22.97   21.93
   5 -17  -3  -12.91   23.35
  -5  17   3   31.54   22.68
   5 -17  -2   50.81   23.95
  -5  17   2   61.05   25.67
   5 -17  -1   29.84   26.01
  -5  17   1   -6.67   24.58
   5 -17   0   31.23   25.05
  -5  17   0   12.62   26.07
   5 -17   1   -6.83   25.09
  -5  17  -1   23.69   28.17
   5 -17   2   12.38   26.79
  -5  17  -2    3.66   27.23
   5 -17   3  -20.68   26.59
  -5  17  -3  -17.60   26.21
   5 -17   4   28.62   26.12
  -5  17  -4   20.99   26.36
   4 -17  -5  -26.63   22.39
  -4  17   5  -42.47   20.32
   4 -17  -4   28.17   21.19
  -4  17   4   -0.78   21.37
   4 -17  -3   17.69   23.80
  -4  17   3   32.94   23.08
   4 -17  -2   14.14   25.32
  -4  17   2   29.42   24.71
   4 -17  -1  -14.32   25.52
  -4  17   1  -24.65   24.29
   4 -17   0   29.73   26.48
  -4  17   0   17.42   25.94
   4 -17   1    9.08   25.96
  -4  17  -1   39.72   27.39
   4 -17   2   38.43   26.45
  -4  17  -2  -36.40   28.33
   4 -17   3  -26.50   25.85
  -4  17  -3   -6.87   27.19
   4 -17   4  -17.06   25.47
  -4  17  -4  -53.44   28.42
   3 -17  -5   38.76   20.72
  -3  17   5   20.27   19.09
   3 -17  -4  -10.84   21.72
  -3  17   4   20.07   20.97
   3 -17  -3   41.13   23.22
  -3  17   3   15.93   22.57
   3 -17  -2  -27.48   24.42
  -3  17   2    3.79   23.89
   3 -17  -1   16.46   25.65
  -3  17   1   26.19   25.67
   3 -17   0   36.47   25.61
  -3  17   0   70.06   26.77
   3 -17   1   51.01   26.85
  -3  17  -1   10.93   26.72
   3 -17   2  -13.94   27.06
  -3  17  -2   23.31   28.59
   3 -17   3   35.08   27.28
  -3  17  -3  -22.19   28.10
   3 -17   4  -65.86   26.14
  -3  17  -4  -45.39   27.90
   3 -17   5   26.12   26.61
  -3  17  -5  -39.84   29.08
   2 -17  -5   -9.55   19.92
  -2  17   5   -2.83   19.16
   2 -17  -4   23.17   22.08
  -2  17   4   -2.70   20.88
   2 -17  -3  -11.98   22.79
  -2  17   3  -54.67   23.46
   2 -17  -2   32.07   24.74
  -2  17   2    2.68   23.82
   2 -17  -1   26.12   25.05
  -2  17   1    9.39   25.74
   2 -17   0   15.99   25.45
  -2  17   0   68.38   26.99
   2 -17   1   71.71   26.59
  -2  17  -1   -4.68   27.37
   2 -17   2   63.01   27.28
  -2  17  -2  -22.42   29.53
   2 -17   3   24.89   27.39
  -2  17  -3   16.46   30.71
   2 -17   4   63.68   28.93
  -2  17  -4  -15.12   30.18
   2 -17   5   15.28   28.10
  -2  17  -5   21.57   31.58
   1 -17  -5   16.75   19.74
  -1  17   5  -12.80   18.67
   1 -17  -4   51.75   21.72
  -1  17   4   -2.83   20.77
   1 -17  -3   48.89   23.35
  -1  17   3   40.77   22.53
   1 -17  -2  -17.49   23.55
  -1  17   2   13.56   24.62
   1 -17  -1   19.65   24.47
  -1  17   1   38.56   26.25
   1 -17   0    2.43   25.25
  -1  17   0   -7.54   25.85
   1 -17   1  -25.65   26.43
  -1  17  -1   50.36   28.68
   1 -17   2    4.80   26.52
  -1  17  -2   17.17   30.98
   1 -17   3   42.07   28.62
  -1  17  -3    8.21   33.57
   1 -17   4   -2.94   28.39
   0 -17  -5  -32.79   19.58
   0  17   5   -5.24   18.33
   0 -17  -4    1.76   21.77
   0  17   4   31.11   20.50
   0 -17  -3    2.32   22.01
   0  17   3    5.69   21.79
   0 -17  -2    5.11   24.24
   0  17   2   29.33   24.45
   0 -17  -1  -19.07   24.62
   0  17   1   10.08   24.78
   0 -17   0  -11.51   26.50
   0  17   0   45.50   28.10
   0 -17   1  -20.92   27.32
   0  17  -1   28.77   29.89
   0 -17   2   -1.54   28.59
  -1 -17  -5   21.88   19.81
   1  17   5   10.15   17.64
  -1 -17  -4    9.66   20.88
   1  17   4  -21.86   20.45
  -1 -17  -3   37.98   23.87
   1  17   3   11.17   22.66
  -1 -17  -2   -5.64   23.82
   1  17   2   -2.05   24.31
  -1 -17  -1   70.50   25.85
   1  17   1   63.08   28.13
  -1 -17   0    6.65   28.28
   1  17   0  -17.11   29.26
  -2 -17  -5   -8.83   18.89
   2  17   5  -22.62   17.11
  -2 -17  -4    7.18   20.79
   2  17   4   -5.67   20.65
  -2 -17  -3  -38.61   23.44
   2  17   3   -9.10   23.44
  -2 -17  -2   -3.95   24.09
   2  17   2   42.80   26.68
  -3 -17  -5    7.81   19.54
   3  17   5  -23.02   18.00
  -3 -17  -4   14.14   21.72
   3  17   4   48.49   22.88
  -3 -17  -3    0.22   24.91
  -4 -17  -5   16.46   20.16
   5 -18  -2   -0.33   24.13
  -5  18   2  -15.37   23.73
   5 -18  -1   73.29   24.82
  -5  18   1   36.29   23.78
   5 -18   0  -11.67   24.29
  -5  18   0  -25.61   24.22
   5 -18   1   51.30   23.82
  -5  18  -1    0.60   24.53
   5 -18   2   37.16   27.03
  -5  18  -2   19.98   27.75
   4 -18  -3   39.79   24.69
  -4  18   3   10.59   22.13
   4 -18  -2  -17.09   22.88
  -4  18   2    2.63   23.35
   4 -18  -1   50.68   24.07
  -4  18   1   71.53   23.91
   4 -18   0   16.88   24.49
  -4  18   0  -11.09   23.71
   4 -18   1   51.66   23.89
  -4  18  -1   64.28   25.32
   4 -18   2    4.44   24.00
  -4  18  -2   44.81   26.65
   3 -18  -3   54.85   21.90
  -3  18   3  -10.42   21.86
   3 -18  -2  -12.85   23.53
  -3  18   2  -38.56   21.95
   3 -18  -1   10.88   23.37
  -3  18   1   -9.28   24.18
   3 -18   0   -1.94   25.34
  -3  18   0   22.59   24.78
   3 -18   1   37.40   24.94
  -3  18  -1   18.65   25.18
   3 -18   2   -1.74   24.16
  -3  18  -2  -23.04   25.45
   3 -18   3   36.69   25.16
  -3  18  -3   27.99   26.61
   2 -18  -3  -80.47   21.23
  -2  18   3  -19.29   21.21
   2 -18  -2   -9.77   23.02
  -2  18   2   34.53   23.35
   2 -18  -1   43.23   23.93
  -2  18   1   -6.00   23.87
   2 -18   0   -3.48   25.03
  -2  18   0   17.26   23.71
   2 -18   1   24.36   25.14
  -2  18  -1   70.70   27.12
   2 -18   2  -19.81   25.20
  -2  18  -2   -2.19   27.32
   2 -18   3   13.45   25.69
  -2  18  -3   -8.63   28.73
   1 -18  -4   30.96   21.32
  -1  18   4   43.36   20.61
   1 -18  -3    2.05   21.17
  -1  18   3   26.59   21.10
   1 -18  -2   -2.56   22.28
  -1  18   2    6.49   22.33
   1 -18  -1   32.41   25.67
  -1  18   1   33.57   24.38
   1 -18   0  -25.58   24.98
  -1  18   0   30.47   25.20
   1 -18   1   39.28   26.79
  -1  18  -1   -1.38   26.54
   1 -18   2   47.00   26.36
  -1  18  -2   21.59   29.80
   1 -18   3   24.09   26.30
  -1  18  -3   -5.87   30.40
   0 -18  -4   29.40   21.77
   0  18   4   26.01   19.54
   0 -18  -3  -38.21   21.52
   0  18   3   10.06   20.92
   0 -18  -2   19.47   22.33
   0  18   2    8.14   23.11
   0 -18  -1  -24.16   25.03
   0  18   1  -15.61   25.09
   0 -18   0   84.69   26.10
   0  18   0  108.55   30.20
   0 -18   1   -6.94   26.52
   0  18  -1   -3.43   28.48
   0 -18   2    2.68   27.08
  -1 -18  -4   11.60   21.70
   1  18   4   45.01   19.85
  -1 -18  -3   27.99   21.59
   1  18   3   17.17   20.90
  -1 -18  -2   22.42   22.57
   1  18   2   10.22   24.56
  -1 -18  -1   10.86   25.11
   1  18   1  -10.19   27.52
  -1 -18   0    3.43   26.83
   1  18   0   75.59   30.29
  -2 -18  -4   19.45   21.21
  -2 -18  -3   21.61   22.06
   2  18   3   40.88   22.35
  -2 -18  -2   18.91   23.66
   2  18   2   -5.84   25.36
  -2 -18  -1  -50.56   23.98
  -3 -18  -3   -9.48   23.73
   0   0   0    0.00    0.00

_computing_structure_solution     'SHELXT 2014/5 (Sheldrick, 2014)'
;
_shelx_hkl_checksum              36693
loop_
_space_group_symop_operation_xyz
'x, y, z'
'-x+1/2, -y, z+1/2'
'-x, y+1/2, -z'
'x+1/2, -y+1/2, -z+1/2'
'-x, -y, -z'
'x-1/2, y, -z-1/2'
'x, -y-1/2, z'
'-x-1/2, y-1/2, z-1/2'
loop_
_atom_site_label
_atom_site_type_symbol
_atom_site_fract_x
_atom_site_fract_y
_atom_site_fract_z
_atom_site_U_iso_or_equiv
_atom_site_adp_type
_atom_site_occupancy
_atom_site_site_symmetry_order
_atom_site_calc_flag
_atom_site_refinement_flags_posn
_atom_site_refinement_flags_adp
_atom_site_refinement_flags_occupancy
_atom_site_disorder_assembly
_atom_site_disorder_group
Si1 Si 0.4223(7) 1.0573(7) 0.6650(10) 0.016(5) Uiso 1 1 d D . . . .
Si2 Si 0.3083(8) 1.0292(5) 0.8092(11) 0.010(5) Uiso 1 1 d D . . . .
Si3 Si 0.2804(7) 1.0630(6) 1.0309(10) 0.011(5) Uiso 1 1 d D . . . .
Si4 Si 0.1214(7) 1.0640(6) 1.0271(10) 0.010(5) Uiso 1 1 d D . . . .
Si5 Si 0.0720(7) 1.0280(5) 0.8172(10) 0.010(5) Uiso 1 1 d D . . . .
Si6 Si 0.1853(7) 1.0600(6) 0.6697(9) 0.010(5) Uiso 1 1 d D . . . .
Si7 Si 0.4228(8) 0.8283(5) 0.6734(10) 0.010(5) Uiso 1 1 d D . . . .
Si8 Si 0.3091(8) 0.8707(6) 0.8143(11) 0.012(5) Uiso 1 1 d D . . . .
Si9 Si 0.2755(7) 0.8276(6) 1.0304(10) 0.010(5) Uiso 1 1 d D . . . .
Si10 Si 0.1198(7) 0.8276(5) 1.0280(10) 0.010(5) Uiso 1 1 d D . . . .
Si11 Si 0.0702(7) 0.8699(6) 0.8168(10) 0.010(5) Uiso 1 1 d D . . . .
Si12 Si 0.1869(8) 0.8283(5) 0.6817(9) 0.013(5) Uiso 1 1 d D . . . .
O1 O 0.3715(13) 1.0627(15) 0.756(2) 0.050(10) Uiso 1 1 d D . . . .
O2 O 0.3036(19) 1.0616(14) 0.9175(12) 0.054(10) Uiso 1 1 d D . . . .
O3 O 0.2008(7) 1.060(2) 1.035(4) 0.102(15) Uiso 1 1 d D . . . .
O4 O 0.0931(15) 1.0651(12) 0.9168(13) 0.030(9) Uiso 1 1 d D . . . .
O5 O 0.1142(10) 1.0529(16) 0.7232(17) 0.030(8) Uiso 1 1 d D . . . .
O6 O 0.2415(14) 1.0504(19) 0.753(2) 0.064(11) Uiso 1 1 d D . . . .
O7 O 0.3762(14) 0.8407(17) 0.768(2) 0.062(12) Uiso 1 1 d D . . . .
O8 O 0.3109(16) 0.8451(13) 0.9269(12) 0.041(9) Uiso 1 1 d D . . . .
O9 O 0.1977(7) 0.8463(11) 1.027(2) 0.036(8) Uiso 1 1 d D . . . .
O10 O 0.090(2) 0.8352(16) 0.9191(16) 0.059(11) Uiso 1 1 d D . . . .
O11 O 0.1146(11) 0.8437(14) 0.7261(19) 0.033(9) Uiso 1 1 d D . . . .
O12 O 0.2428(12) 0.8447(14) 0.762(2) 0.035(9) Uiso 1 1 d D . . . .
O13 O 0.302(2) 0.9498(6) 0.811(3) 0.058(10) Uiso 1 1 d D . . . .
O14 O 0.0794(14) 0.9488(6) 0.8298(19) 0.023(7) Uiso 1 1 d D . . . .
O15 O 0.4191(15) 1.1274(11) 0.607(2) 0.037(9) Uiso 1 1 d D . . . .
O16 O 0.4074(16) 0.9996(11) 0.5854(19) 0.026(8) Uiso 1 1 d D . . . .
O17 O 0.3983(15) 0.8654(9) 0.5750(16) 0.022(8) Uiso 1 1 d D . . . .
O18 O 0.1886(14) 1.1326(8) 0.6189(16) 0.020(7) Uiso 1 1 d D . . . .
O19 O 0.1922(19) 1.0007(11) 0.5905(19) 0.045(9) Uiso 1 1 d D . . . .
O20 O 0.1956(17) 0.8682(9) 0.5796(14) 0.024(7) Uiso 1 1 d D . . . .
O21 O -0.0039(7) 1.0468(13) 0.7923(18) 0.022(7) Uiso 1 1 d D . . . .
O22 O -0.0051(8) 0.8516(12) 0.790(2) 0.030(9) Uiso 1 1 d D . . . .
O23 O 0.421(2) 0.750000 0.647(3) 0.010(10) Uiso 1 2 d DS . P . .
O24 O 0.190(2) 0.750000 0.657(3) 0.017(10) Uiso 1 2 d DS . P . .
O25 O 0.290(3) 0.750000 1.052(4) 0.061(16) Uiso 1 2 d DS . P . .
O26 O 0.114(2) 0.750000 1.057(2) 0.010(10) Uiso 1 2 d DS . P . .
loop_
_atom_type_symbol
_atom_type_description
_atom_type_scat_dispersion_real
_atom_type_scat_dispersion_imag
_atom_type_scat_source
O O 0.0000 0.0000 'International Tables Vol C Tables 4.2.6.8 and 6.1.1.4'
Si Si 0.0000 0.0000 'International Tables Vol C Tables 4.2.6.8 and 6.1.1.4'
loop_
_geom_angle_atom_site_label_1
_geom_angle_atom_site_label_2
_geom_angle_atom_site_label_3
_geom_angle
_geom_angle_site_symmetry_1
_geom_angle_site_symmetry_3
O16 Si1 O1 116.4(19) . .
O16 Si1 O21 108.6(17) . 6_657
O1 Si1 O21 108.7(16) . 6_657
O16 Si1 O15 107.0(17) . .
O1 Si1 O15 106.9(19) . .
O21 Si1 O15 109.1(15) 6_657 .
O13 Si2 O2 112.7(19) . .
O13 Si2 O6 102(2) . .
O2 Si2 O6 106(2) . .
O13 Si2 O1 119(2) . .
O2 Si2 O1 106.6(16) . .
O6 Si2 O1 110(2) . .
O20 Si3 O2 108.7(14) 2_575 .
O20 Si3 O3 109(2) 2_575 .
O2 Si3 O3 109(2) . .
O20 Si3 O19 111.9(16) 2_575 2_575
O2 Si3 O19 111.5(18) . 2_575
O3 Si3 O19 107(2) . 2_575
O4 Si4 O17 106.1(14) . 2_575
O4 Si4 O3 115(2) . .
O17 Si4 O3 105(2) 2_575 .
O4 Si4 O16 110.0(17) . 2_575
O17 Si4 O16 114.2(16) 2_575 2_575
O3 Si4 O16 107(2) . 2_575
O4 Si5 O14 110.2(15) . .
O4 Si5 O21 108.7(16) . .
O14 Si5 O21 110.0(16) . .
O4 Si5 O5 112.5(18) . .
O14 Si5 O5 109.9(18) . .
O21 Si5 O5 105.3(12) . .
O19 Si6 O6 109(2) . .
O19 Si6 O18 112.2(16) . .
O6 Si6 O18 112.2(19) . .
O19 Si6 O5 108.2(18) . .
O6 Si6 O5 108(2) . .
O18 Si6 O5 108.0(14) . .
O17 Si7 O22 113.6(17) . 6_657
O17 Si7 O7 114(2) . .
O22 Si7 O7 103.7(16) 6_657 .
O17 Si7 O23 104.9(14) . .
O22 Si7 O23 112(2) 6_657 .
O7 Si7 O23 108(2) . .
O13 Si8 O12 103.8(19) . .
O13 Si8 O7 116(2) . .
O12 Si8 O7 114(2) . .
O13 Si8 O8 110.3(19) . .
O12 Si8 O8 109.7(19) . .
O7 Si8 O8 103.5(15) . .
O25 Si9 O18 104.9(15) . 2_575
O25 Si9 O8 107(3) . .
O18 Si9 O8 109.9(16) 2_575 .
O25 Si9 O9 114(2) . .
O18 Si9 O9 110.0(16) 2_575 .
O8 Si9 O9 110.7(17) . .
O15 Si10 O10 112(2) 2_575 .
O15 Si10 O26 110.1(15) 2_575 .
O10 Si10 O26 106.8(19) . .
O15 Si10 O9 110.6(17) 2_575 .
O10 Si10 O9 109.9(19) . .
O26 Si10 O9 107.4(19) . .
O10 Si11 O14 107.8(18) . .
O10 Si11 O22 109.2(19) . .
O14 Si11 O22 111.1(16) . .
O10 Si11 O11 113(2) . .
O14 Si11 O11 109.9(17) . .
O22 Si11 O11 106.1(14) . .
O12 Si12 O24 109(2) . .
O12 Si12 O11 110(2) . .
O24 Si12 O11 107(2) . .
O12 Si12 O20 113.9(18) . .
O24 Si12 O20 107.7(14) . .
O11 Si12 O20 109.0(17) . .
Si2 O1 Si1 145(2) . .
Si3 O2 Si2 154(2) . .
Si3 O3 Si4 172(3) . .
Si4 O4 Si5 151.3(19) . .
Si6 O5 Si5 148(2) . .
Si2 O6 Si6 163(3) . .
Si8 O7 Si7 149(2) . .
Si8 O8 Si9 152(2) . .
Si9 O9 Si10 153.1(17) . .
Si11 O10 Si10 159(2) . .
Si12 O11 Si11 149(2) . .
Si12 O12 Si8 163(3) . .
Si8 O13 Si2 171(3) . .
Si11 O14 Si5 162.7(19) . .
Si10 O15 Si1 146.6(19) 2_574 .
Si1 O16 Si4 165(2) . 2_574
Si7 O17 Si4 145.1(17) . 2_574
Si6 O18 Si9 141.6(16) . 2_574
Si6 O19 Si3 162(3) . 2_574
Si3 O20 Si12 144.5(17) 2_574 .
Si5 O21 Si1 146.4(19) . 6_557
Si11 O22 Si7 148(2) . 6_557
Si7 O23 Si7 154(3) . 7_575
Si12 O24 Si12 156(3) 7_575 .
Si9 O25 Si9 150(3) 7_575 .
Si10 O26 Si10 150(2) . 7_575
loop_
_geom_bond_atom_site_label_1
_geom_bond_atom_site_label_2
_geom_bond_distance
_geom_bond_site_symmetry_2
Si1 O16 1.607(9) .
Si1 O1 1.608(10) .
Si1 O21 1.608(10) 6_657
Si1 O15 1.610(10) .
Si2 O13 1.593(9) .
Si2 O2 1.604(10) .
Si2 O6 1.605(10) .
Si2 O1 1.607(10) .
Si3 O20 1.602(10) 2_575
Si3 O2 1.604(10) .
Si3 O3 1.605(10) .
Si3 O19 1.606(10) 2_575
Si4 O4 1.597(10) .
Si4 O17 1.604(10) 2_575
Si4 O3 1.606(10) .
Si4 O16 1.607(10) 2_575
Si5 O4 1.597(10) .
Si5 O14 1.602(9) .
Si5 O21 1.608(10) .
Si5 O5 1.609(10) .
Si6 O19 1.605(9) .
Si6 O6 1.607(10) .
Si6 O18 1.609(10) .
Si6 O5 1.609(10) .
Si7 O17 1.603(10) .
Si7 O22 1.603(10) 6_657
Si7 O7 1.606(10) .
Si7 O23 1.608(9) .
Si8 O13 1.591(9) .
Si8 O12 1.600(10) .
Si8 O7 1.605(10) .
Si8 O8 1.608(10) .
Si9 O25 1.608(9) .
Si9 O18 1.610(10) 2_575
Si9 O8 1.611(10) .
Si9 O9 1.611(10) .
Si10 O15 1.601(10) 2_575
Si10 O10 1.602(10) .
Si10 O26 1.607(9) .
Si10 O9 1.613(10) .
Si11 O10 1.597(10) .
Si11 O14 1.601(9) .
Si11 O22 1.603(10) .
Si11 O11 1.606(10) .
Si12 O12 1.595(10) .
Si12 O24 1.603(9) .
Si12 O11 1.605(10) .
Si12 O20 1.606(10) .
