#------------------------------------------------------------------------------
#$Date: 2018-01-11 12:53:52 +0200 (Thu, 11 Jan 2018) $
#$Revision: 205069 $
#$URL: file:///home/coder/svn-repositories/cod/cif/1/54/86/1548624.cif $
#------------------------------------------------------------------------------
#
# This file is available in the Crystallography Open Database (COD),
# http://www.crystallography.net/
#
# All data on this site have been placed in the public domain by the
# contributors.
#
data_1548624
loop_
_publ_author_name
'Gruene, T.'
'Teng, Li.'
'Van Genderen, E.'
'Pinar, A. B.'
'Van Bokhoven, J. A.'
_publ_section_title
;
 Characterization at the level of individual crystals: single crystal MFI
 type zeolite grains
;
_journal_name_full               'Chemistry - A European Journal'
_journal_paper_doi               10.1002/chem.201704213
_journal_year                    2017
_chemical_formula_sum            'O24 Si12'
_chemical_formula_weight         721.20
_space_group_crystal_system      orthorhombic
_space_group_IT_number           62
_space_group_name_Hall           '-P 2ac 2n'
_space_group_name_H-M_alt        'P n m a'
_symmetry_space_group_name_Hall  '-P 2ac 2n'
_symmetry_space_group_name_H-M   'P n m a'
_atom_sites_solution_hydrogens   .
_audit_creation_method           SHELXL-2016/6
_cell_angle_alpha                90
_cell_angle_beta                 90
_cell_angle_gamma                90
_cell_formula_units_Z            8
_cell_length_a                   20.33(2)
_cell_length_b                   20.12(6)
_cell_length_c                   13.636(8)
_cell_measurement_temperature    293(2)
_cell_volume                     5578(18)
_computing_structure_refinement  'SHELXL-2016/6 (Sheldrick, 2016)'
_computing_structure_solution    'SHELXT 2014/5 (Sheldrick, 2014)'
_diffrn_ambient_temperature      293(2)
_diffrn_measured_fraction_theta_full 0.725
_diffrn_measured_fraction_theta_max 0.725
_diffrn_radiation_wavelength     0.02508
_diffrn_reflns_av_R_equivalents  0.1498
_diffrn_reflns_av_unetI/netI     0.1252
_diffrn_reflns_Laue_measured_fraction_full 0.725
_diffrn_reflns_Laue_measured_fraction_max 0.725
_diffrn_reflns_limit_h_max       18
_diffrn_reflns_limit_h_min       -18
_diffrn_reflns_limit_k_max       18
_diffrn_reflns_limit_k_min       -17
_diffrn_reflns_limit_l_max       13
_diffrn_reflns_limit_l_min       -13
_diffrn_reflns_number            6799
_diffrn_reflns_point_group_measured_fraction_full 0.725
_diffrn_reflns_point_group_measured_fraction_max 0.725
_diffrn_reflns_theta_full        0.715
_diffrn_reflns_theta_max         0.715
_diffrn_reflns_theta_min         0.064
_exptl_absorpt_coefficient_mu    0.274
_exptl_crystal_density_diffrn    1.718
_exptl_crystal_F_000             940
_refine_diff_density_max         0.216
_refine_diff_density_min         -0.175
_refine_diff_density_rms         0.047
_refine_ls_extinction_coef       .
_refine_ls_extinction_method     none
_refine_ls_goodness_of_fit_ref   1.442
_refine_ls_hydrogen_treatment    undef
_refine_ls_matrix_type           full
_refine_ls_number_parameters     331
_refine_ls_number_reflns         2176
_refine_ls_number_restraints     360
_refine_ls_restrained_S_all      1.342
_refine_ls_R_factor_all          0.2342
_refine_ls_R_factor_gt           0.1560
_refine_ls_shift/su_max          0.051
_refine_ls_shift/su_mean         0.000
_refine_ls_structure_factor_coef Fsqd
_refine_ls_weighting_details
'w=1/[\s^2^(Fo^2^)+(0.2000P)^2^] where P=(Fo^2^+2Fc^2^)/3'
_refine_ls_weighting_scheme      calc
_refine_ls_wR_factor_gt          0.4227
_refine_ls_wR_factor_ref         0.4601
_reflns_Friedel_coverage         0.000
_reflns_Friedel_fraction_full    .
_reflns_Friedel_fraction_max     .
_reflns_number_gt                1094
_reflns_number_total             2176
_reflns_threshold_expression     'I > 2\s(I)'
_cod_data_source_file            zsm5_ChemEurJ.cif
_cod_data_source_block           z2a
_cod_database_code               1548624
_shelx_shelxl_version_number     2016/6
_shelx_space_group_comment
;
The symmetry employed for this shelxl refinement is uniquely defined
by the following loop, which should always be used as a source of
symmetry information in preference to the above space-group names.
They are only intended as comments.
;
_shelx_res_file
;
TITL 02_a.res in Pnma
    z2a.res
    created by SHELXL-2016/6 at 11:17:18 on 31-Oct-2017
REM Old TITL 02 in P222
REM SHELXT solution in Pnma
REM R1 0.266,  Rweak 0.023,  Alpha 0.120,  Orientation a'=b, b'=a, c'=-c
REM Formula found by SHELXT:  O2 Si
CELL  0.02508  20.3280  20.124   13.6360   90.000   90.000   90.000
ZERR    8.000   0.0230   0.0600   0.0079    0.000    0.000    0.000
LATT  1
SYMM 1/2-X, -Y, 1/2+Z
SYMM -X, 1/2+Y, -Z
SYMM 1/2+X, 1/2-Y, 1/2-Z
SFAC O  0.237  0.799  0.649  3.654  0.800 10.924  0.261 29.964  0.035 =
   0.0 0.0 18.200 0.660 16.00
SFAC Si  0.665  1.394  1.312  8.299  2.609 27.621  1.135 78.294  0.106 =
  0.0 0.0 123.000 1.110 28.100
UNIT 192 96
ACTA
L.S. 20
LIST 4

FMAP 2
EQIV $1   x-1/2, y, -z+3/2
EQIV $2   -x+1/2, -y+2, z-1/2
EQIV $3   x, -y+3/2, z
EQIV $4   -x+1/2, -y+2, z+1/2
EQIV $5   x+1/2, y, -z+3/2

DFIX 1.609 0.01 Si1  O1 Si1 O21_$5 Si1 O16 Si1 O15
DFIX 1.609 0.01 Si2  O2 Si2 O13 Si2 O6 Si2 O1
DFIX 1.609 0.01 Si3  O20_$4 Si3 O19_$4 Si3 O2 Si3 O3
DFIX 1.609 0.01 Si4  O4 Si4 O16_$4 Si4 O3 Si4 O17_$4
DFIX 1.609 0.01 Si5  O4 Si5 O5 Si5 O14 Si5 O21
DFIX 1.609 0.01 Si6  O19 Si6 O6 Si6 O5 Si6 O18
DFIX 1.609 0.01 Si7  O23 Si7 O17 Si7 O7 Si7 O22_$5
DFIX 1.609 0.01 Si8  O13 Si8 O8 Si8 O12 Si8 O7
DFIX 1.609 0.01 Si9  O18_$4 Si9 O8 Si9 O25 Si9 O9
DFIX 1.609 0.01 Si10 O15_$4 Si10 O26 Si10 O10 Si10 O9
DFIX 1.609 0.01 Si11 O10 Si11 O14 Si11 O11 Si11 O22
DFIX 1.609 0.01 Si12 O20 Si12 O24 Si12 O11 Si12 O12

PLAN 20
XNPD 0.001
RIGU
WGHT    0.200000
FVAR       0.56473
SI1   2    0.422974    1.057224    0.662649    11.00000    0.01391    0.00908 =
         0.02163    0.00153    0.00282    0.00375
SI2   2    0.307703    1.029465    0.810464    11.00000    0.01116    0.02265 =
         0.02980   -0.00340    0.00560    0.00633
SI3   2    0.280231    1.061483    1.029702    11.00000    0.01937    0.00563 =
         0.02470   -0.00681   -0.00240    0.00415
SI4   2    0.122294    1.064372    1.025668    11.00000    0.01013    0.01900 =
         0.01391   -0.01400    0.00169   -0.00084
SI5   2    0.071715    1.028863    0.814414    11.00000    0.01365    0.00934 =
         0.00151   -0.00126   -0.00220    0.00146
SI6   2    0.186296    1.058921    0.670299    11.00000    0.01577    0.02494 =
         0.01661    0.00576    0.01121   -0.00035
SI7   2    0.422809    0.828651    0.673671    11.00000    0.01574    0.01103 =
         0.01657    0.00389    0.00965    0.00018
SI8   2    0.307366    0.870276    0.815422    11.00000    0.02517    0.02386 =
         0.00698   -0.00370    0.00395    0.00188
SI9   2    0.274447    0.827513    1.030781    11.00000    0.02288    0.01378 =
         0.01543    0.00364   -0.00378   -0.00294
SI10  2    0.119314    0.826762    1.027130    11.00000    0.01534    0.01744 =
         0.02116    0.00398   -0.00037   -0.00764
SI11  2    0.069550    0.870033    0.816829    11.00000    0.00488    0.01057 =
         0.02729   -0.00183    0.00088    0.00450
SI12  2    0.186743    0.828046    0.681238    11.00000    0.00549    0.03609 =
         0.02935   -0.00678    0.00509   -0.00153
O1    1    0.371767    1.054604    0.752503    11.00000    0.03039    0.07413 =
         0.04562   -0.00756    0.01798   -0.01155
O2    1    0.307910    1.061311    0.918808    11.00000    0.03085    0.04214 =
         0.03255   -0.00811    0.00936   -0.01466
O3    1    0.201237    1.058861    1.029192    11.00000    0.01533    0.10062 =
         0.07081   -0.02028    0.00354    0.00908
O4    1    0.097733    1.062166    0.913761    11.00000    0.04097    0.05882 =
         0.02851   -0.03533   -0.01410   -0.00209
O5    1    0.115796    1.056085    0.724665    11.00000    0.02162    0.06100 =
         0.02991    0.02574    0.01531    0.01165
O6    1    0.243462    1.054247    0.752169    11.00000    0.02842    0.08924 =
         0.03913    0.01085   -0.00927    0.00703
O7    1    0.371652    0.842170    0.761899    11.00000    0.03479    0.07542 =
         0.03395   -0.00736    0.01793    0.01528
O8    1    0.308685    0.845979    0.927626    11.00000    0.04299    0.07477 =
         0.02480    0.01627    0.00810    0.00414
O9    1    0.196872    0.846299    1.025954    11.00000    0.01853    0.01664 =
         0.07038    0.01248    0.00361    0.00013
O10   1    0.090080    0.835381    0.918408    11.00000    0.05955    0.05413 =
         0.04571    0.01362   -0.02519    0.00085
O11   1    0.115463    0.844076    0.728299    11.00000    0.02360    0.07328 =
         0.06056   -0.03350    0.01661    0.00637
O12   1    0.241639    0.844993    0.761652    11.00000    0.03164    0.09067 =
         0.03100   -0.00502   -0.00188   -0.02311
O13   1    0.308246    0.949727    0.817898    11.00000    0.11354    0.02159 =
         0.11100   -0.00657    0.02377   -0.00475
O14   1    0.079023    0.949465    0.826133    11.00000    0.07128    0.01273 =
         0.05742   -0.00848    0.00149   -0.00165
O15   1    0.419983    1.125547    0.600947    11.00000    0.04101    0.01537 =
         0.05388    0.01280   -0.02153   -0.00004
O16   1    0.407885    0.997016    0.587328    11.00000    0.06897    0.01624 =
         0.03790   -0.00063   -0.02889    0.00456
O17   1    0.401785    0.866833    0.574084    11.00000    0.06857    0.01311 =
         0.02114    0.00604   -0.00521    0.00355
O18   1    0.189617    1.129724    0.614826    11.00000    0.05314    0.02420 =
         0.03854    0.00576    0.01526   -0.00700
O19   1    0.191434    1.001640    0.588309    11.00000    0.05734    0.02626 =
         0.04428   -0.00472    0.01304    0.00731
O20   1    0.196321    0.870883    0.582523    11.00000    0.06133    0.03688 =
         0.04392    0.00323    0.00843   -0.00246
O21   1   -0.003862    1.049610    0.793090    11.00000    0.01364    0.04699 =
         0.02649    0.00672   -0.00557   -0.00143
O22   1   -0.005219    0.851155    0.789842    11.00000    0.01016    0.07821 =
         0.04575   -0.00304    0.00561   -0.01477
O23   1    0.422656    0.750000    0.648726    10.50000    0.07177    0.01321 =
         0.01796    0.00000   -0.01784    0.00000
O24   1    0.192479    0.750000    0.655190    10.50000    0.04413    0.03439 =
         0.04726    0.00000    0.01846    0.00000
O25   1    0.284026    0.750000    1.056265    10.50000    0.03295    0.01538 =
         0.02664    0.00000   -0.02416    0.00000
O26   1    0.112464    0.750000    1.059025    10.50000    0.03923    0.01402 =
         0.03867    0.00000    0.01367    0.00000
HKLF 4




REM  02_a.res in Pnma
REM R1 =  0.1560 for    1094 Fo > 4sig(Fo)  and  0.2342 for all    2176 data
REM    331 parameters refined using    360 restraints

END

WGHT      0.2000      0.0000

REM Highest difference peak  0.216,  deepest hole -0.175,  1-sigma level  0.047
Q1    1   0.3378  1.2500  0.8524  10.50000  0.05    0.22
Q2    1  -0.0285  0.7500  1.2570  10.50000  0.05    0.20
Q3    1   0.0989  1.2500  0.8021  10.50000  0.05    0.18
Q4    1   0.4282  0.7500  1.1641  10.50000  0.05    0.17
Q5    1   0.2315  1.2090  0.8821  11.00000  0.05    0.17
Q6    1   0.1539  1.1181  0.8248  11.00000  0.05    0.17
Q7    1   0.3823  1.2263  0.8605  11.00000  0.05    0.17
Q8    1   0.1307  1.2042  0.8385  11.00000  0.05    0.17
Q9    1   0.0945  0.7500  1.3565  10.50000  0.05    0.16
Q10   1   0.2475  1.1052  0.8138  11.00000  0.05    0.16
Q11   1   0.2109  0.7500  1.2788  10.50000  0.05    0.16
Q12   1   0.2395  1.1211  0.8074  11.00000  0.05    0.16
Q13   1   0.3443  0.7500  0.3788  10.50000  0.05    0.16
Q14   1   0.2926  1.1744  0.7521  11.00000  0.05    0.15
Q15   1   0.4600  1.1685  0.9014  11.00000  0.05    0.14
Q16   1   0.2792  0.7500  1.3440  10.50000  0.05    0.14
Q17   1   0.1880  0.7500  1.1119  10.50000  0.05    0.14
Q18   1   0.1878  1.1769  0.8417  11.00000  0.05    0.13
Q19   1   0.4283  1.1242  0.7223  11.00000  0.05    0.13
Q20   1  -0.0125  1.2196  0.6687  11.00000  0.05    0.13
;
_shelx_res_checksum              400
_shelx_hkl_file
;
   0   0   1  225.15   14.40
   0   0   3    8.23    9.83
   0   0  -3   -1.91    9.66
   0   0   4  697.65   37.80
   0   0  -4  740.80   39.78
   0   0   5  -16.93   10.13
   0   0  -5  -18.13    9.72
   0   0   6 1478.10   76.20
   0   0  -6 1628.12   83.35
   0   0   7   12.80   10.14
   0   0  -7  -16.34    9.65
   0   0   8 1795.59   92.21
   0   0  -8 1744.42   89.58
   0   0   9   -3.49    9.44
   0   0  -9   -1.52    8.71
   0   0  10   15.00    9.64
   0   0 -10    8.37    9.18
   0   0  11   -1.24   10.55
   0   0 -11   -5.93   10.30
   0   0  12  330.86   23.43
   0   0 -12  330.63   23.26
   0   0  13    2.40    9.33
   0   0 -13   -8.40    8.99
  -1   0 -13    6.14    9.50
   1   0  13    2.64    9.44
  -1   0 -12   14.01   10.91
   1   0  12   28.50   11.47
  -1   0 -11  128.27   14.42
   1   0  11  138.74   14.93
  -1   0 -10  457.74   28.00
   1   0  10  403.08   25.60
  -1   0  -9  138.74   13.42
   1   0   9  153.86   14.23
  -1   0  -8 1190.86   62.62
   1   0   8 1166.43   61.53
  -1   0  -7    3.27    9.56
   1   0   7   -0.37   10.26
  -1   0  -6  240.38   17.48
   1   0   6  219.10   17.10
  -1   0  -5  438.20   25.82
   1   0   5  483.67   28.18
  -1   0  -4 3110.88  156.07
   1   0   4 2948.07  147.93
  -1   0  -3 1329.25   68.30
  -1   0  -2 1260.63   64.39
   1   0   2 1207.14   61.68
  -1   0   3 1006.18   51.80
   1   0  -3 1125.50   57.62
  -1   0   4 2477.07  124.32
   1   0  -4 2229.37  112.14
  -1   0   5  340.28   21.01
   1   0  -5  364.23   21.94
  -1   0   6  207.93   15.98
   1   0  -6  206.42   15.33
  -1   0   7  -12.40    9.80
   1   0  -7    9.64    9.28
  -1   0   8 1046.42   55.33
   1   0  -8  976.76   51.77
  -1   0  10  382.49   24.18
   1   0 -10  402.96   25.01
  -1   0  11  136.65   14.36
   1   0 -11  134.79   14.04
  -1   0  12   15.91   10.80
   1   0 -12   13.44   10.84
  -1   0  13   -2.02    9.36
   1   0 -13    5.65    9.14
  -2   0 -13   28.39   10.30
   2   0  13   12.86    9.76
  -2   0 -12    4.54   11.19
   2   0  12   26.11   11.77
  -2   0 -11   10.30   10.99
   2   0  11   13.13   10.93
  -2   0 -10   65.81   10.94
   2   0  10   58.96   11.59
  -2   0  -9  250.38   18.35
   2   0   9  260.50   18.96
  -2   0  -8  154.56   13.99
   2   0   8  146.18   13.91
  -2   0  -6   14.39   10.57
   2   0   6   22.39   11.69
  -2   0  -5  473.78   27.88
   2   0   5  506.46   29.57
  -2   0  -4  646.60   35.99
   2   0   4  689.51   38.16
  -2   0  -3  600.89   33.83
  -2   0  -2  717.65   38.42
   2   0   2  604.27   33.11
  -2   0  -1   20.87    9.72
   2   0   1    3.09   10.85
  -2   0   6   15.41    9.54
   2   0  -6   20.00    8.88
  -2   0   7   71.31   10.95
   2   0  -7   75.86   10.26
  -2   0   9  194.10   15.15
   2   0  -9  190.96   14.64
  -2   0  10   36.82    9.86
   2   0 -10   38.96    9.64
  -2   0  11   -7.71    9.83
   2   0 -11   -4.19    9.64
  -2   0  12   -2.14   10.32
   2   0 -12  -11.76   10.06
  -2   0  13   -0.55    9.01
   2   0 -13   11.29    9.25
  -3   0 -13   17.85   10.23
   3   0  13   14.91   10.06
  -3   0 -12   68.96   13.16
   3   0  12   43.61   12.46
  -3   0 -11  212.00   18.20
   3   0  11  185.72   17.32
  -3   0 -10    3.33   10.02
   3   0  10    6.30   10.19
  -3   0  -9   61.83   10.70
   3   0   9   24.81   10.48
  -3   0  -8   73.85   11.27
   3   0   8   63.66   11.30
  -3   0  -7  951.29   51.23
   3   0   7  871.63   47.59
  -3   0  -5 1506.01   77.70
   3   0   5 1368.79   71.03
  -3   0  -4  127.58   14.05
   3   0   4   95.62   11.83
  -3   0  -3 9523.36  472.62
   3   0   3 9999.00  496.00
  -3   0  -2   18.65   11.93
   3   0   2   -7.97   11.27
   3   0  -8   53.96    9.23
  -3   0   9   51.31    9.65
   3   0  -9   30.02    8.80
  -3   0  10   14.43    9.25
   3   0 -10   -2.98    8.95
  -3   0  11  139.67   13.87
   3   0 -11  146.07   14.47
  -3   0  12   46.74   10.91
   3   0 -12   51.37   11.14
  -3   0  13    5.20    8.78
   3   0 -13    0.13    9.13
  -4   0 -13    2.69    9.87
   4   0  13   12.36   10.12
  -4   0 -12   90.59   14.00
   4   0  12   91.23   14.57
  -4   0 -11   41.77   12.35
   4   0  11   68.25   13.50
  -4   0 -10   -3.91   10.55
   4   0  10    2.95   10.28
  -4   0  -9  437.15   27.31
   4   0   9  493.79   30.14
  -4   0  -8   -4.73    9.99
   4   0   8   16.22   10.14
  -4   0  -7   98.86   12.68
   4   0   7   82.45   12.49
  -4   0  -6    7.62   10.80
   4   0   6    8.05   11.41
  -4   0  -5   41.82   11.90
   4   0   5   36.82   10.98
  -4   0  -4 1098.29   57.83
  -4   0  -3 1482.75   76.20
   4   0   3 1490.90   76.50
  -4   0  -2  150.37   15.22
   4   0   2  143.97   14.92
   4   0 -10   -3.21    8.41
  -4   0  11   57.33   10.52
   4   0 -11   52.23   10.95
  -4   0  12   66.39   11.01
   4   0 -12   82.03   11.83
  -4   0  13   14.56    8.51
   4   0 -13    6.87    8.38
  -5   0 -13   20.79   10.89
   5   0  13   36.82   11.37
  -5   0 -12   10.98   11.33
   5   0  12   31.56   12.01
  -5   0 -11 1008.39   55.86
   5   0  11  879.30   49.76
  -5   0 -10   -0.85   10.68
   5   0  10  -12.20   10.68
  -5   0  -9 1301.34   69.13
   5   0   9 1399.02   74.01
  -5   0  -8   23.91   10.59
   5   0   8    3.31   10.15
  -5   0  -7   54.65   11.84
   5   0   7   77.57   12.26
  -5   0  -6   65.68   12.13
   5   0   6   75.82   12.72
  -5   0  -5 1089.33   57.81
   5   0   5 1040.37   55.45
  -5   0  -4  138.04   14.49
   5   0   4   89.84   12.19
  -5   0  -3 3044.59  153.04
   5   0   3 3238.80  162.58
   5   0 -13   21.60    9.13
  -6   0 -12   56.84   12.90
   6   0  12   73.92   13.02
  -6   0 -11    8.98   12.01
   6   0  11   33.02   12.55
  -6   0 -10   33.98   11.94
   6   0  10   64.08   13.00
  -6   0  -8   14.25   10.28
   6   0   8   -0.91   10.44
  -6   0  -7  159.90   15.15
   6   0   7  144.55   14.68
  -6   0  -6  595.08   34.34
   6   0   6  653.92   37.31
  -6   0  -5  358.65   23.78
  -6   0  -4   -3.58   11.23
   6   0   4   -2.22   10.83
  -6   0  -3  601.13   34.07
   6   0   3  573.68   32.82
  -7   0 -12    9.43   10.80
   7   0  12   12.04   11.27
  -7   0 -11   26.25   12.75
   7   0  11   40.03   12.96
  -7   0 -10   46.56   12.96
   7   0  10   31.57   12.33
  -7   0  -9   93.92   13.50
   7   0   9   97.70   13.40
  -7   0  -7   31.56   10.78
   7   0   7   22.04   10.30
  -7   0  -6  583.57   33.91
   7   0   6  597.75   34.69
  -7   0  -5   30.14   11.79
  -7   0  -4  187.00   16.69
   7   0   4  192.82   16.62
   7   0   3 1315.29   68.37
  -8   0 -12  166.07   16.69
   8   0  12  179.79   17.10
  -8   0 -11   39.12   12.70
   8   0  11   37.64   12.41
  -8   0 -10  157.46   16.65
   8   0  10  165.37   17.68
  -8   0  -9    3.91   11.08
   8   0   9   25.97   11.68
  -8   0  -8 1290.87   68.82
   8   0   8 1312.96   69.85
  -8   0  -7   -1.10    9.90
   8   0   7    2.81   10.30
  -8   0  -5  342.37   22.86
   8   0   5  313.76   21.50
  -9   0 -12   23.39   11.96
  -9   0 -11   17.65   11.66
   9   0  11   27.63   12.28
  -9   0 -10   18.34   12.51
   9   0  10   19.87   12.63
  -9   0  -9   73.93   13.34
   9   0   9  106.99   14.23
  -9   0  -7   27.70   10.58
   9   0   7   16.87   10.41
  -9   0  -6  333.77   22.21
  -9   0  -5  112.79   13.48
   9   0   5  111.38   12.89
  -9   0  -4   13.29   11.16
   9   0   4   23.28   10.66
 -10   0 -11    9.90   11.04
  10   0  11   -0.76   11.09
 -10   0 -10  191.07   18.49
  10   0  10  235.15   20.26
 -10   0  -9    6.91   11.57
  10   0   9   19.47   12.41
 -10   0  -8  580.77   34.77
  10   0   8  574.38   34.62
 -10   0  -7   20.56   10.15
  10   0   7   27.39   10.64
 -10   0  -6   32.19   10.78
  10   0   6   31.60    9.77
 -10   0  -5    9.07   10.37
  10   0   5   -3.50    9.85
 -11   0 -11    7.02   10.73
  11   0  11   39.26   11.29
 -11   0 -10  122.92   15.33
  11   0  10   97.82   14.22
 -11   0  -9   20.49   11.86
  11   0   9   -1.34   11.92
 -11   0  -8   43.16   12.16
  11   0   8   36.95   11.98
 -11   0  -7   20.83   11.23
 -11   0  -6  448.55   28.14
  11   0   6  445.52   27.82
 -11   0  -5   10.85   10.16
  11   0   5   15.51   10.04
 -12   0 -10  -10.94   10.15
  12   0  10    6.66   10.78
 -12   0  -9   26.48   12.01
  12   0   9   21.11   12.13
 -12   0  -8  137.23   16.05
  12   0   8  157.35   16.69
 -12   0  -7  259.10   20.31
 -12   0  -6   16.50   10.78
  12   0   6   10.07   10.34
  12   0   5   31.53   10.83
 -13   0 -10   55.91   11.68
  13   0  10   64.82   12.16
 -13   0  -9   13.75   11.35
  13   0   9   25.11   11.42
 -13   0  -8   45.02   12.92
 -13   0  -7  446.69   29.18
  13   0   7  450.52   29.31
 -13   0  -6   19.82   10.86
  13   0   6   43.58   11.18
 -14   0  -9  100.30   13.85
  14   0   9   95.51   13.20
 -14   0  -8   51.04   12.93
 -14   0  -7   81.19   14.18
  14   0   7   80.03   13.75
  14   0   6  172.93   16.54
 -15   0  -8   -9.11   10.41
  15   0   8   -9.83    9.64
 -15   0  -7   49.30   12.77
  15   0   7   69.95   12.93
 -16   0  -8   66.67   12.57
  16   0   8   72.35   12.63
  16   0   7    6.52   10.54
  17   0   7    0.91   10.61
  17  -1   7    1.05    9.98
 -17   1  -7    3.62   10.64
  16  -1   6   11.21   10.84
  16  -1   7   26.74   10.63
 -16   1  -7   -1.37   10.80
  16  -1   8    6.05   10.39
 -16   1  -8    3.61    9.99
  15  -1   6   11.12   11.26
 -15   1  -6    1.74   11.86
  15  -1   7    8.83   11.50
 -15   1  -7  -14.14   11.08
  15  -1   8    7.76   10.08
 -15   1  -8  -11.21   11.15
  14  -1   5   14.77   10.33
  14  -1   6   19.21   11.55
 -14   1  -6    4.76   11.77
  14  -1   7   18.36   11.75
 -14   1  -7   -3.85   11.89
 -14   1  -9  -13.39   10.64
  13  -1   5   15.60    9.79
 -13   1  -5    9.37   10.56
  13  -1   6  234.33   19.08
 -13   1  -6  252.59   20.03
  13  -1   7    7.72   11.26
 -13   1  -7    2.34   12.21
  13  -1   8   34.07   10.87
 -13   1  -8   54.77   13.14
  13  -1   9   14.64   11.05
 -13   1  -9    4.15   11.16
  13  -1  10   11.58   10.06
 -13   1 -10   21.67   10.61
  12  -1   5   -1.30   10.13
 -12   1  -5   -0.14   10.01
  12  -1   6   29.04   10.59
 -12   1  -6   12.48   10.64
  12  -1   7   79.64   12.72
 -12   1  -7   46.55   12.11
 -12   1  -8    8.95   12.00
  12  -1   9    9.76   11.65
 -12   1  -9   -7.57   11.80
  12  -1  10   20.06   11.28
 -12   1 -10   19.90   11.30
  11  -1   4   -4.76    9.64
 -11   1  -4   -1.64    9.79
  11  -1   5   11.41    9.79
 -11   1  -5   18.83   10.29
  11  -1   6   16.54   10.00
 -11   1  -6   34.85   10.63
  11  -1   7   15.77   10.65
 -11   1  -7   11.22   11.01
  11  -1   8   12.51   10.64
 -11   1  -8    7.91   11.78
  11  -1   9    7.06   11.89
 -11   1  -9   -7.56   11.96
  11  -1  10   21.70   12.01
 -11   1 -10    0.76   11.63
  11  -1  11    7.72   10.61
 -11   1 -11   10.29   10.71
  10  -1   4   -2.65   10.18
 -10   1  -4   -6.40   10.18
  10  -1   5   32.33   10.91
 -10   1  -5   34.39   10.85
  10  -1   6   -7.76    9.40
 -10   1  -6   -9.98   10.35
 -10   1  -7    7.64   10.47
  10  -1   8    9.50   11.33
 -10   1  -8  -11.00   10.98
  10  -1   9   66.82   13.92
 -10   1  -9   86.55   14.15
  10  -1  10   10.08   12.25
 -10   1 -10   12.58   12.04
  10  -1  11   -2.20   11.33
 -10   1 -11   20.46   11.34
   9  -1   3   -9.73   10.57
   9  -1   4   24.74   10.56
  -9   1  -4   18.40   10.98
   9  -1   5    7.29   10.01
  -9   1  -5   25.07   10.83
   9  -1   6   -5.44    9.37
  -9   1  -6    0.74   10.39
  -9   1  -7   -5.63   10.02
   9  -1   8    4.64   10.50
  -9   1  -8   22.18   10.73
   9  -1   9    0.50   11.51
  -9   1  -9    2.72   11.64
   9  -1  10   -9.59   12.54
  -9   1 -10    4.19   12.11
   9  -1  11    0.50   11.16
  -9   1 -11    5.50   11.30
   8  -1   3   32.89   11.59
  -8   1  -3   62.07   12.37
   8  -1   4   59.03   11.80
  -8   1  -4   52.08   12.32
   8  -1   5  108.43   13.71
  -8   1  -5  122.34   13.98
   8  -1   6   29.59    8.91
  -8   1  -6   53.77   11.52
   8  -1   7  465.06   29.04
  -8   1  -7  488.44   29.88
   8  -1   8   58.18   12.08
  -8   1  -8   54.01   11.54
   8  -1   9   79.23   13.16
  -8   1  -9   63.62   12.66
   8  -1  10    3.95   12.22
  -8   1 -10    4.40   12.44
   8  -1  11   17.25   11.99
  -8   1 -11   22.46   12.11
   8  -1  12   10.87   10.44
  -8   1 -12   10.23   10.50
   7  -1   3   33.23   11.11
  -7   1  -3   41.45   11.70
   7  -1   4    8.47   11.22
  -7   1  -4    0.09   11.41
   7  -1   5    8.49   11.35
  -7   1  -5   27.67   12.12
  -7   1  -6   63.01   11.62
   7  -1   7   -6.13   10.19
  -7   1  -7    1.80   10.73
   7  -1   8   56.51   11.77
  -7   1  -8   30.60   11.40
   7  -1   9   17.73   10.83
  -7   1  -9    0.70   10.86
   7  -1  10    0.74   12.21
  -7   1 -10   20.48   11.30
   7  -1  11    6.79   12.28
  -7   1 -11   14.96   12.22
   7  -1  12   -8.09   10.52
  -7   1 -12   -2.06   10.95
   6  -1   2  148.28   14.62
  -6   1  -2  137.46   14.30
   6  -1   3   32.00   11.52
  -6   1  -3   14.59   11.82
   6  -1   4    4.77   11.16
  -6   1  -4    6.20   11.20
   6  -1   5   36.11   12.04
  -6   1  -5   54.82   12.55
   6  -1   6   14.84   11.46
  -6   1  -6    2.36   10.82
   6  -1   7   12.25   10.57
  -6   1  -7   -3.56   10.52
   6  -1   8   13.39   10.66
  -6   1  -8   24.71   10.39
   6  -1   9   -0.08   10.47
  -6   1  -9    0.02   10.45
   6  -1  10   24.14   11.93
  -6   1 -10   17.91   11.56
   6  -1  11   21.56   12.54
  -6   1 -11   21.20   12.51
   6  -1  12   26.71   11.65
  -6   1 -12    7.33   11.19
   5  -1 -13   11.85    8.95
  -5   1  13    9.95    8.71
   5  -1 -12   19.51    9.07
   5  -1   2  469.36   27.61
  -5   1  -2  549.14   31.48
   5  -1   3   74.35   12.71
  -5   1  -3   88.15   12.78
   5  -1   4  422.73   26.07
  -5   1  -4  408.31   25.46
  -5   1  -5    1.24   11.73
   5  -1   6   42.88   11.83
  -5   1  -6   38.10   11.96
   5  -1   7  -13.90   10.41
  -5   1  -7   15.22   10.36
   5  -1   8   38.99   11.19
  -5   1  -8   26.05   10.57
   5  -1   9   -3.50   10.23
  -5   1  -9   25.52   10.44
   5  -1  10  364.93   24.83
  -5   1 -10  354.47   24.40
   5  -1  11    5.80   12.23
  -5   1 -11   16.32   11.72
   5  -1  12   11.20   11.40
  -5   1 -12   12.96   10.69
   4  -1 -13    5.01    8.62
  -4   1  13    6.22    8.04
   4  -1 -12   13.09    9.41
  -4   1  12    1.64    9.26
   4  -1 -11    4.02    9.87
  -4   1  11    6.12    9.75
   4  -1 -10    0.03    8.40
  -4   1  10    1.22    8.43
   4  -1  -9    9.90    7.57
   4  -1   1   62.44   12.26
  -4   1  -1   29.40   10.92
   4  -1   2  113.36   13.78
  -4   1  -2  103.56   13.49
   4  -1   3   10.79   11.75
  -4   1  -3   -0.31   11.85
   4  -1   4    5.87   12.19
  -4   1  -4   -8.87   11.49
  -4   1  -5    1.62   11.48
   4  -1   6    8.51   11.23
  -4   1  -6   16.26   11.27
   4  -1   7    3.29   10.72
  -4   1  -7    6.34   10.48
   4  -1   8   -2.15   10.50
  -4   1  -8   13.82    9.79
   4  -1   9   13.83   10.47
  -4   1  -9    0.15   10.05
   4  -1  10   34.28   11.26
  -4   1 -10   16.50   10.82
   4  -1  11    8.65   11.21
  -4   1 -11   -8.88   11.61
   4  -1  12    7.88   11.47
  -4   1 -12   12.63   11.28
   4  -1  13   -1.47    9.64
  -4   1 -13    6.22    9.95
   3  -1 -13  -17.15    8.49
  -3   1  13   -1.83    8.20
   3  -1 -12    9.00   10.25
  -3   1  12   20.98   10.09
   3  -1 -11   16.21    9.70
  -3   1  11    9.43    9.89
   3  -1 -10   21.65    8.83
  -3   1  10    5.95    8.76
   3  -1  -9   -9.63    8.06
  -3   1   9    2.64    8.23
   3  -1  -8    9.04    8.02
  -3   1   8    5.62    8.38
   3  -1  -7   -5.35    8.26
  -3   1   7   -0.66    8.35
   3  -1   1    7.50   11.11
  -3   1  -1   18.25   10.25
   3  -1   2  607.06   33.91
  -3   1  -2  539.61   30.76
   3  -1   3  197.24   16.55
  -3   1  -3  198.28   16.77
  -3   1  -4  350.40   22.96
   3  -1   5   10.57   11.01
  -3   1  -5    9.71   11.66
   3  -1   6  228.98   17.87
  -3   1  -6  197.70   16.56
   3  -1   7   31.66   11.20
  -3   1  -7    1.55   10.25
   3  -1   8  -11.68    9.58
  -3   1  -8    0.03    9.56
   3  -1   9   -6.75   10.13
  -3   1  -9    3.15    9.77
   3  -1  10   19.05   10.98
  -3   1 -10   33.42   10.75
   3  -1  11  -10.91   11.08
  -3   1 -11    0.03   11.18
   3  -1  12    4.30   11.54
  -3   1 -12   -3.41   11.34
   3  -1  13   -6.58    9.58
  -3   1 -13   -6.05    9.59
   2  -1 -13    0.28    9.02
  -2   1  13    2.86    8.99
   2  -1 -12   -9.33    9.75
  -2   1  12   -2.66   10.04
   2  -1 -11   10.44   10.11
  -2   1  11   -4.63    9.73
   2  -1 -10  -11.83    8.70
  -2   1  10   10.84    9.04
   2  -1  -9   22.08    8.56
  -2   1   9    2.87    8.47
   2  -1  -8   -8.27    8.23
  -2   1   8   -8.80    8.41
   2  -1  -7   17.71    8.69
  -2   1   7   44.97    9.79
   2  -1  -6   16.23    8.58
  -2   1   6   10.85    9.16
   2  -1  -5   19.77    9.08
  -2   1   5   23.83    8.99
   2  -1  -4   45.49    8.92
  -2   1   4   39.54    8.85
   2  -1   0   75.46    9.45
   2  -1   1   -6.87   11.44
  -2   1  -1    7.35    9.62
   2  -1   2  110.43   13.21
  -2   1  -2   96.84   12.78
   2  -1   3   82.22   12.78
  -2   1  -3   67.94   12.44
  -2   1  -4   39.58   11.44
   2  -1   5   45.30   11.46
  -2   1  -5   29.33   11.07
   2  -1   6   12.94   10.57
  -2   1  -6   19.46   10.90
   2  -1   7   50.59   11.47
  -2   1  -7   47.15   11.15
   2  -1   8   17.19   10.05
  -2   1  -8   -2.83    9.42
   2  -1   9   31.36   10.29
  -2   1  -9   33.16   10.02
   2  -1  10   13.30   10.33
  -2   1 -10    6.04    9.99
   2  -1  11   -0.60   11.28
  -2   1 -11   13.96   10.98
   2  -1  12   -1.50   11.20
  -2   1 -12    3.47   11.05
   2  -1  13   23.58   10.41
  -2   1 -13   -4.81    9.78
   1  -1 -13    7.42    9.69
  -1   1  13    5.00    8.93
   1  -1 -12    9.65   10.39
  -1   1  12   -0.42   10.18
   1  -1 -11   11.71   10.30
  -1   1  11   20.87   10.51
   1  -1 -10   32.73    9.66
  -1   1  10   57.82   10.63
   1  -1  -9   -5.99    8.40
  -1   1   9   -1.00    8.91
   1  -1  -8   -4.05    8.34
  -1   1   8   11.78    9.19
   1  -1  -7    9.56    8.93
  -1   1   7    1.37    9.47
   1  -1  -6    1.31    8.77
  -1   1   6    6.35    9.63
   1  -1  -5   56.44   10.08
  -1   1   5   50.65   10.13
   1  -1  -4  255.38   16.69
  -1   1   4  259.69   17.05
   1  -1  -3  445.76   24.60
  -1   1   3  474.71   26.00
  -1   1   2  210.84   13.02
   1  -1   2  243.29   16.85
  -1   1  -2  252.71   17.27
   1  -1   3  451.69   26.27
  -1   1  -3  501.69   28.92
   1  -1   4  274.22   19.13
  -1   1  -4  312.72   20.63
   1  -1   5   42.67   11.18
  -1   1  -5   59.94   11.32
   1  -1   6   -2.60   11.14
  -1   1  -6   -3.77   10.43
   1  -1   7   14.30   10.94
  -1   1  -7   10.27   10.16
   1  -1   8   -4.04    9.56
  -1   1  -8   18.70    9.64
   1  -1   9   -3.44    9.69
  -1   1  -9   -2.14    8.94
   1  -1  10   40.80   10.35
  -1   1 -10   31.95   10.16
   1  -1  11   20.83   11.07
  -1   1 -11   42.73   11.58
   1  -1  12   18.83   11.46
  -1   1 -12   -2.40   11.00
   1  -1  13    9.01    9.37
  -1   1 -13   13.57    9.89
   0  -1 -13   -0.19    9.51
   0   1  13    9.79    9.50
   0  -1 -12   -6.79   10.33
   0   1  12   17.12   11.30
   0  -1 -11  106.69   13.33
   0   1  11  144.67   14.78
   0  -1 -10   14.14    9.20
   0   1  10   27.21    9.75
   0  -1  -9  381.33   23.67
   0   1   9  320.51   21.07
   0  -1  -8   59.05    9.83
   0   1   8   71.61   10.84
   0  -1  -7   96.37   11.50
   0   1   7  105.03   12.43
   0  -1  -6   10.33    9.14
   0   1   6   -1.49   10.12
   0  -1  -5  371.79   22.49
   0   1   5  306.55   19.78
   0  -1  -4  116.41   12.13
   0   1   4  119.67   12.57
   0  -1  -3 1308.31   66.73
   0   1   3 1210.63   61.89
   0  -1  -2   29.17    8.35
   0  -1  -1  805.57   40.92
   0   1   1  928.03   46.76
   0  -1   2   24.86    9.18
   0   1  -2   23.86    9.78
   0   1  -3 1186.20   61.12
   0  -1   4   99.85   12.29
   0   1  -4  111.32   12.80
   0  -1   5  276.90   18.80
   0   1  -5  306.67   19.86
   0  -1   6   22.22   10.75
   0   1  -6   16.98   10.08
   0  -1   7   82.60   11.75
   0   1  -7   66.76   11.16
   0  -1   8   53.62   10.19
   0   1  -8   78.77   10.99
   0  -1   9  339.11   21.99
   0   1  -9  366.68   23.13
   0  -1  10   19.67    9.97
   0   1 -10   18.12    9.65
   0  -1  11  111.41   13.56
   0   1 -11  109.71   13.56
   0  -1  12   -9.49   10.94
   0   1 -12   11.57   10.78
   0  -1  13   -4.13    9.40
   0   1 -13  -16.13    9.34
  -1  -1 -13   -2.07    9.14
   1   1  13   29.48   10.20
  -1  -1 -12   16.61   11.14
   1   1  12    1.79   10.97
  -1  -1 -11   18.51   10.47
   1   1  11   10.14   10.62
  -1  -1 -10   67.79   10.93
   1   1  10   53.44   11.00
  -1  -1  -9   21.18    8.95
   1   1   9   16.01    9.91
  -1  -1  -8    6.45    9.05
   1   1   8    8.90   10.26
  -1  -1  -7   10.30    9.66
   1   1   7   12.14   10.45
  -1  -1  -6   20.51   10.07
   1   1   6   -8.80   10.77
  -1  -1  -5   38.12   10.18
   1   1   5   22.28   10.40
  -1  -1  -4  320.86   20.63
   1   1   4  271.55   18.78
  -1  -1  -3  524.26   29.35
   1   1   3  491.00   27.91
  -1  -1  -2  211.89   14.79
  -1  -1   4  230.61   16.39
   1   1  -4  251.43   17.32
  -1  -1   5   60.52   10.75
   1   1  -5   57.28   10.28
  -1  -1   6    3.65   10.18
   1   1  -6    8.37    9.57
  -1  -1   7    3.17    9.50
   1   1  -7    2.09    9.48
  -1  -1   8   11.97    9.12
   1   1  -8   23.08    9.11
  -1  -1   9   12.12    9.55
   1   1  -9   -2.88    8.55
  -1  -1  10   33.13   10.21
   1   1 -10   40.52    9.82
  -1  -1  11   28.84   10.91
   1   1 -11   16.57   10.33
  -1  -1  12    0.55   10.61
   1   1 -12    1.45   10.28
  -1  -1  13   -6.12    9.37
   1   1 -13   21.72    9.28
  -2  -1 -13   -7.37    9.21
   2   1  13    4.44    9.85
  -2  -1 -12    3.01   10.99
   2   1  12   19.77   11.22
  -2  -1 -11   11.22   10.69
   2   1  11   17.72   11.57
  -2  -1 -10    6.48    9.49
   2   1  10   -1.35   10.13
  -2  -1  -9   11.85    9.45
   2   1   9    7.83   10.01
  -2  -1  -8   14.19    9.18
   2   1   8    8.09    9.61
  -2  -1  -7   58.38   11.30
   2   1   7   41.80   10.91
  -2  -1  -6   25.38   10.66
   2   1   6   24.81   11.56
  -2  -1  -5   27.93   10.25
   2   1   5   43.05   11.58
  -2  -1  -4   46.25   11.49
   2   1   4   40.70   11.61
  -2  -1  -3   90.67   12.83
   2   1   3   68.88   11.75
  -2  -1  -2   96.92   11.84
   2   1   2   82.53   11.46
  -2  -1   7   54.80   10.39
   2   1  -7   38.77    9.79
  -2  -1   8    0.92    9.04
   2   1  -8   -1.64    8.64
  -2  -1   9   22.08    9.27
   2   1  -9   23.31    8.80
  -2  -1  10   -4.71    8.87
   2   1 -10    7.86    9.02
  -2  -1  11   22.78   10.55
   2   1 -11   26.08   10.13
  -2  -1  12   -0.19   10.51
   2   1 -12    8.19   10.71
  -2  -1  13  -11.59    8.94
   2   1 -13    7.88    9.04
  -3  -1 -12    2.00   10.98
   3   1  12   13.85   11.49
  -3  -1 -11   20.28   11.39
   3   1  11   -7.42   11.47
  -3  -1 -10   27.54   10.48
   3   1  10   40.48   11.29
  -3  -1  -9    4.08    9.23
   3   1   9   20.97   10.29
  -3  -1  -8    8.76    9.63
   3   1   8   10.32    9.86
  -3  -1  -7    4.62   10.00
   3   1   7  -11.99   10.37
  -3  -1  -6  257.94   18.79
   3   1   6  292.13   20.47
  -3  -1  -5   19.07   10.76
   3   1   5   10.68   11.15
  -3  -1  -4  349.93   22.39
   3   1   4  370.63   23.26
  -3  -1  -3  254.80   18.54
   3   1  -9    7.06    8.33
  -3  -1  10   28.68    9.56
   3   1 -10   30.82    9.13
  -3  -1  11   21.49   10.34
   3   1 -11   23.49   10.11
  -3  -1  12   16.94   10.21
   3   1 -12    8.27   10.20
  -3  -1  13   -4.90    8.64
   3   1 -13   -4.36    8.84
  -4  -1 -13   -1.28    9.59
   4   1  13   -1.17    9.71
  -4  -1 -12   30.11   11.82
   4   1  12   14.71   11.61
  -4  -1 -11   14.86   11.37
   4   1  11   14.37   11.86
  -4  -1 -10   -0.27   10.35
   4   1  10    3.52   10.56
  -4  -1  -9   13.44    9.87
   4   1   9   24.35   10.04
  -4  -1  -8    0.70    9.70
   4   1   8    7.45    9.63
  -4  -1  -7    0.98   10.27
   4   1   7   -4.65   10.29
  -4  -1  -5    3.79   11.05
   4   1   5  -14.13   10.90
  -4  -1  -4   12.19   10.99
   4   1   4  -18.86   10.86
  -4  -1  -3  -11.54   11.57
   4   1   3   -6.88    9.98
   4   1 -12   13.43    9.80
  -4  -1  13   -6.81    8.20
   4   1 -13    2.63    8.99
  -5  -1 -12   13.55   11.34
   5   1  12   11.11   11.34
  -5  -1 -11   -3.47   11.41
   5   1  11  -15.36   11.56
  -5  -1 -10  275.50   20.75
   5   1  10  304.58   21.97
  -5  -1  -9    2.34    9.72
   5   1   9   -3.30    9.98
  -5  -1  -8   13.19    9.84
   5   1   8   10.83    9.97
  -5  -1  -7   -6.31   10.11
   5   1   7   12.18   10.30
  -5  -1  -6    3.01   10.58
   5   1   6   20.87   10.80
  -5  -1  -5   12.97   11.16
   5   1   5    6.88   10.52
  -5  -1  -4  281.67   19.62
   5   1   3   10.45   11.41
  -6  -1 -12   32.47   11.51
   6   1  12   21.36   11.23
  -6  -1 -11   35.76   12.14
   6   1  11   22.06   12.16
  -6  -1 -10   14.16   11.46
   6   1  10    2.28   11.47
  -6  -1  -9   -0.15    9.77
   6   1   9    2.73   10.49
  -6  -1  -8    9.92    9.98
   6   1   8   -7.42   10.32
  -6  -1  -7   11.59   10.25
   6   1   7    8.22   10.14
  -6  -1  -6   16.68   10.36
   6   1   6    5.36   10.54
  -6  -1  -5   35.70   11.42
   6   1   5   30.36   11.26
  -6  -1  -4    9.22   11.27
  -7  -1 -12    6.68   10.43
   7   1  12   15.63   10.37
  -7  -1 -11   20.05   12.18
   7   1  11   20.86   12.02
  -7  -1 -10   -4.85   11.23
   7   1  10   -5.54   11.68
  -7  -1  -9    7.44   10.49
   7   1   9   -2.70   10.55
  -7  -1  -8   70.45   11.41
   7   1   8   41.17   10.99
  -7  -1  -7   -1.14    9.71
   7   1   7    2.34   10.09
  -7  -1  -6   27.69   10.70
   7   1   6   35.09   10.99
  -7  -1  -5   20.76   11.18
   7   1   5   23.14   11.28
  -7  -1  -4   -1.57   11.43
   7   1   4    2.67   10.99
  -8  -1 -12   -0.28   10.13
   8   1  12   13.04   10.33
  -8  -1 -11    8.80   11.59
   8   1  11   20.04   11.98
  -8  -1 -10   23.68   12.26
   8   1  10    6.63   12.05
  -8  -1  -9   43.03   11.55
   8   1   9   64.03   12.28
  -8  -1  -8   34.25   10.98
   8   1   8   51.36   11.93
  -8  -1  -7  442.04   27.48
   8   1   7  470.64   28.76
  -8  -1  -6   48.60   10.95
   8   1   6   54.07   11.16
  -8  -1  -5   49.88   11.52
  -9  -1 -11    0.93   11.23
   9   1  11   23.25   11.59
  -9  -1 -10   26.25   12.56
   9   1  10   18.32   12.55
  -9  -1  -9    7.26   10.99
   9   1   9   25.53   11.27
  -9  -1  -8   12.20   10.43
   9   1   8    5.09   10.36
  -9  -1  -7    6.73   10.00
   9   1   7  -15.99   10.19
  -9  -1  -6    3.45    9.66
   9   1   6   -1.67    9.37
  -9  -1  -5   31.13   10.45
   9   1   5   20.69    8.44
 -10  -1 -11    5.16   10.50
  10   1  11   14.30   10.78
 -10  -1 -10   26.32   12.07
  10   1  10   27.40   12.09
 -10  -1  -9   97.26   14.07
  10   1   9   60.79   12.85
 -10  -1  -8   27.70   10.71
  10   1   8   32.50   10.87
 -10  -1  -7   12.42    9.91
  10   1   7   13.71    9.97
 -10  -1  -6    2.80   10.21
 -11  -1 -11    5.40   10.25
  11   1  11   -9.27    9.91
 -11  -1 -10  -17.78   11.32
  11   1  10   21.22   11.54
 -11  -1  -9    7.18   11.51
  11   1   9   24.77   11.98
 -11  -1  -8   19.01   11.39
  11   1   8   21.86   10.97
 -11  -1  -7   -0.86   10.75
  11   1   7   22.71   10.61
 -11  -1  -6    2.72    9.99
 -12  -1 -10   -9.38   10.79
  12   1  10   20.94   10.83
 -12  -1  -9  -11.14   11.35
  12   1   9   14.69   11.40
 -12  -1  -8   13.51   11.86
  12   1   8    8.23   11.57
 -12  -1  -7   39.46   11.96
  12   1   7   35.49   11.01
  12   1   6    6.84   10.19
 -13  -1 -10   -6.29    9.59
  13   1  10    9.94   10.08
 -13  -1  -9    2.40   11.63
  13   1   9   -7.33   11.01
 -13  -1  -8   30.59   12.50
  13   1   8   20.83   12.13
 -13  -1  -7   14.90   11.75
 -14  -1  -9   -0.23   10.16
  14   1   9    2.69   10.11
 -14  -1  -8   25.55   11.56
  14   1   8    9.13   10.87
  14   1   7    9.47    9.45
 -15  -1  -8   -7.62   10.50
  17  -2   6    0.62    9.47
  17  -2   7    2.41   10.11
 -17   2  -7    8.21   10.86
  16  -2   5   -9.56   11.22
  16  -2   6    2.59   10.90
 -16   2  -6    3.92   11.68
  16  -2   7  -10.43   10.18
 -16   2  -7   -3.47   10.66
 -16   2  -8   -0.09   11.13
  15  -2   5   38.98   11.66
  15  -2   6   12.59   12.05
 -15   2  -6    7.28   11.57
  15  -2   7   14.85   11.66
 -15   2  -7   15.46   11.63
  15  -2   8  -11.77   10.04
 -15   2  -8    2.38   10.80
  14  -2   5   15.96   10.44
  14  -2   6    7.68   11.15
 -14   2  -6   28.52   12.07
  14  -2   7   39.04   12.20
 -14   2  -7   32.05   12.66
  14  -2   8   35.53   11.62
 -14   2  -8    9.20   11.23
  14  -2   9   30.75   10.30
 -14   2  -9   17.72   11.22
  13  -2   4   32.46   10.29
  13  -2   5   48.66   10.86
 -13   2  -5   34.33   11.63
  13  -2   6   15.66   10.61
 -13   2  -6    4.17   11.09
  13  -2   7   87.49   13.63
 -13   2  -7   72.70   13.39
  13  -2   8   -0.91   11.47
 -13   2  -8   -5.78   11.79
 -13   2  -9    6.64   11.47
  13  -2  10    9.04   10.57
 -13   2 -10   14.05   10.77
  12  -2   4   24.76    9.85
  12  -2   5   44.79   10.45
 -12   2  -5   26.14   10.79
  12  -2   6   10.73   10.19
 -12   2  -6    4.99   10.39
  12  -2   7   42.47   11.83
 -12   2  -7   39.51   11.86
  12  -2   8   27.48   12.27
 -12   2  -8   44.45   12.82
 -12   2  -9   45.72   12.66
  12  -2  10   -9.65   10.82
 -12   2 -10   -4.19   11.21
  11  -2   3   -6.93    9.61
  11  -2   4    1.14    9.62
 -11   2  -4   27.50   10.52
  11  -2   5   -8.93    9.34
 -11   2  -5    1.45    9.87
  11  -2   6   -9.42    9.66
 -11   2  -6    6.20   10.14
  11  -2   7   -2.26   10.62
 -11   2  -7    4.37   10.84
 -11   2  -8   -3.15   11.93
  11  -2   9    8.59   12.41
 -11   2  -9   14.21   12.56
  11  -2  10   42.56   12.49
 -11   2 -10   35.95   12.36
  11  -2  11   -0.77   10.42
 -11   2 -11   19.43   10.61
  10  -2   3   22.78   10.19
  10  -2   4   23.64    9.84
 -10   2  -4   28.71   11.00
  10  -2   5    8.21   10.08
 -10   2  -5    8.80   10.39
  10  -2   6   11.52   10.42
 -10   2  -6   -7.66   10.52
  10  -2   7   26.89   10.83
 -10   2  -7   35.37   11.16
 -10   2  -8   32.73   11.68
  10  -2   9    3.23   11.86
 -10   2  -9   -4.22   11.93
  10  -2  10   59.53   13.63
 -10   2 -10   65.61   13.69
  10  -2  11   10.97   10.72
 -10   2 -11    0.58   10.22
   9  -2   3  -13.63   10.09
   9  -2   4  486.46   29.19
  -9   2  -4  444.83   27.57
   9  -2   5   31.28   10.49
  -9   2  -5   33.05   11.04
   9  -2   6   44.12   10.93
  -9   2  -6   52.43   11.79
   9  -2   7    4.30    9.20
  -9   2  -7   12.36   10.15
   9  -2   8    4.22   11.01
  -9   2  -8    7.56   10.70
   9  -2   9   22.41   11.93
  -9   2  -9   14.72   11.64
   9  -2  10    2.37   12.16
  -9   2 -10   -9.34   12.39
   9  -2  11  -10.14   11.12
  -9   2 -11   16.93   11.69
   8  -2   2   -4.73   10.68
   8  -2   3   32.23   11.21
  -8   2  -3   29.39   11.76
   8  -2   4   95.91   12.75
  -8   2  -4  122.57   14.55
   8  -2   5  -25.32   10.59
  -8   2  -5   10.85   10.76
   8  -2   6   71.45   11.72
  -8   2  -6   72.96   12.14
  -8   2  -7   22.27   10.51
   8  -2   8  196.54   17.11
  -8   2  -8  204.79   17.46
   8  -2   9   18.65   11.30
  -8   2  -9   16.79   11.18
   8  -2  10    7.13   12.42
  -8   2 -10   26.19   12.64
   8  -2  11    0.81   11.87
  -8   2 -11   11.78   11.78
   8  -2  12   32.49   11.16
  -8   2 -12    9.45   10.71
   7  -2   2   30.79   10.51
   7  -2   3   41.13   11.19
  -7   2  -3   29.42   11.34
   7  -2   4  166.53   15.47
  -7   2  -4  125.37   14.44
   7  -2   5    9.51   11.56
  -7   2  -5   15.92   11.93
   7  -2   6   18.65   11.01
  -7   2  -6    2.71   10.52
   7  -2   7   -5.11    9.26
  -7   2  -7  -16.27   10.14
   7  -2   8    6.94   10.77
  -7   2  -8   23.93   10.68
   7  -2   9   29.49   11.43
  -7   2  -9   31.25   12.02
   7  -2  10   -1.71   11.56
  -7   2 -10   19.48   12.18
   7  -2  11    8.30   12.25
  -7   2 -11   -8.91   12.15
   7  -2  12   -3.80   10.25
  -7   2 -12    1.84   10.64
   6  -2   2   38.63   10.97
  -6   2  -2   27.90   11.68
   6  -2   3   -8.93   11.44
  -6   2  -3    1.13   11.08
   6  -2   4  -10.94   11.35
  -6   2  -4    1.83   11.46
   6  -2   5    3.66   11.71
  -6   2  -5   -9.14   12.28
  -6   2  -6    6.73   10.89
   6  -2   7   64.69   11.64
  -6   2  -7   81.22   12.36
   6  -2   8    1.28   10.68
  -6   2  -8  -10.73   10.44
   6  -2   9   17.93   11.15
  -6   2  -9   28.12   10.91
   6  -2  10   20.83   11.61
  -6   2 -10  -18.97   10.98
   6  -2  11   10.11   12.01
  -6   2 -11   -1.15   12.19
   6  -2  12   14.54   11.30
  -6   2 -12   -0.29   10.54
   5  -2 -12   12.00    8.43
  -5   2  12   -0.14    8.37
   5  -2 -11  119.09   12.66
  -5   2  11  112.17   11.93
   5  -2 -10   10.63    8.25
   5  -2   1  384.82   23.60
   5  -2   2   74.22   12.29
  -5   2  -2   53.31   12.29
   5  -2   3  520.07   30.55
  -5   2  -3  481.81   28.68
   5  -2   4   97.54   12.94
  -5   2  -4   73.99   12.75
   5  -2   5   22.70   11.55
  -5   2  -5   22.91   12.39
  -5   2  -6   33.66   11.36
   5  -2   7   15.93   10.69
  -5   2  -7    5.33   10.41
   5  -2   8    3.52   10.34
  -5   2  -8    5.86   10.23
   5  -2   9    7.78   10.69
  -5   2  -9   23.39   10.36
   5  -2  10   -6.76   11.32
  -5   2 -10    4.40   11.15
   5  -2  11  145.95   16.32
  -5   2 -11  170.49   17.37
   5  -2  12    5.59   11.51
  -5   2 -12  -16.12   10.71
   4  -2 -13   -1.45    7.84
  -4   2  13   -0.12    8.13
   4  -2 -12   -1.97    9.26
  -4   2  12   -6.15    9.00
   4  -2 -11    4.33    9.27
  -4   2  11   15.42    9.38
   4  -2 -10  -14.98    8.19
  -4   2  10    2.74    8.09
   4  -2  -9   40.24    8.38
  -4   2   9   37.52    8.64
   4  -2  -8   -1.01    7.55
   4  -2   0   45.34    9.51
  -4   2   0   53.07    9.54
   4  -2   1 1106.19   57.38
  -4   2  -1  923.26   48.37
   4  -2   2   -6.35   11.57
  -4   2  -2   20.86   12.41
   4  -2   3  228.29   17.92
  -4   2  -3  207.00   17.41
   4  -2   4    9.80   11.75
  -4   2  -4   11.25   11.82
   4  -2   5   54.59    9.94
  -4   2  -5   83.93   13.14
   4  -2   6    1.60   11.68
  -4   2  -6   -8.85   10.89
   4  -2   7  425.41   26.86
  -4   2  -7  416.10   26.12
   4  -2   8    6.81   10.45
  -4   2  -8   -1.56    9.92
   4  -2   9   60.55   11.37
  -4   2  -9   61.15   11.07
   4  -2  10   -3.01   10.19
  -4   2 -10  -11.94   10.50
   4  -2  11   23.26   11.87
  -4   2 -11   12.30   11.49
   4  -2  12   -2.49   11.22
  -4   2 -12    2.62   11.09
   4  -2  13   -9.12    9.91
  -4   2 -13    7.98    9.92
   3  -2 -13    7.88    8.69
  -3   2  13   -0.67    8.27
   3  -2 -12    1.47    9.37
  -3   2  12   28.47    9.95
   3  -2 -11   38.40   10.08
  -3   2  11   20.41   10.09
   3  -2 -10   29.89    8.93
  -3   2  10   11.70    8.50
   3  -2  -9   -2.42    7.69
  -3   2   9   11.07    8.20
   3  -2  -8   22.14    7.84
  -3   2   8   16.49    8.51
   3  -2  -7   53.66    8.87
  -3   2   7   74.70    9.76
   3  -2  -6   16.73    8.36
  -3   2   6   13.20    8.55
   3  -2   0   -6.22    8.57
   3  -2   1  238.05   17.29
  -3   2  -1  231.19   16.49
   3  -2   2   48.46   12.68
  -3   2  -2   18.11   11.96
   3  -2   3  696.49   38.47
  -3   2  -3  680.21   37.82
   3  -2   4   46.86   12.52
  -3   2  -4   45.48   11.78
  -3   2  -5  153.97   15.03
   3  -2   6    7.92   10.94
  -3   2  -6   17.75   10.80
   3  -2   7  108.99   13.57
  -3   2  -7   86.05   12.28
   3  -2   8   28.38   10.61
  -3   2  -8   40.60   10.54
   3  -2   9  -13.97    9.78
  -3   2  -9   11.59    9.86
   3  -2  10   15.79   10.50
  -3   2 -10    7.72   10.56
   3  -2  11   36.73   11.90
  -3   2 -11   25.12   11.79
   3  -2  12   10.07   11.44
  -3   2 -12   26.25   11.44
   3  -2  13   -1.70    9.73
  -3   2 -13    0.10   10.06
   2  -2 -13  -11.01    8.43
  -2   2  13   -1.49    8.56
   2  -2 -12   -1.81   10.08
  -2   2  12    4.01    9.94
   2  -2 -11   -3.07    9.68
  -2   2  11   -0.55    9.75
   2  -2 -10   -3.27    8.65
  -2   2  10    1.72    8.75
   2  -2  -9    3.24    7.86
  -2   2   9    0.19    8.43
   2  -2  -8   10.30    7.71
  -2   2   8   20.62    8.65
   2  -2  -7   23.17    8.65
  -2   2   7   10.51    8.88
   2  -2  -6    9.78    8.50
  -2   2   6   10.09    9.09
   2  -2  -5   16.54    8.09
  -2   2   5    9.29    8.44
  -2   2   3    2.31    7.20
   2  -2   0  156.65   11.85
   2  -2   1  -19.61   10.44
  -2   2  -1    1.02    9.05
   2  -2   2  -21.05   11.05
  -2   2  -2    9.26   10.80
   2  -2   3   -7.31   11.06
  -2   2  -3   10.35   11.48
   2  -2   4   14.85   11.65
  -2   2  -4   17.53   11.33
   2  -2   5   26.22   11.15
  -2   2  -5   25.72   10.90
   2  -2   6   17.53   10.76
  -2   2  -6   -4.81   10.41
   2  -2   7    9.25   10.87
  -2   2  -7    5.64   10.20
   2  -2   8   15.73    9.76
  -2   2  -8   11.51    9.82
   2  -2   9   -8.78    9.54
  -2   2  -9    0.38    9.36
   2  -2  10   -0.44   10.34
  -2   2 -10    2.36   10.19
   2  -2  11   -3.41   10.98
  -2   2 -11  -18.34   10.95
   2  -2  12  -14.83   11.29
  -2   2 -12    2.50   10.83
   2  -2  13   -2.80    8.97
  -2   2 -13   -0.14    9.44
   1  -2 -13   12.30    9.43
  -1   2  13    3.19    9.00
   1  -2 -12   -0.84   10.22
  -1   2  12   12.69   10.34
   1  -2 -11   25.77   10.39
  -1   2  11   13.41   10.18
   1  -2 -10   40.59   10.00
  -1   2  10   47.02   10.28
   1  -2  -9   20.21    8.70
  -1   2   9   17.25    8.90
   1  -2  -8   23.60    8.80
  -1   2   8    9.93    8.98
   1  -2  -7   -2.86    8.76
  -1   2   7   -8.29    9.09
   1  -2  -6  103.92   11.28
  -1   2   6  125.25   12.51
   1  -2  -5   38.19    9.16
  -1   2   5   44.08    9.59
   1  -2  -4  528.56   28.75
  -1   2   4  537.05   29.33
   1  -2  -3  235.61   14.96
  -1   2   3  247.24   15.47
   1  -2  -2   70.30    7.38
  -1   2   2   78.20    7.59
   1  -2   1  104.76   12.08
  -1   2  -1  148.51   12.11
   1  -2   2   43.49   10.85
  -1   2  -2   31.63   10.55
   1  -2   3  262.94   18.40
  -1   2  -3  204.45   16.48
  -1   2  -4  506.58   29.40
   1  -2   5   41.74   11.07
  -1   2  -5   40.45   10.84
   1  -2   6  109.69   12.99
  -1   2  -6  124.32   13.66
   1  -2   7   11.42   10.52
  -1   2  -7   -6.18    9.78
   1  -2   8    5.36    9.36
  -1   2  -8   16.67    9.48
   1  -2   9   -4.23    9.37
  -1   2  -9   -2.15    9.02
   1  -2  10   51.91   11.15
  -1   2 -10   38.55   10.65
   1  -2  11   29.45   11.94
  -1   2 -11   26.89   10.76
   1  -2  12    3.06   11.32
  -1   2 -12    7.35   11.09
   1  -2  13   -0.47    9.15
  -1   2 -13   -6.15    9.43
   0  -2 -13    9.58    9.29
   0   2  13    5.42    9.26
   0  -2 -12   18.68   10.77
   0   2  12   58.90   11.96
   0  -2 -11   -0.59   10.23
   0   2  11  -11.65   10.20
   0  -2 -10  126.18   12.92
   0   2  10  163.74   14.56
   0  -2  -9   11.99    8.91
   0   2   9   25.36    9.52
   0  -2  -8  161.77   13.61
   0   2   8  164.21   14.14
   0  -2  -7   40.89    9.42
   0   2   7   42.96   10.36
   0  -2  -6   43.51    9.56
   0   2   6   39.63   10.33
   0  -2  -5   18.05    9.49
   0   2   5   -0.91    9.62
   0  -2  -4   49.53   10.05
   0   2   4   61.65   10.72
   0  -2  -3   17.62    9.14
   0   2   3   27.48    9.51
   0   2   2  497.39   26.41
   0  -2   3   15.35   10.86
   0   2  -3   27.48   10.97
   0  -2   4   24.53    9.33
   0   2  -4   46.74   11.16
   0  -2   5    4.52   10.14
   0   2  -5   20.92   10.33
   0  -2   6   32.92   10.69
   0   2  -6   20.56   10.70
   0  -2   7   -5.77   10.15
   0   2  -7    3.29    9.71
   0  -2   8  126.64   13.21
   0   2  -8  135.02   13.04
   0  -2   9   13.64    9.26
   0   2  -9    7.86    8.70
   0  -2  10  120.48   13.11
   0   2 -10  113.69   12.93
   0  -2  11   23.72   11.06
   0   2 -11    3.47   10.85
   0  -2  12    5.55   10.97
   0   2 -12   35.20   11.99
   0  -2  13    1.27    9.08
   0   2 -13    7.98    9.63
  -1  -2 -13   14.12    9.64
   1   2  13    0.74    9.38
  -1  -2 -12   21.87   11.36
   1   2  12   -0.99   11.19
  -1  -2 -11   45.38   11.33
   1   2  11   28.62   11.11
  -1  -2 -10   84.77   11.47
   1   2  10   60.93   10.93
  -1  -2  -9  -10.40    8.63
   1   2   9    5.35    9.23
  -1  -2  -8   21.64    9.23
   1   2   8    5.37    9.58
  -1  -2  -7    7.93    9.61
   1   2   7    9.50   10.16
  -1  -2  -6  115.02   12.42
   1   2   6  149.55   14.46
  -1  -2  -5   31.79   10.18
   1   2   5   48.83   10.90
  -1  -2  -4  506.93   28.65
   1   2   4  549.49   30.74
  -1  -2  -3  222.47   15.60
   1   2   3  228.05   16.10
  -1  -2   6  115.74   13.07
   1   2  -6  122.57   12.85
  -1  -2   7    8.29    9.95
   1   2  -7   -4.73    9.28
  -1  -2   8   17.36    9.11
   1   2  -8   30.38    9.56
  -1  -2   9   19.69    9.49
   1   2  -9   -2.54    8.65
  -1  -2  10   38.07   10.11
   1   2 -10   28.03    9.71
  -1  -2  11   12.47   10.64
   1   2 -11   22.98   10.84
  -1  -2  13    5.12    9.19
   1   2 -13    3.50    9.33
  -2  -2 -13    1.86    9.29
   2   2  13   -3.64    9.33
  -2  -2 -12    5.44   11.20
   2   2  12   13.53   11.30
  -2  -2 -11    8.30   10.69
   2   2  11    4.07   11.46
  -2  -2 -10   -2.41    9.55
   2   2  10    4.57   10.15
  -2  -2  -9    2.42    8.85
   2   2   9   27.55   10.25
  -2  -2  -8   10.12    9.62
   2   2   8   20.72   10.08
  -2  -2  -7   -0.84   10.04
   2   2   7   24.91   10.57
  -2  -2  -6   14.70   10.40
   2   2   6   14.07   11.22
  -2  -2  -4   -5.45   10.13
   2   2   4  -13.61   10.36
  -2  -2  -3    9.06   11.08
   2   2   3   -0.51   10.56
   2   2  -8    6.38    8.56
  -2  -2   9    4.41    8.57
   2   2  -9   15.12    8.64
  -2  -2  10    7.38    9.34
   2   2 -10   -3.54    9.11
  -2  -2  11    7.44   10.28
   2   2 -11   -1.07    9.91
  -2  -2  12   20.29   10.40
   2   2 -12   14.65   10.64
  -2  -2  13   -1.65    8.78
   2   2 -13   12.82    9.16
  -3  -2 -13   14.75    9.12
   3   2  13    4.35    9.37
  -3  -2 -12   14.97   11.35
   3   2  12    0.98   11.64
  -3  -2 -11   53.38   12.18
   3   2  11   38.74   12.21
  -3  -2 -10   19.74   10.11
   3   2  10   13.50   10.77
  -3  -2  -9  -12.37    9.22
   3   2   9  -12.35    9.87
  -3  -2  -8   24.97    9.70
   3   2   8   51.81   10.59
  -3  -2  -7   79.13   11.41
   3   2   7  100.16   12.52
  -3  -2  -6   24.95   10.77
   3   2   6   19.15   11.29
  -3  -2  -5  123.04   12.97
   3   2   5  112.25   13.26
  -3  -2  -4   70.75   11.51
   3   2   4   62.12   11.73
   3   2 -10   11.97    9.02
  -3  -2  11   23.32   10.22
   3   2 -11   11.72   10.52
  -3  -2  12    6.06   10.00
   3   2 -12   15.08    9.99
  -3  -2  13    1.37    8.58
   3   2 -13   12.51    8.94
  -4  -2 -13   -9.82    9.82
   4   2  13    3.16    9.85
  -4  -2 -12   14.20   11.35
   4   2  12   36.73   11.76
  -4  -2 -11   13.69   11.61
   4   2  11   23.50   11.64
  -4  -2 -10  -28.76   10.01
   4   2  10    0.05   10.73
  -4  -2  -9   63.11   10.87
   4   2   9   54.05   10.94
  -4  -2  -8    0.62    9.34
   4   2   8    1.86    9.91
  -4  -2  -6    7.04   10.59
   4   2   6   14.73   11.23
  -4  -2  -5   95.83   12.64
   4   2   5   83.56   12.50
  -4  -2  -4   10.55   10.76
   4   2   4   -8.00   10.61
   4   2 -13    8.37    8.95
  -5  -2 -12   -7.76   10.66
   5   2  12    0.19   11.09
  -5  -2 -11  164.21   16.76
   5   2  11  154.90   16.40
  -5  -2 -10    2.38   11.11
   5   2  10   11.19   11.21
  -5  -2  -9   24.26   10.16
   5   2   9   12.40   10.09
  -5  -2  -8   17.46    9.65
   5   2   8   19.58    9.98
  -5  -2  -7   36.91   10.09
   5   2   7   21.85   10.66
  -5  -2  -6   30.03   10.82
   5   2   6   11.65   10.73
  -5  -2  -5   59.22   11.87
   5   2   5   70.52   11.61
  -5  -2  -4   49.73   11.42
   5   2   4   45.40   11.11
  -6  -2 -12    1.06   10.94
   6   2  12   12.75   10.83
  -6  -2 -11   19.50   11.92
   6   2  11    4.40   12.05
  -6  -2 -10   -1.77   10.80
   6   2  10   18.96   11.16
  -6  -2  -9  -13.55   10.21
   6   2   9    5.65   10.65
  -6  -2  -8   13.20    9.68
   6   2   8    9.71   10.23
  -6  -2  -7   41.27   10.72
   6   2   7   33.11   10.56
  -6  -2  -6   -1.26   10.16
   6   2   6   -2.01   10.36
  -6  -2  -5   -6.95   10.58
   6   2   5   -4.26   10.20
  -7  -2 -12   -0.73   10.40
   7   2  12   17.30   10.21
  -7  -2 -11  -12.13   11.61
   7   2  11  -15.33   11.75
  -7  -2 -10   28.24   11.89
   7   2  10   25.41   11.70
  -7  -2  -9   32.61   11.14
   7   2   9   23.20   10.79
  -7  -2  -8   13.20   10.14
   7   2   8    7.56   10.18
  -7  -2  -7   -9.85    9.76
   7   2   7   -2.14    9.90
  -7  -2  -6    9.50   10.25
   7   2   6   13.33   10.23
  -7  -2  -5   14.70   10.47
   7   2   5    9.09   10.48
  -8  -2 -12   17.00   10.36
   8   2  12   14.08   10.01
  -8  -2 -11    6.09   11.32
   8   2  11    5.40   11.47
  -8  -2 -10   15.50   11.82
   8   2  10   17.10   11.83
  -8  -2  -9   11.54   10.70
   8   2   9   -7.76   10.75
  -8  -2  -8  179.91   15.84
   8   2   8  158.97   15.11
  -8  -2  -7    8.87    9.66
   8   2   7   30.53   10.09
  -8  -2  -6   76.68   11.80
   8   2   6   79.93   11.70
  -9  -2 -11   -1.55   10.92
   9   2  11   -6.84   11.29
  -9  -2 -10   16.50   11.89
   9   2  10   27.04   12.27
  -9  -2  -9   -2.62   10.75
   9   2   9  -15.04   10.91
  -9  -2  -8    2.84   10.39
   9   2   8    4.38   10.02
  -9  -2  -7   -5.19   10.05
   9   2   7   -7.69   10.05
  -9  -2  -6   77.63   12.25
   9   2   6  110.21   12.80
 -10  -2 -11    0.72   10.54
  10   2  11   -1.88   10.18
 -10  -2 -10   61.79   12.96
  10   2  10   48.66   12.70
 -10  -2  -9    5.94   11.39
  10   2   9   -7.08   11.32
 -10  -2  -8   10.56   10.62
  10   2   8    0.57   10.50
 -10  -2  -7    8.79   10.41
  10   2   7   16.05   10.28
  10   2   6   21.35   10.35
 -11  -2 -11    3.51   10.05
  11   2  11    9.95    9.82
 -11  -2 -10   -4.49   10.89
  11   2  10  -18.32   10.71
 -11  -2  -9    2.19   11.41
  11   2   9    6.65   11.90
 -11  -2  -8   14.80   11.32
  11   2   8    5.64   10.86
 -11  -2  -7  -13.05   10.45
  11   2   7   21.18   10.51
 -12  -2 -10  -10.80   10.51
  12   2  10    2.35   10.34
 -12  -2  -9   21.78   11.83
  12   2   9   17.94   11.35
 -12  -2  -8   26.68   11.68
  12   2   8   14.97   11.50
  12   2   7   19.29   10.91
 -13  -2 -10   18.35   10.42
  13   2  10   13.77    9.87
 -13  -2  -9   13.55   10.91
  13   2   9    6.56   10.94
 -13  -2  -8   -1.34   11.65
  13   2   8   11.42   11.66
 -14  -2  -9    9.30    9.90
  14   2   9   13.89   10.29
  14   2   8    9.72   10.80
  15   2   8   -9.22   10.06
  18  -3   5   10.15    9.75
  17  -3   5    5.55   10.23
 -17   3  -5   15.54   11.05
  17  -3   6    2.58    9.97
 -17   3  -6    3.31   10.11
  16  -3   4   -7.63   11.50
  16  -3   5   -4.63   10.65
 -16   3  -5   13.21   11.89
  16  -3   6    0.44   10.55
  16  -3   7   -1.60    9.66
 -16   3  -7    3.16   10.54
  15  -3   4   10.37   10.76
 -15   3  -4   20.91   11.46
  15  -3   5   -0.14   10.92
 -15   3  -5   13.04   11.80
  15  -3   6   -9.91   11.42
  15  -3   7   -0.15   10.87
 -15   3  -7    4.71   11.71
  15  -3   8    2.01   10.08
 -15   3  -8   19.83   10.90
  14  -3   4   20.08   10.25
 -14   3  -4    3.67   10.33
  14  -3   5   32.33   11.34
 -14   3  -5   14.26    8.79
  14  -3   6  141.53   15.63
 -14   3  -6  134.44   16.35
  14  -3   7    8.79   12.02
 -14   3  -7    9.26   11.82
  14  -3   8    9.44   11.22
 -14   3  -8    8.38   11.21
  14  -3   9   -1.27   10.18
 -14   3  -9    7.57   11.14
  13  -3   3   28.78    9.79
  13  -3   4  -15.77    9.93
 -13   3  -4   13.21    9.97
  13  -3   5   52.12   11.07
  13  -3   6   65.12   12.32
 -13   3  -6   42.78   11.90
  13  -3   7   30.71   12.02
 -13   3  -7   17.07   12.21
  13  -3   8   42.97   12.70
 -13   3  -8   48.82   12.78
  13  -3   9   27.25   11.08
 -13   3  -9   -3.88   11.37
 -13   3 -10   18.05   11.20
  12  -3   3  100.40   12.14
 -12   3  -3  111.45   12.82
  12  -3   4   15.04    9.19
 -12   3  -4   29.57   10.23
  12  -3   5   21.60    9.72
 -12   3  -5   25.36   10.76
  12  -3   6   59.09   11.62
 -12   3  -6   67.00   12.22
  12  -3   7   79.75   13.47
 -12   3  -7   81.99   13.98
  12  -3   8   20.89   12.27
 -12   3  -8   26.22   12.50
  12  -3   9   26.28    9.75
 -12   3  -9   12.11   12.48
  12  -3  10    3.23   10.62
 -12   3 -10   13.42   11.32
  11  -3   2   -1.27    9.33
  11  -3   3   56.34   10.76
 -11   3  -3   50.10   10.83
  11  -3   4   -7.01    9.70
  11  -3   5   10.99    9.93
 -11   3  -5   12.82   10.14
  11  -3   6    6.11   10.43
 -11   3  -6    0.99   10.40
  11  -3   7   13.70   10.77
 -11   3  -7    7.62   10.68
  11  -3   8   24.78   12.12
 -11   3  -8   25.18   12.54
 -11   3  -9   26.61   13.12
  11  -3  10  -19.65   11.08
 -11   3 -10   11.77   11.49
  11  -3  11    0.93   10.00
 -11   3 -11   15.71   11.20
  10  -3   2   10.90    9.93
 -10   3  -2  -10.76   10.78
  10  -3   3    8.64    9.80
 -10   3  -3   24.11   10.35
  10  -3   4    0.65    9.70
  10  -3   5  145.83   14.44
 -10   3  -5  107.78   13.57
  10  -3   6    0.84    9.95
 -10   3  -6   10.00   10.42
  10  -3   7   32.39   10.91
 -10   3  -7    3.49   10.61
  10  -3   8   -1.42   10.64
 -10   3  -8  -11.86   11.16
  10  -3   9   30.76   12.56
 -10   3  -9   35.16   13.16
  10  -3  10   21.11   12.36
 -10   3 -10   14.87   12.33
  10  -3  11    2.23   10.66
 -10   3 -11   -0.19   10.58
   9  -3   2    9.28   10.57
  -9   3  -2   -8.65   11.25
   9  -3   4   -2.26   10.12
  -9   3  -4   -0.20   10.69
   9  -3   5  347.72   23.27
  -9   3  -5  352.14   23.42
   9  -3   6    0.10   10.22
  -9   3  -6   12.05   10.63
   9  -3   7  177.12   16.36
  -9   3  -7  175.14   16.42
  -9   3  -8   -5.35   11.13
   9  -3   9   58.80   12.97
  -9   3  -9   51.10   13.28
   9  -3  10   -6.20   12.35
  -9   3 -10  -17.49   12.12
   9  -3  11   14.11   10.90
  -9   3 -11    5.61   11.33
   8  -3   1   19.60   10.08
  -8   3  -1   38.51   10.48
   8  -3   2   -2.05   10.25
  -8   3  -2   18.12   11.20
   8  -3   3  434.48   26.81
   8  -3   4   46.98   11.37
  -8   3  -4   62.16   12.58
   8  -3   5  116.10   13.61
  -8   3  -5   99.26   13.15
   8  -3   6  119.67   13.86
  -8   3  -6  141.41   14.97
   8  -3   7   94.30   12.96
  -8   3  -7   66.44   12.27
  -8   3  -8    2.38   10.34
   8  -3   9   21.46   11.34
  -8   3  -9   12.05   11.29
   8  -3  10   11.49   12.30
  -8   3 -10   29.66   12.84
   8  -3  11   16.23   11.75
  -8   3 -11   13.89   11.57
   8  -3  12   -0.93   10.07
  -8   3 -12   -3.23   10.48
   7  -3   1  426.68   25.12
  -7   3  -1  497.04   28.57
   7  -3   2  136.53   13.34
  -7   3  -2  128.51   13.27
   7  -3   3   60.82   12.01
  -7   3  -3   62.55   12.32
   7  -3   4  111.61   14.08
  -7   3  -4  110.85   14.23
   7  -3   5   26.22   11.56
  -7   3  -5   23.71   11.55
   7  -3   6   32.05   10.91
  -7   3  -6   33.52   11.26
  -7   3  -7    1.99   10.20
   7  -3   8   70.64   12.64
  -7   3  -8   97.35   13.25
   7  -3   9   11.50   11.33
  -7   3  -9   36.21   12.13
   7  -3  10   13.79   12.11
  -7   3 -10   12.68   12.41
   7  -3  11   15.90   12.90
  -7   3 -11   -6.09   11.71
   7  -3  12    2.12   10.13
  -7   3 -12    3.29   10.11
   6  -3 -12   -1.93    8.05
   6  -3   0  735.56   38.98
  -6   3   0  707.30   37.73
   6  -3   1   20.78   10.21
  -6   3  -1  -12.92   10.07
   6  -3   2 1082.12   56.73
   6  -3   3   14.27   10.73
  -6   3  -3   33.59   11.79
   6  -3   4  167.93   15.55
  -6   3  -4  146.76   15.23
   6  -3   5   11.71   11.39
  -6   3  -5   21.49   12.15
   6  -3   6  102.46   13.27
  -6   3  -6  103.96   13.42
  -6   3  -7   93.85   12.70
   6  -3   8    5.22   10.40
  -6   3  -8   20.36   10.80
   6  -3   9   -0.24   10.73
  -6   3  -9  -13.34   10.12
   6  -3  10   -2.70   11.52
  -6   3 -10    7.65   11.58
   6  -3  11   -2.12   11.80
  -6   3 -11   14.23   12.02
   6  -3  12    2.34   10.78
  -6   3 -12   14.42   10.76
   5  -3 -12    7.19    8.30
  -5   3  12    9.25    8.35
   5  -3 -11   21.86    9.37
  -5   3  11   -3.15    8.82
   5  -3 -10   64.01    9.92
  -5   3  10   51.24    9.37
   5  -3  -9    7.88    7.57
   5  -3   0   24.40    9.62
  -5   3   0   46.53   10.28
   5  -3   1   65.58   11.46
  -5   3  -1   56.41   11.57
   5  -3   2  233.75   17.50
   5  -3   3   43.51   12.04
  -5   3  -3   25.13   12.32
   5  -3   4  220.49   17.55
  -5   3  -4  173.63   16.07
   5  -3   5   14.37   11.70
  -5   3  -5    3.20   12.28
   5  -3   6  702.77   39.47
  -5   3  -6  769.40   43.01
   5  -3   7   22.24   10.80
  -5   3  -7    0.12   10.01
   5  -3   8    0.05   10.54
  -5   3  -8    5.04   10.19
   5  -3   9   -3.48   10.40
  -5   3  -9    9.97   10.12
   5  -3  10  175.14   16.72
  -5   3 -10  119.90   15.18
   5  -3  11    1.76   12.23
  -5   3 -11   27.02   12.16
   5  -3  12  -20.44   10.89
  -5   3 -12   -1.84   10.76
   4  -3 -13   -8.79    8.00
  -4   3  13    2.31    7.87
   4  -3 -12    2.62    8.66
  -4   3  12   10.33    8.88
   4  -3 -10   12.93    8.20
  -4   3  10    7.14    8.27
   4  -3  -9    8.49    7.58
  -4   3   9    9.02    7.63
   4  -3  -8   -2.55    7.29
  -4   3   8   12.19    7.48
   4  -3  -7   14.85    7.33
  -4   3   7    0.24    7.18
   4  -3   0 1305.99   66.53
  -4   3   0 1301.34   66.08
   4  -3   1   99.27   12.87
   4  -3   2 1973.52  100.26
  -4   3  -2 1833.96   93.45
   4  -3   3   -4.90   11.91
  -4   3  -3   18.63   11.33
   4  -3   4  533.91   31.34
  -4   3  -4  544.03   31.64
   4  -3   5   -2.17   11.19
  -4   3  -5   22.46   11.64
  -4   3  -6  929.89   50.50
   4  -3   7   41.02   11.20
  -4   3  -7   20.41   10.08
   4  -3   8   25.39   10.41
  -4   3  -8   25.06   10.80
   4  -3   9   -4.83   10.27
  -4   3  -9   18.21   10.43
   4  -3  10   20.01   11.06
  -4   3 -10   12.22   11.05
   4  -3  11   27.12   12.57
  -4   3 -11   -4.43   11.97
   4  -3  12   23.63   11.83
  -4   3 -12    4.93   11.04
   3  -3 -13   10.75    8.26
  -3   3  13   12.80    8.21
   3  -3 -12    4.34    9.12
  -3   3  12    3.56    9.06
   3  -3 -11   17.54    9.30
  -3   3  11    6.38    9.45
   3  -3 -10    0.60    8.61
  -3   3  10  -11.06    8.16
   3  -3  -9   -0.16    7.52
  -3   3   9   10.90    7.91
   3  -3  -8    8.98    7.81
  -3   3   8   15.58    7.81
   3  -3  -7   30.41    8.04
  -3   3   7   27.26    8.01
   3  -3  -6    7.84    7.62
  -3   3   6   19.46    8.41
   3  -3  -5   70.38    8.43
  -3   3   5   44.13    8.21
   3  -3  -4   34.38    6.48
  -3   3   4   48.39    6.98
   3  -3  -1  176.77   11.20
  -3   3   1  155.95    9.94
   3  -3   1  164.32   14.39
   3  -3   2  526.35   30.33
  -3   3  -2  478.44   28.11
   3  -3   3  220.03   17.27
  -3   3  -3  195.03   16.51
   3  -3   4   50.16   11.85
  -3   3  -4   45.65   11.94
   3  -3   5   72.16   12.22
  -3   3  -5   75.63   12.36
   3  -3   6   -0.95   11.35
  -3   3  -6   14.40   11.02
   3  -3   7   36.39   11.29
  -3   3  -7   12.93   10.43
   3  -3   8   17.17   10.33
  -3   3  -8   15.36    9.92
   3  -3   9   18.33    9.85
  -3   3  -9    0.03    9.63
   3  -3  10    1.48   10.22
  -3   3 -10   -0.15   10.20
   3  -3  11    5.22   10.97
  -3   3 -11   15.56   11.43
   3  -3  12    4.80   10.89
  -3   3 -12   -3.28   11.27
   3  -3  13  -13.48    9.87
  -3   3 -13  -15.27    9.57
   2  -3 -13   -2.31    8.55
  -2   3  13    9.71    8.71
   2  -3 -12   -5.22    9.58
  -2   3  12    0.47   10.07
   2  -3 -11   25.01    9.99
  -2   3  11   27.43    9.89
   2  -3 -10    6.56    8.57
  -2   3  10    5.93    8.70
   2  -3  -9   12.18    8.00
  -2   3   9   10.64    8.26
   2  -3  -8   -0.17    7.63
  -2   3   8   -7.99    8.19
   2  -3  -7  132.92   11.64
  -2   3   7  121.53   11.40
   2  -3  -6   17.28    8.37
  -2   3   6    2.07    8.73
   2  -3  -5  105.27    9.86
  -2   3   5  120.36   10.75
   2  -3  -4  104.61    9.22
  -2   3   4  100.28    9.42
  -2   3   3  253.75   14.64
   2  -3  -2  326.67   16.85
  -2   3   2  323.18   16.70
   2  -3  -1   43.31    5.27
   2  -3   1   -7.14    9.91
  -2   3  -1    0.51    9.52
   2  -3   2  315.86   20.53
  -2   3  -2  294.92   19.72
   2  -3   3  236.78   17.80
  -2   3  -3  223.63   17.28
   2  -3   4   75.11   12.54
  -2   3  -4  107.03   12.94
  -2   3  -5  103.03   13.25
   2  -3   6   11.11   10.68
  -2   3  -6   23.61   10.97
   2  -3   7  137.34   14.28
  -2   3  -7  117.69   13.28
   2  -3   8   20.28   10.35
  -2   3  -8  -10.69    9.98
   2  -3   9    6.30   10.06
  -2   3  -9    6.69    9.49
   2  -3  10    8.35   10.05
  -2   3 -10   11.71   10.56
   2  -3  11   24.77   11.30
  -2   3 -11   14.06   11.29
   2  -3  12    1.47   10.89
  -2   3 -12   25.52   11.27
   2  -3  13    8.42    9.27
  -2   3 -13    2.37    9.68
   1  -3 -13   17.22    9.05
  -1   3  13    4.42    8.43
   1  -3 -12   -7.37    9.73
  -1   3  12   -6.61    9.89
   1  -3 -11   23.53   10.07
  -1   3  11   21.41   10.28
   1  -3 -10   -0.64    8.59
  -1   3  10   10.90    8.80
   1  -3  -9   22.04    8.37
  -1   3   9   30.74    9.19
   1  -3  -8   11.11    7.88
  -1   3   8   20.83    9.08
   1  -3  -7  152.00   12.86
  -1   3   7  183.98   14.54
   1  -3  -6  105.18   11.08
  -1   3   6  118.27   12.13
   1  -3  -5   50.37    8.83
  -1   3   5   68.33    9.90
   1  -3  -4  146.65   11.73
  -1   3   4  116.76   10.91
  -1   3   3 5611.21  278.29
   1  -3   2   83.84   12.06
  -1   3  -2   70.38   11.48
   1  -3   3 4633.17  230.96
  -1   3  -3 4477.34  223.40
   1  -3   4  143.62   14.73
  -1   3  -4  154.67   14.47
  -1   3  -5   54.67   11.30
   1  -3   6   90.33   12.25
  -1   3  -6   67.33   11.30
   1  -3   7  148.28   14.41
  -1   3  -7  118.27   13.21
   1  -3   8    7.08    9.82
  -1   3  -8   17.15    9.85
   1  -3   9    8.49    9.77
  -1   3  -9   26.20    9.82
   1  -3  10   13.80   10.39
  -1   3 -10   39.94   10.77
   1  -3  11    1.28   10.90
  -1   3 -11    5.63   10.92
   1  -3  12   15.33   11.02
  -1   3 -12   -0.92   10.70
   1  -3  13    0.81    9.21
  -1   3 -13    6.71   10.05
   0  -3 -13   14.82    9.07
   0   3  13   -7.05    8.64
   0  -3 -12    5.74   10.55
   0   3  12    3.71   10.55
   0  -3 -11   98.26   12.80
   0   3  11  129.20   13.98
   0  -3 -10    2.74    8.91
   0   3  10  -16.62    9.21
   0  -3  -9   51.65    9.75
   0   3   9   77.73   10.90
   0  -3  -8    8.90    8.48
   0   3   8    9.63    9.22
   0  -3  -7  691.72   37.70
   0   3   7  662.06   36.46
   0  -3  -6   11.96    9.30
   0   3   6   18.55   10.28
   0  -3  -5 1407.16   71.88
   0   3   5 1487.41   75.87
   0  -3  -4   11.19    8.71
   0   3   4   18.32    9.63
   0  -3  -3 1276.91   64.74
   0   3   3 1209.46   61.43
   0   3  -4  -17.27   10.78
   0  -3   5 1178.06   61.40
   0   3  -5 1196.67   62.38
   0  -3   6   -6.22    9.98
   0   3  -6    4.66   10.39
   0  -3   7  361.56   23.14
   0   3  -7  307.83   20.69
   0  -3   8    7.05    9.33
   0   3  -8    2.05    9.21
   0  -3   9   70.90   11.19
   0   3  -9   52.88   10.52
   0  -3  10  -12.84    9.97
   0   3 -10   16.37    9.71
   0  -3  11   86.22   13.23
   0   3 -11   92.37   13.15
   0  -3  12   -0.81   10.80
   0   3 -12   -7.35   10.97
  -1  -3 -13    2.16    9.49
   1   3  13   -1.09    9.61
  -1  -3 -12    8.19   10.35
   1   3  12   20.43   10.76
  -1  -3 -11   20.57   10.94
   1   3  11   -1.36   10.43
  -1  -3 -10   12.15    9.57
   1   3  10   12.49   10.21
  -1  -3  -9   10.49    9.13
   1   3   9   -3.95    9.16
  -1  -3  -8    1.16    8.92
   1   3   8   13.04    9.72
  -1  -3  -7  145.60   13.12
   1   3   7  131.30   13.18
  -1  -3  -6  134.09   12.86
   1   3   6  120.13   13.05
  -1  -3  -4  118.85   11.75
   1   3   4  100.02   11.61
  -1  -3   7  102.46   12.32
   1   3  -7  121.88   12.64
  -1  -3   9   19.20    9.22
   1   3  -9   16.16    9.13
  -1  -3  10   -8.85    9.38
   1   3 -10    7.86    9.50
  -1  -3  11   27.82   11.08
   1   3 -11    4.64   10.09
  -1  -3  12    5.11   10.56
   1   3 -12   -4.83   10.20
  -1  -3  13   11.61    9.13
   1   3 -13    4.92    9.42
  -2  -3 -13    7.20    9.36
   2   3  13   -0.85    9.32
  -2  -3 -12    6.07   11.04
   2   3  12  -11.30   11.02
  -2  -3 -11   32.04   11.48
   2   3  11   49.52   12.23
  -2  -3 -10   10.94    9.85
   2   3  10   21.50   10.26
  -2  -3  -9  -11.70    8.98
   2   3   9   -2.31    9.41
  -2  -3  -8   14.09    9.12
   2   3   8   -0.20    9.23
  -2  -3  -7  137.93   13.16
   2   3   7  136.18   13.57
  -2  -3  -5   97.63   11.59
   2   3   5  100.92   12.12
  -2  -3  -4  121.99   12.48
   2   3   4   91.83   11.57
   2   3  -9    3.33    8.77
  -2  -3  10    4.14    9.51
   2   3 -10   -1.79    9.20
  -2  -3  11   12.93   10.57
   2   3 -11    7.51   10.12
  -2  -3  12   17.41   10.69
   2   3 -12    6.58   10.61
  -2  -3  13   -4.51    8.97
   2   3 -13   19.49    9.21
  -3  -3 -13    9.73    9.56
   3   3  13    7.11    9.54
  -3  -3 -12   -7.14   10.84
   3   3  12   -3.78   10.89
  -3  -3 -11   20.33   11.52
   3   3  11    7.43   11.82
  -3  -3 -10   -5.11    9.87
   3   3  10   18.76   10.47
  -3  -3  -9   21.15    9.28
   3   3   9   -3.51    9.70
  -3  -3  -8   15.40    9.42
   3   3   8    7.98    9.85
  -3  -3  -6    4.74   10.11
   3   3   6    0.24   10.12
  -3  -3  -5   65.36   11.11
   3   3   5   52.79   11.33
  -3  -3  -4   66.24   10.80
   3   3   4   53.12   10.92
   3   3 -12   -3.48    9.80
  -3  -3  13    7.09    8.57
   3   3 -13   16.21    9.11
  -4  -3 -13   10.14   10.08
   4   3  13   -9.05   11.22
  -4  -3 -12   19.56   10.98
   4   3  12    5.85   11.25
  -4  -3 -11   29.41   11.75
   4   3  11   14.15   11.70
  -4  -3  -9    1.76    9.13
   4   3   9   -6.33    9.82
  -4  -3  -8   28.79    9.76
   4   3   8    7.87    9.63
  -4  -3  -7   19.01    9.78
   4   3   7   24.97    9.93
  -4  -3  -6  983.04   52.32
   4   3   6  963.03   51.33
  -4  -3  -5    9.49   10.20
   4   3   5    7.58   10.98
  -5  -3 -12   13.26   10.65
   5   3  12   -5.87   10.54
  -5  -3 -11   -3.12   11.57
   5   3  11    9.95   11.92
  -5  -3 -10   77.85   12.58
   5   3  10   49.93   11.99
  -5  -3  -9    7.88    9.82
   5   3   9    6.38    9.59
  -5  -3  -8   -2.83    9.11
   5   3   8    5.54    9.70
  -5  -3  -7   18.55    9.63
   5   3   7   12.77    9.72
  -5  -3  -6  512.16   30.04
   5   3   6  536.12   31.26
  -5  -3  -5  -13.51   10.87
   5   3   5   10.25   10.77
  -6  -3 -12   -4.28   10.33
   6   3  12    8.88   10.19
  -6  -3 -11    4.73   11.27
   6   3  11   27.59   11.91
  -6  -3 -10   16.37   11.12
   6   3  10    2.86   11.00
  -6  -3  -9    5.99    9.93
   6   3   9   -3.09   10.08
  -6  -3  -8   18.14    9.69
   6   3   8    9.66    9.68
  -6  -3  -7   93.13   11.97
   6   3   7   77.71   11.35
  -6  -3  -6   64.52   11.20
   6   3   6   72.60   11.36
  -7  -3 -12    5.36   10.04
   7   3  12    7.33    9.93
  -7  -3 -11   47.84   12.50
   7   3  11   18.64   12.33
  -7  -3 -10    0.27   11.37
   7   3  10    6.50   11.11
  -7  -3  -9   27.99   10.89
   7   3   9   26.98   10.87
  -7  -3  -7   10.32    9.95
   7   3   7    1.77    9.72
  -7  -3  -6   44.99   10.75
   7   3   6   39.69   10.47
  -8  -3 -12    1.20   10.19
   8   3  12    4.29    9.47
  -8  -3 -11   -1.76   10.80
   8   3  11  -24.57   10.82
  -8  -3 -10   10.69   11.77
   8   3  10    4.95   11.42
  -8  -3  -9    4.47   10.41
   8   3   9    6.75   10.83
  -8  -3  -8   -1.41    9.87
   8   3   8    8.72    9.68
  -8  -3  -7  152.81   14.29
   8   3   7  110.05   12.94
   8   3   6  129.20   13.56
  -9  -3 -11   42.37   11.57
   9   3  11   24.32   11.35
  -9  -3 -10    6.84   11.21
   9   3  10   10.90   11.56
  -9  -3  -9   36.38   11.84
   9   3   9   45.16   11.50
  -9  -3  -8   -8.69   10.27
   9   3   8   -3.37   10.00
  -9  -3  -7  125.71   13.57
   9   3   7  156.76   14.75
 -10  -3 -11   -2.30   10.05
  10   3  11   -2.22    9.90
 -10  -3 -10   22.62   11.20
  10   3  10   -3.97   11.16
 -10  -3  -9   71.15   13.04
  10   3   9   70.31   13.39
 -10  -3  -8  -16.08   10.37
  10   3   8    6.09   10.21
  10   3   7   25.42   10.55
 -11  -3 -11  -18.61   10.59
  11   3  11    6.97   10.25
 -11  -3 -10   -1.60   10.79
  11   3  10   -8.68   10.41
 -11  -3  -9   19.43   11.89
  11   3   9   25.33   11.76
 -11  -3  -8    5.50   11.15
  11   3   8   -3.08   10.85
 -12  -3 -10   11.98   10.57
  12   3  10   15.84   10.36
 -12  -3  -9   18.14   11.55
  12   3   9   20.42   11.65
 -12  -3  -8   -2.14   10.99
  12   3   8    7.16   11.16
 -13  -3 -10   25.74   11.29
  13   3  10   12.47   10.50
 -13  -3  -9   14.06   11.04
  13   3   9   21.21   10.61
  13   3   8    2.52   10.79
 -14  -3  -9   -2.71    9.83
  14   3   9  -11.77    9.40
  18  -4   4    9.82    9.52
  18  -4   5   -4.48    9.36
 -18   4  -5   12.32    9.58
  17  -4   4   -4.52   10.20
  17  -4   5  -12.82    9.92
 -17   4  -5  -10.62   10.19
  17  -4   6   -2.83    9.99
 -17   4  -6    2.86   10.35
  16  -4   4   30.26   11.19
 -16   4  -4   21.91   11.99
  16  -4   5    9.20   10.68
 -16   4  -5   19.67   11.64
  16  -4   6    5.87   10.83
 -16   4  -6  -26.22   10.90
  16  -4   7  -15.47    9.61
  15  -4   3    6.48   10.29
  15  -4   4   10.57   10.65
 -15   4  -4   14.97   11.48
  15  -4   5   32.34   12.18
 -15   4  -5   35.75   12.66
  15  -4   6    4.27   11.23
 -15   4  -6   17.25   10.61
  15  -4   7   -1.93   10.63
 -15   4  -7    2.01   11.75
  15  -4   8   14.16   10.32
 -15   4  -8   15.97   10.57
  14  -4   3    0.79    9.41
 -14   4  -3   14.29   10.18
  14  -4   4  -11.12    9.79
 -14   4  -4    8.83   10.69
  14  -4   5   19.42   10.76
 -14   4  -5   32.57   11.34
  14  -4   6   16.87   11.56
  14  -4   7    3.13   11.61
 -14   4  -7   17.04   12.12
  14  -4   8   -3.28   11.11
 -14   4  -8   19.14   12.40
  14  -4   9    0.49   10.19
 -14   4  -9    1.17   10.54
  13  -4   2   -2.14    8.95
  13  -4   3   62.08   10.71
 -13   4  -3   76.30   11.49
  13  -4   4    0.88    9.63
 -13   4  -4   15.12   10.22
  13  -4   5   10.83    9.90
 -13   4  -5   -0.77   10.45
  13  -4   6   49.32   12.00
  13  -4   7   84.56   13.98
 -13   4  -7   67.80   13.75
  13  -4   8   19.01   12.15
 -13   4  -8   -9.23   12.13
  13  -4   9   -0.76   10.82
 -13   4  -9  -21.96   10.66
  12  -4   2   11.11    9.12
 -12   4  -2   -2.12    9.13
  12  -4   3   16.64    9.55
 -12   4  -3    7.47    9.87
  12  -4   4    1.33    9.18
 -12   4  -4   12.19   10.07
  12  -4   5    0.62    9.64
  12  -4   6  -19.83   10.58
 -12   4  -6    1.51   11.35
  12  -4   7   50.81   12.78
 -12   4  -7   71.97   13.79
  12  -4   9   16.50   11.75
 -12   4  -9   20.71   12.56
 -12   4 -10    2.02   10.52
  11  -4   2    5.54    9.29
 -11   4  -2   -3.26    9.29
  11  -4   3    1.77    9.25
 -11   4  -3    2.63    9.48
  11  -4   4   -6.45    9.48
 -11   4  -4   -3.52    9.50
  11  -4   5   -2.20    9.82
  11  -4   6   28.25   10.50
 -11   4  -6   16.10   10.91
  11  -4   7   -5.80   11.29
 -11   4  -7    5.79   11.35
  11  -4   8    2.29   11.76
 -11   4  -8   -6.95   12.27
  11  -4   9    2.87   12.01
 -11   4  -9    6.69   12.47
 -11   4 -10    7.15   11.54
  10  -4   1   17.04    9.49
 -10   4  -1    4.97    9.75
  10  -4   2   82.52   11.32
 -10   4  -2  100.14   12.73
  10  -4   3   -1.08    9.22
 -10   4  -3  -16.85    9.84
  10  -4   4   -0.76    9.98
 -10   4  -4   -1.95    7.62
  10  -4   5   -5.50    9.63
 -10   4  -5   20.22   10.59
  10  -4   6   25.14   10.39
 -10   4  -6   26.45   10.84
  10  -4   7   -6.88   10.25
 -10   4  -7  -13.11   10.50
  10  -4   8   -6.51   10.92
 -10   4  -8  -10.63   11.58
 -10   4  -9   -4.66   12.62
  10  -4  10   10.58   11.98
 -10   4 -10  -18.74   11.89
  10  -4  11   -5.26    9.87
 -10   4 -11   -9.14   10.05
   9  -4   1   -3.29    9.91
  -9   4  -1   -0.24   10.57
   9  -4   2   -6.16    9.80
  -9   4  -2  -10.40   10.77
   9  -4   3   13.15   10.41
  -9   4  -3   -4.13   10.79
   9  -4   4   22.67   10.43
   9  -4   5   -6.97    9.90
  -9   4  -5    4.61   10.36
   9  -4   6    4.01    9.90
  -9   4  -6  -13.04   10.30
   9  -4   7    9.78   10.22
  -9   4  -7    9.65   10.34
   9  -4   8    0.49   10.77
  -9   4  -8   -0.57   11.16
  -9   4  -9    1.85   12.35
   9  -4  10    7.79   12.62
  -9   4 -10   46.91   13.59
   9  -4  11   -3.86   11.34
  -9   4 -11   -3.95   11.15
   8  -4   0   10.75    8.59
  -8   4   0   19.32    9.59
   8  -4   1   14.14    9.57
  -8   4  -1   21.01   10.57
   8  -4   2   32.64   10.55
  -8   4  -2   35.52   11.66
   8  -4   3   34.88   11.30
  -8   4  -3   52.65   12.22
   8  -4   4  143.86   14.63
  -8   4  -4  131.76   14.29
   8  -4   6    1.15   10.29
  -8   4  -6  -16.87   10.51
   8  -4   7   49.18   11.27
  -8   4  -7   46.66   11.23
   8  -4   8   38.64    9.18
  -8   4  -8   71.59   12.66
   8  -4   9   12.28   12.11
  -8   4  -9   -4.44   12.08
   8  -4  10   14.25   12.46
  -8   4 -10   24.92   12.78
   8  -4  11   -2.78   11.58
  -8   4 -11   21.74   12.06
   8  -4  12   11.23   11.12
   7  -4   0   28.84    8.52
  -7   4   0   27.64    9.30
   7  -4   1    2.19    9.48
  -7   4  -1   -8.61    9.78
   7  -4   2   17.57   10.26
  -7   4  -2    9.55   11.02
   7  -4   3   13.96   11.61
   7  -4   4    7.69   11.13
  -7   4  -4   22.64   12.34
   7  -4   5    0.90   10.57
  -7   4  -5    4.95   11.00
   7  -4   6   32.91   10.87
  -7   4  -6   29.78   11.28
   7  -4   7    0.26    9.99
  -7   4  -7   14.22   11.07
  -7   4  -8   15.69   11.11
   7  -4   9   -3.72   10.89
  -7   4  -9    9.07   11.29
   7  -4  10   20.19   12.35
  -7   4 -10    8.77   11.54
   7  -4  11   18.80   12.13
  -7   4 -11   -5.05   11.30
   7  -4  12   18.21   10.42
  -7   4 -12   -6.23    9.83
   6  -4 -12   -3.57    7.65
  -6   4  12   -7.02    7.29
   6  -4 -11    0.60    8.54
  -6   4  11    4.51    7.85
   6  -4 -10   11.28    8.12
   6  -4   0    2.07    8.13
  -6   4   0   -4.16    9.22
   6  -4   1   16.84    9.72
  -6   4  -1  -10.13    9.95
   6  -4   2   -4.01    9.82
  -6   4  -2    2.76   10.90
   6  -4   3   34.41   11.01
   6  -4   4    9.35   11.37
  -6   4  -4   -0.73   12.09
   6  -4   5   16.18   11.09
  -6   4  -5   15.82   12.13
   6  -4   6   38.94   11.07
  -6   4  -6    4.72   10.85
   6  -4   7    7.34   10.25
  -6   4  -7    5.26    9.94
   6  -4   8   -7.90   10.29
  -6   4  -8   -0.88   10.35
   6  -4   9   34.76   11.26
  -6   4  -9    4.85   10.80
   6  -4  10   10.85   11.78
  -6   4 -10   -7.27   11.49
   6  -4  11   26.97   12.70
  -6   4 -11   32.38   12.73
   6  -4  12   15.19   10.84
  -6   4 -12    7.84   10.61
   5  -4 -12    5.61    8.34
  -5   4  12    2.60    8.15
   5  -4 -11   35.92    9.72
  -5   4  11   40.32    9.26
   5  -4 -10   18.37    8.79
  -5   4  10   15.18    8.16
   5  -4  -9    7.14    7.40
  -5   4   9  -11.28    7.35
   5  -4  -8    4.41    6.61
   5  -4  -1  231.08   14.50
  -5   4   1  251.43   15.40
   5  -4   0   11.80    9.48
  -5   4   0   33.56   10.08
   5  -4   1  230.50   16.73
  -5   4  -1  218.87   16.32
   5  -4   2    5.73   11.11
  -5   4  -2   -5.57    7.97
   5  -4   3   -3.22   10.35
  -5   4  -3    7.66   11.52
   5  -4   4   -1.38   11.42
  -5   4  -4   15.19   11.22
   5  -4   5  138.62   14.79
  -5   4  -5  184.21   16.82
   5  -4   6   16.89   11.02
  -5   4  -6  -10.84   11.15
  -5   4  -7    6.48   10.30
   5  -4   8  -11.57   10.36
  -5   4  -8   11.77   10.18
   5  -4   9   28.20   10.90
  -5   4  -9    7.13   10.84
   5  -4  10   18.41   11.39
  -5   4 -10   -3.04   11.00
   5  -4  11   59.91   13.12
  -5   4 -11   44.23   12.85
   5  -4  12   11.98   10.82
  -5   4 -12    9.40   11.12
   4  -4 -12    9.68    8.65
  -4   4  12   -0.09    8.59
   4  -4 -11   49.31   10.18
  -4   4  11   45.52    9.78
   4  -4 -10   19.19    8.83
  -4   4  10   19.54    8.48
   4  -4  -9    6.63    7.30
  -4   4   9   18.50    7.79
   4  -4  -8    6.44    6.85
  -4   4   8   -1.74    6.92
   4  -4  -7   24.40    7.29
  -4   4   7   27.39    7.18
   4  -4  -6    1.73    6.51
  -4   4   6   -5.63    6.84
   4  -4  -5    3.76    6.26
   4  -4   0   19.00    9.23
  -4   4   0   39.32    9.58
   4  -4   1   30.27   10.47
  -4   4  -1   18.85   10.22
   4  -4   2    7.31   10.86
   4  -4   3   39.26   11.52
  -4   4  -3   14.83   11.77
   4  -4   4    4.14   10.78
  -4   4  -4   13.59   11.11
   4  -4   5   31.84   11.69
  -4   4  -5   29.78   12.13
   4  -4   6   11.09   11.18
  -4   4  -6   23.34   11.05
  -4   4  -7   28.19   10.40
   4  -4   8   -5.18   10.23
  -4   4  -8  -16.27   10.12
   4  -4   9   -2.35   10.11
  -4   4  -9    6.62   10.13
   4  -4  10   -3.33   10.75
  -4   4 -10   28.34   11.50
   4  -4  11   39.83   12.56
  -4   4 -11   44.70   12.72
   4  -4  12    1.29   10.87
  -4   4 -12   23.82   10.97
   3  -4 -13   -2.94    8.13
  -3   4  13   14.28    8.01
   3  -4 -12   19.77    9.08
  -3   4  12    1.83    8.91
   3  -4 -11    6.85    9.27
  -3   4  11    3.88    9.56
   3  -4 -10   -4.90    8.64
  -3   4  10   14.91    8.56
   3  -4  -9    1.33    7.63
  -3   4   9    2.97    7.56
   3  -4  -8    5.95    7.29
  -3   4   8   14.32    7.62
   3  -4  -7   51.44    8.16
  -3   4   7   59.85    8.51
   3  -4  -6   40.02    7.72
  -3   4   6   48.75    8.09
   3  -4  -5    6.43    6.50
  -3   4   5    3.12    6.95
  -3   4   4   33.46    5.94
   3  -4  -3  156.07    8.92
  -3   4   3  147.69    8.51
   3  -4  -1   43.60    6.85
  -3   4   1   33.49    6.49
   3  -4   0   20.76    8.71
  -3   4   0   40.53    8.71
   3  -4   1   21.81   10.83
  -3   4  -1    7.27    9.37
   3  -4   2   53.47   11.57
  -3   4  -2   80.77   12.64
   3  -4   3  168.51   15.57
  -3   4  -3  139.79   14.32
   3  -4   4   25.84   11.35
  -3   4  -4   14.30   11.18
   3  -4   5   15.41   11.33
  -3   4  -5    4.93   11.30
  -3   4  -6   34.09   10.95
   3  -4   7   36.75   10.84
  -3   4  -7   71.56   11.44
   3  -4   8   -3.52    9.71
  -3   4  -8   14.57   10.48
   3  -4   9  -12.99   10.21
  -3   4  -9  -15.11    9.66
   3  -4  10   10.16   10.34
  -3   4 -10   14.63   10.99
   3  -4  11   11.71   12.21
  -3   4 -11    5.87   11.73
   3  -4  12  -12.29   10.75
  -3   4 -12   -2.79   10.36
   2  -4 -13    7.83    8.54
  -2   4  13    1.99    8.13
   2  -4 -12    6.30    9.29
  -2   4  12   -1.04    9.29
   2  -4 -11    2.24    9.75
  -2   4  11    7.48    9.78
   2  -4 -10   -3.77    8.51
  -2   4  10  -13.53    8.34
   2  -4  -9    2.04    7.51
  -2   4   9   18.25    7.92
   2  -4  -8   -9.86    7.91
  -2   4   8   -4.02    7.92
   2  -4  -7   41.30    8.51
  -2   4   7   45.61    8.75
   2  -4  -6   -1.47    7.72
  -2   4   6   -4.99    8.65
   2  -4  -5   13.80    7.45
  -2   4   5    6.47    7.72
   2  -4  -4    2.23    5.93
  -2   4   4   20.46    7.07
   2  -4  -3   20.01    5.41
  -2   4   3    9.36    5.63
  -2   4   0   85.96    9.19
   2  -4   1   31.05   10.89
   2  -4   2   32.73   11.21
  -2   4  -2   22.60   10.89
   2  -4   3   23.89   10.87
  -2   4  -3   24.25   11.28
   2  -4   4   29.09   11.04
  -2   4  -4    9.40   10.92
   2  -4   5   57.84   11.57
  -2   4  -5   53.64   11.92
  -2   4  -6   -9.00   10.76
   2  -4   7   21.48   10.59
  -2   4  -7   26.19   10.45
   2  -4   8    9.85    9.87
  -2   4  -8   11.75   10.18
   2  -4   9   11.42   10.14
  -2   4  -9    7.33    9.66
   2  -4  10   18.14   10.41
  -2   4 -10    1.84   10.01
   2  -4  11   10.51   10.87
  -2   4 -11   -4.30   11.00
   2  -4  12   -7.15   10.66
  -2   4 -12   -1.83   10.87
   2  -4  13  -12.23   10.12
  -2   4 -13  -17.65    9.63
   1  -4 -13    9.26    8.90
  -1   4  13    1.55    8.61
   1  -4 -12   53.02   10.97
  -1   4  12   32.13   10.43
   1  -4 -11   16.94    9.84
  -1   4  11   11.28    9.93
   1  -4 -10   56.86    9.91
  -1   4  10   49.96   10.06
   1  -4  -9    5.45    8.07
  -1   4   9   16.60    8.59
   1  -4  -8   20.85    8.48
  -1   4   8   10.64    8.68
   1  -4  -7   -7.88    8.08
  -1   4   7    4.26    8.32
   1  -4  -6   13.94    8.59
  -1   4   6    9.08    9.40
   1  -4  -5    8.58    7.68
  -1   4   5    9.55    8.38
   1  -4  -4   -2.43    7.29
  -1   4   4    2.13    7.41
   1  -4   3    1.64   10.82
  -1   4  -3   -5.73   11.19
   1  -4   4   19.84   10.82
  -1   4  -4   -4.43   10.68
  -1   4  -5    0.15   10.77
   1  -4   6   12.42   10.65
  -1   4  -6  -10.44   10.66
   1  -4   7  -15.35    9.98
  -1   4  -7  -11.61    9.65
   1  -4   8    1.30    9.92
  -1   4  -8    4.13    9.66
   1  -4   9   10.43    9.49
  -1   4  -9    0.66    9.62
   1  -4  10   56.15   11.42
  -1   4 -10   48.10   11.13
   1  -4  11   -1.16   10.97
  -1   4 -11    9.91   11.13
   1  -4  12   21.27   11.26
  -1   4 -12   30.40   11.37
   1  -4  13    3.63    9.30
  -1   4 -13    3.49    9.69
   0  -4 -13   11.79    8.59
   0   4  13   13.08    8.92
   0  -4 -12    0.87    9.86
   0   4  12   10.78   10.59
   0  -4 -11   19.83   10.11
   0   4  11   11.55   10.55
   0  -4 -10   18.36    9.23
   0   4  10   27.52    9.55
   0  -4  -9   23.71    8.40
   0   4   9   35.26    9.34
   0  -4  -8   20.82    8.30
   0   4   8   -4.83    8.85
   0  -4  -7   26.17    8.98
   0   4   7    9.79    8.84
   0  -4  -6   19.55    9.21
   0   4   6   40.52   10.25
   0  -4  -5    7.09    8.05
   0   4   5    4.85    8.79
   0  -4  -4  369.47   21.15
   0   4   4  426.80   23.95
   0  -4   6   42.38   10.75
   0   4  -6   18.75   10.29
   0  -4   7    7.00    9.78
   0   4  -7   -4.62    9.58
   0  -4   8    9.52    9.84
   0   4  -8    8.29    9.44
   0  -4   9    7.88    9.36
   0   4  -9   24.26    9.63
   0  -4  10   23.07   10.39
   0   4 -10   33.17   10.61
   0  -4  11  -11.65   10.66
   0   4 -11    3.50   10.73
   0  -4  12    9.20   10.54
   0   4 -12   10.95   10.65
   0  -4  13   -7.75    9.11
   0   4 -13   -8.59    9.55
  -1  -4 -13   -3.12    8.70
   1   4  13    4.68    8.97
  -1  -4 -12   38.67   11.55
   1   4  12   60.68   11.94
  -1  -4 -11   10.29   10.72
   1   4  11   18.04   10.99
  -1  -4 -10   46.49   10.42
   1   4  10   59.72   10.80
  -1  -4  -9   -8.18    8.94
   1   4   9   -5.79    9.25
  -1  -4  -8   11.78    8.58
   1   4   8   -8.04    9.07
  -1  -4  -7   11.34    8.79
   1   4   7    6.05    9.18
  -1  -4  -6   -0.80    9.05
   1   4   6   12.56   10.14
  -1  -4  -5   -0.81    8.69
   1   4   5    1.62    9.22
  -1  -4  -4   -2.06    8.86
   1   4   4  -11.05    9.15
   1   4  -8  -13.34    9.14
  -1  -4   9  -17.99    9.13
   1   4  -9   12.40    9.47
  -1  -4  10   36.31   10.71
   1   4 -10   47.48   10.84
  -1  -4  11    8.09   10.52
   1   4 -11   23.07   10.99
  -1  -4  12   19.36   10.59
   1   4 -12   13.00   10.94
  -1  -4  13  -14.92    8.80
   1   4 -13    2.54    9.35
  -2  -4 -13   22.43   10.16
   2   4  13   12.15    9.54
  -2  -4 -12   26.48   10.75
   2   4  12    6.92   10.34
  -2  -4 -11    7.31   11.02
   2   4  11   -4.06   10.59
  -2  -4 -10    0.98    9.83
   2   4  10    7.35    9.91
  -2  -4  -9   -0.22    9.11
   2   4   9   11.87    9.56
  -2  -4  -8  -11.23    8.29
   2   4   8   -4.94    8.93
  -2  -4  -7   50.63    9.62
   2   4   7   30.97    9.75
  -2  -4  -5   29.09    9.44
   2   4   5   21.17   10.13
   2   4 -10    0.51    9.13
  -2  -4  11   -2.85    9.87
   2   4 -11    3.72   10.39
  -2  -4  12   11.57   10.30
   2   4 -12   -9.20   10.18
  -2  -4  13    4.64    9.20
   2   4 -13    8.57    9.68
  -3  -4 -13    8.38   10.57
   3   4  13    3.70    9.63
  -3  -4 -12    3.40   10.63
   3   4  12    2.65   10.85
  -3  -4 -11    4.33   11.11
   3   4  11    5.98   11.13
  -3  -4 -10    6.30    9.97
   3   4  10   10.19   10.32
  -3  -4  -9   -5.77    8.56
   3   4   9    3.45    9.59
  -3  -4  -8   25.97    9.36
   3   4   8   28.28    9.61
  -3  -4  -7   50.29   10.06
   3   4   7   48.40   10.18
  -3  -4  -6   64.94   10.70
   3   4   6   44.11   10.73
  -3  -4  -5   10.79    9.55
   3   4   5    0.30   10.33
  -4  -4 -12   13.21   10.72
   4   4  12    7.45   10.57
  -4  -4 -11   34.68   11.97
   4   4  11   40.81   12.36
  -4  -4 -10   15.07   10.22
   4   4  10   18.15   10.97
  -4  -4  -9    8.40    8.88
   4   4   9   -0.73    9.59
  -4  -4  -8    4.77    9.16
   4   4   8   -2.07    9.44
  -4  -4  -7   34.68    9.65
   4   4   7   24.28   10.25
  -4  -4  -6    4.28   10.20
   4   4   6   26.33   10.02
  -5  -4 -12    1.87   10.32
   5   4  12   -8.97   10.47
  -5  -4 -11   46.45   12.19
   5   4  11   12.75   11.68
  -5  -4 -10   15.62   10.73
   5   4  10   15.40   10.85
  -5  -4  -9   -2.93    9.40
   5   4   9    7.01    9.78
  -5  -4  -8    8.23    8.91
   5   4   8    3.94    9.43
  -5  -4  -7   28.40    9.70
   5   4   7   21.75    9.70
  -5  -4  -6    6.98    9.71
   5   4   6    5.38    9.79
  -6  -4 -12    5.88   10.32
   6   4  12    0.70    9.71
  -6  -4 -11   16.87   11.59
   6   4  11   13.97   11.79
  -6  -4 -10   -3.34   10.78
   6   4  10   31.38   11.61
  -6  -4  -9   11.64    9.86
   6   4   9  -10.63    9.87
  -6  -4  -8    5.38    9.44
   6   4   8    1.47    9.47
  -6  -4  -7   12.90    9.68
   6   4   7    5.52    9.25
   6   4   6   -7.40    9.71
  -7  -4 -12    9.91   10.02
   7   4  12    6.50    9.77
  -7  -4 -11    8.68   11.15
   7   4  11   -0.51   11.19
  -7  -4 -10   -1.76   10.97
   7   4  10    7.20   11.76
  -7  -4  -9    8.26   10.43
   7   4   9    4.06   10.13
  -7  -4  -8   41.38   10.23
   7   4   8   35.31   10.20
  -7  -4  -7    3.67    9.47
   7   4   7    6.34    9.61
  -8  -4 -12   11.23   10.80
   8   4  12   17.78   10.27
  -8  -4 -11    6.11   10.69
   8   4  11   18.91   11.05
  -8  -4 -10    9.23   10.94
   8   4  10   10.01   11.28
  -8  -4  -9   14.76   10.72
   8   4   9   12.41   10.51
  -8  -4  -8   41.95   10.76
   8   4   8   27.43   10.35
   8   4   7   76.66   11.52
  -9  -4 -11    2.94    9.84
   9   4  11   -6.72    9.85
  -9  -4 -10    3.76   11.04
   9   4  10   30.22   11.50
  -9  -4  -9    7.05   11.00
   9   4   9   26.04   11.15
  -9  -4  -8    6.98   10.13
   9   4   8   14.51   10.04
 -10  -4 -11    5.35    9.55
  10   4  11  -10.76    9.65
 -10  -4 -10   26.19   11.46
  10   4  10   19.69   11.37
 -10  -4  -9    4.99   11.76
  10   4   9   26.42   11.66
 -10  -4  -8   -1.02   10.35
  10   4   8   19.87   10.77
 -11  -4 -10    6.20   10.50
  11   4  10   15.21   10.54
 -11  -4  -9   11.55   11.40
  11   4   9   13.77   11.25
 -12  -4 -10   20.54   10.63
  12   4  10   -0.65    9.80
 -12  -4  -9   16.67   11.34
  12   4   9    6.00   10.64
  13   4   9   -7.09   10.12
  18  -5   4   11.37    9.35
 -18   5  -4   20.46   10.02
  18  -5   5    0.50   10.42
  17  -5   3    5.05   10.02
  17  -5   4   11.18   10.51
 -17   5  -4    7.00   10.59
  17  -5   5   16.56   10.52
 -17   5  -5   18.67   10.66
  17  -5   6   -5.05    9.20
 -17   5  -6   -6.33    9.63
  16  -5   3  323.18   22.53
 -16   5  -3  273.52   21.18
  16  -5   4    9.87   11.02
 -16   5  -4    8.20   11.91
  16  -5   5   20.28   11.02
 -16   5  -5   20.64   11.52
  16  -5   6   -9.89   10.12
 -16   5  -6   -9.22   10.66
  16  -5   7   48.67   10.98
 -16   5  -7   20.29   10.54
  15  -5   2   49.72   10.79
  15  -5   3  -18.20   10.11
 -15   5  -3    3.58   11.26
  15  -5   4  487.62   30.28
 -15   5  -4  474.60   30.22
  15  -5   5   -4.16   10.84
 -15   5  -5   -7.05   11.62
  15  -5   6   14.53   11.43
 -15   5  -6   15.90   11.86
  15  -5   7    9.32   10.50
  15  -5   8    6.30   10.12
 -15   5  -8  -11.07   10.36
  14  -5   2  169.09   14.77
 -14   5  -2  147.93   14.66
  14  -5   3   23.96   10.07
 -14   5  -3   23.08   11.28
  14  -5   4   94.26   12.61
 -14   5  -4  110.85   13.91
  14  -5   5  126.53   14.54
 -14   5  -5  118.85   14.89
  14  -5   6  330.28   23.96
 -14   5  -6  312.60   23.88
  14  -5   7   41.47   12.50
  14  -5   8    3.13   11.12
 -14   5  -8   -3.55   10.84
  14  -5   9   12.98   11.41
 -14   5  -9    2.04   10.73
  13  -5   2  919.77   49.63
 -13   5  -2  922.80   50.02
  13  -5   3   32.19   10.32
 -13   5  -3   14.47   10.06
  13  -5   4  272.36   19.74
 -13   5  -4  251.08   19.46
  13  -5   5  278.64   20.67
 -13   5  -5  251.78   19.76
  13  -5   7   20.86   12.01
 -13   5  -7   -4.99   11.99
  13  -5   8   42.82   13.08
 -13   5  -8   70.85   13.87
  13  -5   9    0.79   10.75
 -13   5  -9   29.43   11.63
  12  -5   1   82.42   10.72
 -12   5  -1   90.76   11.23
  12  -5   2  122.23   12.35
 -12   5  -2  144.90   13.70
  12  -5   3   32.91    9.92
 -12   5  -3   41.91   10.36
  12  -5   4   85.64   11.93
 -12   5  -4  103.39   13.06
  12  -5   5    9.77   10.25
 -12   5  -5    4.30   10.65
  12  -5   6  104.34   13.97
  12  -5   7  455.06   29.71
 -12   5  -7  395.98   27.32
  12  -5   8   44.42   13.18
 -12   5  -8   41.96   13.18
  12  -5   9   38.59   12.14
 -12   5  -9   23.81   12.33
  12  -5  10   17.37   10.58
 -12   5 -10    8.95   11.01
  11  -5   1  217.24   16.05
 -11   5  -1  239.22   17.06
  11  -5   2    0.88    9.09
 -11   5  -2    6.37    9.76
  11  -5   3  178.28   15.03
 -11   5  -3  175.60   15.20
  11  -5   4   -2.90    9.40
 -11   5  -4    3.87   10.02
  11  -5   5   14.03    9.86
 -11   5  -5   -1.01    9.70
  11  -5   6   25.79   10.66
 -11   5  -6   25.70   11.34
  11  -5   7  161.18   16.33
 -11   5  -7  131.99   15.77
  11  -5   8   73.34   14.03
 -11   5  -8   75.72   14.22
  11  -5   9   -4.47   11.84
 -11   5  -9   10.06   13.12
 -11   5 -10   14.48   11.55
  10  -5   0    7.51    8.72
 -10   5   0   -2.88    8.99
  10  -5   1  311.44   20.05
 -10   5  -1  247.36   17.68
  10  -5   2   -1.77    9.35
 -10   5  -2   13.48   10.93
  10  -5   3   27.18    9.95
 -10   5  -3   40.56   10.49
  10  -5   4   13.28    9.71
 -10   5  -4    9.06   10.25
  10  -5   5    9.01    9.76
  10  -5   6  -10.99    9.61
 -10   5  -6   15.22   10.97
  10  -5   7   24.32   10.93
 -10   5  -7   24.10   11.39
  10  -5   8   48.16   12.29
 -10   5  -8   14.47   12.04
  10  -5   9  657.06   39.70
 -10   5  -9  665.67   40.23
 -10   5 -10    8.33   12.06
  10  -5  11    7.44   10.62
 -10   5 -11   14.36   11.32
   9  -5   0    9.84    9.18
  -9   5   0  -16.26    9.34
   9  -5   1   88.49   11.11
  -9   5  -1   51.03   10.91
   9  -5   2    7.31    9.72
  -9   5  -2   16.87   10.85
   9  -5   3   28.69   10.40
  -9   5  -3   18.89   10.66
   9  -5   4   79.73   11.80
  -9   5  -4   67.39   11.96
   9  -5   5  121.99   13.59
   9  -5   6    1.97    9.97
  -9   5  -6  -13.33   10.30
   9  -5   7  154.21   15.62
  -9   5  -7  130.02   14.43
   9  -5   8   33.28   11.66
  -9   5  -8   34.80   12.40
   9  -5   9  111.17   14.32
  -9   5  -9  106.57   15.58
   9  -5  10   26.18   12.63
  -9   5 -10   21.67   12.96
   9  -5  11   -4.45   10.75
  -9   5 -11    8.51   11.19
   8  -5  -1   76.17    9.26
   8  -5   0   12.37    8.69
  -8   5   0    4.23   10.04
   8  -5   1   63.37   10.78
  -8   5  -1   69.64   11.51
   8  -5   2   79.55   11.79
  -8   5  -2   49.52   11.40
   8  -5   3  775.92   42.71
  -8   5  -3  791.27   43.72
   8  -5   4   27.32   11.00
   8  -5   6  219.22   17.62
  -8   5  -6  165.02   15.61
   8  -5   7 1688.60   88.31
  -8   5  -7 1872.34   97.42
   8  -5   8   18.37   10.92
  -8   5  -8   17.11   11.55
  -8   5  -9  357.84   25.47
   8  -5  10   34.57   13.35
  -8   5 -10   38.12   13.07
   8  -5  11   17.19   11.87
  -8   5 -11  -19.19   11.00
   7  -5 -12   10.70    7.43
   7  -5 -11   12.75    7.84
   7  -5  -1   46.56    8.19
  -7   5   1   63.35    9.04
   7  -5   0    7.37    8.36
  -7   5   0   -7.93    9.02
   7  -5   1   78.87   11.02
  -7   5  -1   92.41   11.94
   7  -5   2  120.36   13.06
  -7   5  -2  121.53   13.80
   7  -5   3  107.99   13.20
  -7   5  -3   82.74   13.35
   7  -5   4   81.16   12.22
   7  -5   5   60.09   11.79
  -7   5  -5   23.40   11.04
   7  -5   6   45.79   11.37
  -7   5  -6   27.03   10.97
   7  -5   7   58.46   12.02
  -7   5  -7   80.19   12.46
   7  -5   8  368.77   25.03
  -7   5  -8  359.93   24.69
   7  -5   9   10.91   10.73
  -7   5  -9   -1.44   11.55
   7  -5  10    4.71   12.41
  -7   5 -10   21.58   12.40
   7  -5  11    1.23   11.30
  -7   5 -11    6.13   11.66
   7  -5  12   27.68   11.07
  -7   5 -12    1.74   10.48
   6  -5 -12   35.14    8.36
  -6   5  12   45.53    8.18
   6  -5 -11   52.93    9.43
  -6   5  11   76.37    9.68
   6  -5 -10   53.01    9.43
  -6   5  10   34.87    8.42
   6  -5  -9  -11.89    7.14
   6  -5   0  541.82   29.62
  -6   5   0  627.18   33.85
   6  -5   1  124.44   12.32
  -6   5  -1  141.30   13.20
   6  -5   2  554.38   31.52
  -6   5  -2  636.13   35.61
   6  -5   3   27.27   11.15
  -6   5  -3    2.36    9.99
   6  -5   4   42.92   11.99
  -6   5  -4   52.86   12.69
   6  -5   5    3.73   10.66
  -6   5  -5   -4.21   11.14
   6  -5   6   64.39   11.59
  -6   5  -6   46.08   11.51
   6  -5   7   81.64   11.87
  -6   5  -7   94.77   13.05
  -6   5  -8    5.49   10.45
   6  -5   9   19.92   11.35
  -6   5  -9  -11.73   11.12
   6  -5  10   71.28   13.34
  -6   5 -10   45.80   12.98
   6  -5  11   76.61   13.80
  -6   5 -11   96.35   14.36
   6  -5  12   51.67   11.82
  -6   5 -12   57.03   12.05
   5  -5 -12    3.91    8.09
  -5   5  12    9.65    7.77
   5  -5 -11   -0.40    8.90
  -5   5  11   11.21    8.38
   5  -5  -9   -0.19    7.06
  -5   5   9   -0.27    6.79
   5  -5  -8    0.20    6.45
  -5   5   8    5.35    6.38
   5  -5  -7   23.40    6.33
  -5   5   7   28.02    6.29
   5  -5  -2 1445.54   72.34
  -5   5   2 1375.76   68.88
   5  -5  -1   -4.64    7.31
  -5   5   1  -13.80    7.54
   5  -5   0    8.00    8.36
  -5   5   0    8.62    9.33
   5  -5   1   -1.71    9.51
  -5   5  -1    4.01    9.76
   5  -5   2 1875.83   95.44
  -5   5  -2 1753.72   89.60
   5  -5   3   26.95   11.02
   5  -5   4  126.64   14.05
  -5   5  -4  113.41   14.06
   5  -5   5   22.51   10.78
  -5   5  -5   27.74   11.90
   5  -5   6    0.77   10.28
  -5   5  -6   -6.37   10.69
   5  -5   7   24.62   10.57
  -5   5  -7   28.11   10.65
  -5   5  -8    2.59   10.30
   5  -5   9    6.81   10.07
  -5   5  -9   -6.43   10.21
   5  -5  11   14.20   11.84
  -5   5 -11   11.90   11.72
   5  -5  12    5.57   10.37
  -5   5 -12   20.43   10.68
   4  -5 -12   30.93    8.78
  -4   5  12   42.45    9.08
   4  -5 -11   68.22   10.66
  -4   5  11   61.66    9.92
   4  -5 -10  149.90   13.05
  -4   5  10  127.34   11.94
   4  -5  -9    6.27    7.49
  -4   5   9    8.34    7.55
   4  -5  -8    0.76    6.88
  -4   5   8    5.74    6.80
   4  -5  -7   -0.33    6.54
  -4   5   7    5.30    6.64
   4  -5  -6  242.13   14.47
  -4   5   6  268.52   15.84
  -4   5   5   11.48    5.62
   4  -5  -4    9.86    4.38
   4  -5  -2   98.19    7.14
  -4   5   2   91.00    7.12
   4  -5  -1  182.70   12.05
  -4   5   1  198.51   12.82
   4  -5   0  371.91   21.60
  -4   5   0  415.52   23.85
   4  -5   1  199.91   14.96
  -4   5  -1  211.54   15.62
   4  -5   2   86.08   11.85
  -4   5  -2   97.07   12.47
   4  -5   3   58.00   11.34
  -4   5  -3   51.73   11.49
   4  -5   4    8.26   10.98
  -4   5  -4    1.05   10.91
   4  -5   5   41.74   11.59
  -4   5  -5   15.46   11.47
   4  -5   6  325.62   22.20
  -4   5  -6  361.68   23.91
  -4   5  -7   24.64   10.41
   4  -5   8   -5.78   10.22
  -4   5  -8   21.58   10.23
   4  -5   9   -2.21   10.55
  -4   5  -9   -3.59   10.07
   4  -5  10   98.52   13.75
  -4   5 -10  144.55   15.66
   4  -5  11   55.31   13.07
  -4   5 -11   60.01   12.90
   4  -5  12   36.56   11.49
  -4   5 -12   19.03   11.18
   3  -5 -12   26.52    8.99
  -3   5  12   18.69    8.82
   3  -5 -11   67.73   10.78
  -3   5  11   34.30    9.68
   3  -5 -10   56.09   10.11
  -3   5  10   51.13    9.36
   3  -5  -9   15.30    7.76
  -3   5   9   16.56    8.09
   3  -5  -8    9.94    7.09
  -3   5   8    5.49    7.27
   3  -5  -7   10.29    7.40
  -3   5   7    2.52    7.05
   3  -5  -6 1365.30   69.14
  -3   5   6 1366.46   69.30
   3  -5  -5  150.37   10.52
  -3   5   5  173.05   11.57
   3  -5  -4  867.21   43.84
  -3   5   4  974.08   49.10
   3  -5  -1  122.34    9.33
  -3   5   1  120.02    9.20
   3  -5   0   -9.15    8.18
  -3   5   0   -6.41    8.25
   3  -5   1  151.76   13.29
  -3   5  -1  119.32   12.18
   3  -5   2 2453.81  123.62
   3  -5   3   10.99   10.52
  -3   5  -3    2.65   10.77
   3  -5   4  849.76   45.92
  -3   5  -4  883.72   47.70
   3  -5   5  170.84   15.55
  -3   5  -5  156.07   15.21
   3  -5   6 1147.83   60.90
  -3   5  -6 1268.77   66.85
  -3   5  -7   -4.35    9.65
   3  -5   8    7.90   10.20
  -3   5  -8    8.77    9.63
   3  -5   9    4.90   10.11
  -3   5  -9   15.51    9.87
   3  -5  10   56.68   12.00
  -3   5 -10   61.31   12.32
   3  -5  11   39.03   12.36
  -3   5 -11   47.51   12.69
   3  -5  12   13.71   11.09
  -3   5 -12    5.02   10.73
   2  -5 -12   25.54    9.40
  -2   5  12   26.83    9.27
   2  -5 -11  169.91   14.93
  -2   5  11  224.80   17.10
   2  -5 -10   73.44   10.62
  -2   5  10   65.83   10.09
   2  -5  -9   85.67   10.08
  -2   5   9   65.36    9.34
   2  -5  -8    4.63    7.40
  -2   5   8    8.25    7.80
   2  -5  -7  501.58   27.68
  -2   5   7  447.62   25.22
   2  -5  -6   52.36    8.14
  -2   5   6   50.15    8.57
   2  -5  -5   13.75    6.87
  -2   5   5   29.16    7.83
  -2   5   4  207.59   12.61
   2  -5   2  248.17   17.46
   2  -5   3   79.18   12.01
  -2   5  -3   94.13   12.57
   2  -5   4  156.53   14.27
  -2   5  -4  129.55   13.91
   2  -5   5   11.77   10.78
  -2   5  -5   -0.09   11.44
   2  -5   6   37.42    9.69
  -2   5  -6   50.97   10.97
   2  -5   7  449.94   27.53
  -2   5  -7  424.24   26.28
   2  -5   8   10.28   10.21
  -2   5  -8   -1.42    9.73
   2  -5   9   73.78   11.79
  -2   5  -9   68.56   11.57
   2  -5  11  203.63   18.41
  -2   5 -11  162.58   16.69
   2  -5  12   10.73   11.15
  -2   5 -12   19.61   11.04
   1  -5 -13   84.81   11.98
  -1   5  13   53.60   10.11
   1  -5 -12   -2.38    8.92
  -1   5  12    6.42    9.42
   1  -5 -11   -3.29    9.71
  -1   5  11   30.83   10.50
   1  -5 -10  257.24   17.94
  -1   5  10  263.52   18.28
   1  -5  -9   88.48   10.32
  -1   5   9  102.66   11.00
   1  -5  -8   15.91    8.15
  -1   5   8   32.59    8.56
   1  -5  -7   11.20    7.77
  -1   5   7    2.42    7.84
   1  -5  -6   18.98    7.94
  -1   5   6   13.93    8.91
   1  -5  -5  111.96    9.90
  -1   5   5  139.55   11.40
  -1   5   4  306.78   17.58
   1  -5   4  325.39   21.69
  -1   5  -4  318.41   20.90
  -1   5  -6    2.00   10.47
   1  -5   7    4.79    9.77
  -1   5  -7   20.54   10.05
   1  -5   8   49.74   10.49
  -1   5  -8   36.62   10.51
   1  -5   9   91.50   12.68
  -1   5  -9   83.37   12.16
   1  -5  11   24.20   11.93
  -1   5 -11   20.27   11.83
   1  -5  12    4.52   10.84
  -1   5 -12   10.59   10.72
   0  -5 -13   27.35    9.52
   0   5  13   -2.67    9.25
   0  -5 -12   -6.05    9.65
   0   5  12    9.76    9.63
   0  -5 -11  723.93   40.75
   0   5  11  862.21   47.29
   0  -5 -10  -15.61    8.77
   0   5  10    9.18    9.09
   0  -5  -8   10.91    8.00
   0   5   8   13.44    8.38
   0  -5  -6    1.07    8.16
   0   5   6   26.38    9.45
   0  -5  -5  234.91   15.11
   0   5   5  262.59   16.63
   0  -5   7   49.53   11.21
   0   5  -7   42.71   10.27
   0  -5   8   -4.45    9.25
   0   5  -8    2.23    9.47
   0  -5   9 1657.20   86.16
   0   5  -9 1600.21   83.36
   0  -5  10   -1.21   10.04
   0   5 -10   -3.28    9.84
   0  -5  11  524.95   32.27
   0   5 -11  533.09   32.71
   0  -5  12   18.76   10.41
   0   5 -12    6.70   10.29
  -1  -5 -12    5.40    9.78
   1   5  12    0.12    9.92
  -1  -5 -10  259.57   18.60
   1   5  10  236.43   17.61
  -1  -5  -9  109.22   11.68
   1   5   9   86.10   11.11
  -1  -5  -8   46.12    8.93
   1   5   8   23.62    9.11
  -1  -5  -7   -0.14    8.15
   1   5   7    7.29    8.88
  -1  -5  -6   -9.08    8.49
   1   5   6   -7.75    9.00
  -1  -5  -5  119.90   11.19
   1   5   5  103.29   10.97
   1   5  -9   64.04   10.91
  -1  -5  10  148.04   14.43
   1   5 -10  168.16   15.35
  -1  -5  11    8.85   10.84
   1   5 -11    6.22   10.93
  -1  -5  12   10.59   10.43
   1   5 -12   19.14   10.48
  -2  -5 -12   14.11   10.44
   2   5  12   36.92   10.90
  -2  -5 -11  214.21   17.82
   2   5  11  227.70   18.41
  -2  -5 -10   62.58   11.19
   2   5  10   73.02   11.71
  -2  -5  -9   57.91   10.19
   2   5   9   95.55   11.79
  -2  -5  -8    1.36    8.49
   2   5   8  -14.51    8.71
  -2  -5  -6   31.24    9.40
   2   5   6   44.72   10.11
   2   5 -12   15.93   10.18
  -3  -5 -12   29.09   10.69
   3   5  12   29.77   10.80
  -3  -5 -11   83.50   13.13
   3   5  11   98.91   13.48
  -3  -5  -9   13.48    9.26
   3   5   9   15.15    9.51
  -3  -5  -8   12.18    8.84
   3   5   8   10.07    9.15
  -3  -5  -7    0.66    8.83
   3   5   7    8.23    9.28
  -3  -5  -6 1276.91   66.06
   3   5   6 1297.85   67.28
  -4  -5 -12   38.78   11.04
   4   5  12   37.57   11.08
  -4  -5 -11   42.52   11.80
   4   5  11   75.65   12.86
  -4  -5 -10   99.41   12.94
   4   5  10  104.20   13.35
  -4  -5  -9   -0.55    9.06
   4   5   9    9.89    9.41
  -4  -5  -8   20.43    9.05
   4   5   8   -1.65    8.93
  -4  -5  -7   -6.93    8.77
   4   5   7   18.40    9.36
  -5  -5 -12   31.45   10.26
   5   5  12   18.46   10.23
  -5  -5 -11   44.70   11.80
   5   5  11    8.20   11.16
  -5  -5  -9   -7.01    9.20
   5   5   9   14.30    9.62
  -5  -5  -8   24.12    9.11
   5   5   8   11.48    9.80
  -5  -5  -7   11.40    9.13
   5   5   7   27.31    9.47
  -6  -5 -12   29.20   10.12
   6   5  12   57.60   11.39
  -6  -5 -11   77.11   12.96
   6   5  11   85.12   13.16
  -6  -5  -9   12.19    9.76
   6   5   9   -9.91    9.75
  -6  -5  -8   -7.30    9.04
   6   5   8   -5.58    9.33
   6   5   7   66.64   10.97
  -7  -5 -12    7.84    9.48
   7   5  12   10.19    9.59
  -7  -5 -11   -7.70   10.55
   7   5  11   -1.36   10.52
  -7  -5 -10   -0.33   10.78
   7   5  10   11.06   10.89
  -7  -5  -9    6.69   10.55
   7   5   9    3.36   10.20
  -7  -5  -8  220.26   17.17
   7   5   8  205.26   16.65
  -8  -5 -11   18.39   10.43
   8   5  11   -2.71    9.99
  -8  -5 -10   36.41   11.76
   8   5  10   30.39   11.57
  -8  -5  -9  276.78   20.68
   8   5   9  236.66   18.84
  -8  -5  -8    7.78   10.19
   8   5   8   -0.47    9.84
  -9  -5 -11   17.56   10.35
   9   5  11    2.33    9.71
  -9  -5 -10   -1.48   11.08
   9   5  10    7.05   10.64
  -9  -5  -9   39.26   11.64
   9   5   9   28.13   11.27
 -10  -5 -11   -2.19   10.15
  10   5  11   13.92    9.52
 -10  -5 -10    8.47   10.72
  10   5  10   -4.29   10.92
 -10  -5  -9  471.92   29.90
  10   5   9  559.14   33.91
 -11  -5 -10   26.52   10.69
  11   5  10   47.60   11.40
  11   5   9    7.85   11.15
 -12  -5 -10    8.51    9.77
  12   5  10   42.12   10.65
  18  -6   3   -1.05    8.83
 -18   6  -3   12.11    9.62
  18  -6   4   -2.26    9.08
 -18   6  -4   12.80   10.00
  17  -6   2    4.49   10.13
  17  -6   3   10.08   10.48
 -17   6  -3   10.49   10.73
  17  -6   4    2.14   10.19
 -17   6  -4   10.42   10.64
  17  -6   5   28.99    9.77
 -17   6  -5    4.44   10.14
  16  -6   2   25.74   10.69
 -16   6  -2    5.21   11.52
  16  -6   3   17.20   10.83
 -16   6  -3   13.61   11.63
  16  -6   4    9.59   10.71
 -16   6  -4   27.22   12.04
  16  -6   5   14.97   10.54
 -16   6  -5   25.29   11.42
  16  -6   6   -6.48   10.04
 -16   6  -6    8.94   10.58
  16  -6   7   -9.18   10.44
 -16   6  -7    2.26   10.69
  15  -6   1    2.50    9.27
  15  -6   2   15.25   10.26
 -15   6  -2    8.63   10.84
  15  -6   3   18.69   10.49
 -15   6  -3   12.39   11.50
  15  -6   4   11.13   11.29
 -15   6  -4   27.43   11.79
  15  -6   5   14.20   11.46
 -15   6  -5   32.91   11.99
  15  -6   6  -13.73   10.61
 -15   6  -6   -3.23   11.06
  15  -6   7   20.39   10.64
 -15   6  -7   -7.99   10.72
  14  -6   1   -1.36    9.27
 -14   6  -1   11.20    9.57
  14  -6   2   33.57    9.91
 -14   6  -2   23.58   10.63
  14  -6   3    4.91    9.87
 -14   6  -3    5.00   10.79
  14  -6   4   -7.51   10.70
 -14   6  -4   -1.63   11.29
  14  -6   5    4.50   11.48
 -14   6  -5   -6.44   11.73
  14  -6   6  -10.16   11.50
 -14   6  -6    7.85   12.57
  14  -6   7    8.58   11.15
 -14   6  -7   16.14   10.54
  14  -6   8   -0.58   10.54
 -14   6  -8    1.76   11.55
  13  -6   1   22.33    9.14
 -13   6  -1   22.65    9.28
  13  -6   2   43.34    9.85
 -13   6  -2   32.13   10.33
  13  -6   3  109.35   12.71
 -13   6  -3   70.25   12.18
  13  -6   4    5.22   10.07
 -13   6  -4    6.31   10.90
  13  -6   5   23.88   11.25
 -13   6  -5   15.15   11.85
  13  -6   6   13.43   11.06
 -13   6  -6   -6.04   12.04
  13  -6   7  124.67   15.89
  13  -6   8   -2.26   11.11
 -13   6  -8    5.71   11.61
  13  -6   9   11.52   10.05
 -13   6  -9    8.15   10.98
  12  -6   0   36.83    8.54
  12  -6   1   -2.28    8.90
 -12   6  -1    5.45    8.94
  12  -6   2    8.65    8.90
 -12   6  -2   -3.11    9.49
  12  -6   3   13.20    9.20
 -12   6  -3   -1.99    9.70
  12  -6   4   12.70    9.94
 -12   6  -4   13.64   10.25
  12  -6   5   -7.73    9.98
 -12   6  -5    4.21   10.36
  12  -6   6  -13.16   10.50
 -12   6  -6    6.34   11.54
  12  -6   7   21.74   12.35
  12  -6   8   13.53   12.33
 -12   6  -8   38.90   12.61
  12  -6   9   19.39   11.27
 -12   6  -9   -4.47   11.46
 -12   6 -10    4.33   11.19
  11  -6   0    8.54    8.29
 -11   6   0    6.61    8.18
  11  -6   1    5.50    8.36
 -11   6  -1   -9.15    8.70
  11  -6   2   10.43    9.11
 -11   6  -2  -10.39    9.44
  11  -6   3   14.08    9.29
 -11   6  -3   -9.97    9.76
  11  -6   4    7.34    9.71
 -11   6  -4   -2.67    9.59
  11  -6   5    8.50    9.78
 -11   6  -5   -1.26   10.06
  11  -6   6   -7.91   10.14
  11  -6   7  -15.20   11.28
 -11   6  -7   -4.22   12.04
  11  -6   8    5.93   11.90
 -11   6  -8   14.21   12.58
  11  -6   9    6.83   11.80
 -11   6  -9   31.95   12.50
  11  -6  10   16.70   10.54
 -11   6 -10   17.53   11.64
  10  -6  -1   23.79    7.98
  10  -6   1    5.14    8.76
 -10   6  -1  -22.07    9.37
  10  -6   2   20.57    9.23
 -10   6  -2    5.28    9.78
  10  -6   3   12.90    9.58
 -10   6  -3   -1.38    9.66
  10  -6   4    3.22    9.68
 -10   6  -4    8.19   10.00
  10  -6   5    4.59   10.12
 -10   6  -5   -5.83   10.25
  10  -6   6   -2.12   10.18
  10  -6   7   18.07   10.84
 -10   6  -7   -3.16   11.46
  10  -6   8   16.72   12.48
 -10   6  -8   20.44   12.64
  10  -6   9   12.28   12.36
 -10   6  -9    6.93   12.55
  10  -6  10   15.54   11.33
 -10   6 -10   11.90   11.83
   9  -6  -1   -5.84    7.65
  -9   6   1    4.05    7.87
   9  -6   0    1.24    8.52
  -9   6   0  -10.32    9.12
   9  -6   1    4.99    9.08
  -9   6  -1   -1.27    9.72
   9  -6   2   22.28    9.63
  -9   6  -2   31.04   10.58
   9  -6   3  -15.04    9.48
  -9   6  -3    4.42   10.13
   9  -6   4   14.76    9.79
  -9   6  -4    6.42   10.06
   9  -6   5    5.61   10.12
   9  -6   6    3.47    9.86
  -9   6  -6    4.22   10.91
   9  -6   7   -8.77    9.95
  -9   6  -7  -19.40   10.80
   9  -6   8   54.02   12.51
  -9   6  -8   30.25   12.01
   9  -6   9   20.89   12.56
  -9   6  -9   -8.77   11.94
  -9   6 -10    2.64   12.42
   9  -6  11   -2.63   10.41
  -9   6 -11   14.50   10.93
   8  -6  -1   -2.21    7.43
  -8   6   1    1.20    8.68
   8  -6   0  128.27   12.01
  -8   6   0  121.41   12.16
   8  -6   1    0.48    9.52
  -8   6  -1   29.57   10.70
   8  -6   2   -7.12    9.89
  -8   6  -2   27.21   10.92
   8  -6   3   21.46   10.50
  -8   6  -3   28.19   11.56
   8  -6   4   25.39   10.55
  -8   6  -4    9.82   10.28
   8  -6   5   -2.24   10.49
   8  -6   6   -4.78   10.07
  -8   6  -6   16.96   10.70
   8  -6   7   32.18   10.85
  -8   6  -7   20.20   11.15
   8  -6   8  128.04   14.78
  -8   6  -8  140.83   15.57
   8  -6   9   14.13   12.26
  -8   6  -9    2.69   12.35
  -8   6 -10   31.91   13.35
   8  -6  11   -8.02   11.04
  -8   6 -11   12.01   11.22
   7  -6 -12   -2.38    7.97
   7  -6 -11    2.84    7.59
  -7   6  11   14.48    6.99
   7  -6 -10    1.99    7.66
   7  -6  -2    7.14    6.61
  -7   6   2    3.40    6.99
   7  -6  -1   25.35    7.73
  -7   6   1   12.84    8.45
   7  -6   0    1.09    8.66
  -7   6   0    7.61    9.33
   7  -6   1   11.16    9.86
  -7   6  -1   17.36   10.52
   7  -6   2   10.97   10.50
  -7   6  -2    1.55   11.13
   7  -6   3   14.66   10.75
  -7   6  -3    1.87   11.63
   7  -6   4   -6.75   10.64
  -7   6  -4   15.73    9.69
   7  -6   5    7.23   10.25
  -7   6  -5   13.98   10.73
   7  -6   6   17.55   10.13
  -7   6  -6    4.19   10.28
   7  -6   8   20.65   10.41
  -7   6  -8   28.38   11.37
  -7   6  -9   -1.81   11.93
   7  -6  10   11.61   12.07
  -7   6 -10    6.85   12.80
   7  -6  11   29.12   11.46
  -7   6 -11    1.23   11.08
   6  -6 -12   -2.10    7.21
  -6   6  12    0.40    6.57
   6  -6 -11   -6.88    7.98
  -6   6  11    6.88    7.85
   6  -6 -10    3.05    8.09
  -6   6  10   -0.43    7.79
   6  -6  -9   -3.05    6.85
  -6   6   9    1.35    6.61
   6  -6  -8    1.26    5.86
   6  -6  -2    5.18    5.98
  -6   6   2    5.04    6.41
   6  -6  -1    8.93    7.57
  -6   6   1    3.05    8.33
   6  -6   0   55.77    9.13
  -6   6   0   80.29   10.47
   6  -6   1   -1.48    9.45
  -6   6  -1    5.20   10.02
   6  -6   2   -1.99    9.84
  -6   6  -2    1.71   10.48
   6  -6   3    3.86   11.18
  -6   6  -3    9.16   11.33
   6  -6   4   13.84   10.79
   6  -6   5  -15.11   10.07
  -6   6  -5    2.45   10.63
   6  -6   6   10.87   10.84
  -6   6  -6    3.43   10.50
   6  -6   7    8.65   10.23
  -6   6  -7   19.98   10.77
   6  -6   8   -4.50   10.19
  -6   6  -8   11.42   10.51
  -6   6  -9   11.55   11.39
   6  -6  10    6.09   11.70
  -6   6 -10    6.18   12.44
   6  -6  11   17.97   11.82
  -6   6 -11   12.89   11.23
   6  -6  12    7.79   10.18
  -6   6 -12   -5.00    9.99
   5  -6 -12   -0.49    7.54
  -5   6  12   -9.82    7.12
   5  -6 -11  110.84   11.49
  -5   6  11   84.86   10.18
   5  -6 -10    4.08    8.36
  -5   6  10   30.71    8.21
   5  -6  -9   -1.50    7.26
  -5   6   9    0.80    6.85
   5  -6  -8    6.49    6.06
  -5   6   8   -2.37    5.97
   5  -6  -7   50.30    6.52
  -5   6   7   63.31    7.15
   5  -6  -6    5.91    4.80
  -5   6   6    6.28    5.13
   5  -6  -5   -3.74    4.17
   5  -6  -3   55.95    4.68
  -5   6   3   47.19    4.44
   5  -6  -2   25.48    5.86
  -5   6   2   22.00    5.74
   5  -6  -1  215.26   13.51
  -5   6   1  213.17   13.73
   5  -6   0    4.30    8.21
  -5   6   0   23.65    8.73
   5  -6   1  214.80   15.36
  -5   6  -1  231.19   16.47
   5  -6   2    9.49    9.87
  -5   6  -2   14.25   10.33
   5  -6   3   49.72   11.37
  -5   6  -3   35.73   11.43
   5  -6   4   25.46   11.40
   5  -6   5   26.72   10.75
  -5   6  -5    3.63   10.97
   5  -6   6   -3.05    9.54
  -5   6  -6    6.70   10.50
   5  -6   7   93.30   12.37
  -5   6  -7   64.02   11.97
   5  -6   8   -2.71    7.50
  -5   6  -8    7.06   10.80
   5  -6   9    5.90   11.00
  -5   6  -9   -5.12   11.44
   5  -6  10   24.54   12.16
  -5   6 -10   18.36   12.41
   5  -6  11  118.27   15.08
  -5   6 -11  104.01   14.40
   5  -6  12   -9.98    9.62
  -5   6 -12  -12.84   10.06
   4  -6 -12    5.98    8.12
  -4   6  12   -8.95    7.49
   4  -6 -11   22.17    9.27
  -4   6  11    0.69    8.48
   4  -6 -10    5.87    8.45
  -4   6  10    5.85    8.36
   4  -6  -9   20.10    7.65
  -4   6   9   25.74    7.36
   4  -6  -8   10.42    6.54
  -4   6   8   10.63    6.84
   4  -6  -7   62.79    7.30
  -4   6   7   54.97    7.15
   4  -6  -6   13.89    5.83
  -4   6   6   17.06    5.92
   4  -6  -5   13.07    4.70
  -4   6   5   22.54    5.35
   4  -6  -4    4.73    3.41
  -4   6   4   -0.43    3.71
   4  -6  -1    1.38    6.69
  -4   6   1   17.56    6.76
   4  -6   0   23.89    8.16
  -4   6   0    8.20    8.52
   4  -6   1   -1.50    8.78
  -4   6  -1   -1.83    9.06
   4  -6   2   11.87    9.65
  -4   6  -2    1.20   10.06
   4  -6   3   43.27   10.73
   4  -6   4   22.71   11.20
  -4   6  -4   -2.01   11.23
   4  -6   5   25.27   10.76
  -4   6  -5   15.26   11.52
   4  -6   6   13.58   10.18
  -4   6  -6   12.98   10.08
   4  -6   7   49.98   10.84
  -4   6  -7   42.88   11.19
  -4   6  -8    0.50    9.99
   4  -6   9   20.62   10.58
  -4   6  -9   49.98   11.47
   4  -6  10   -3.31   11.28
  -4   6 -10  -10.30   11.48
   4  -6  11   -5.33   11.50
  -4   6 -11    4.16   11.23
   4  -6  12   10.66   10.47
  -4   6 -12   17.69   10.79
   3  -6 -12    9.25    8.18
  -3   6  12   -1.23    8.37
   3  -6 -10    3.04    8.61
  -3   6  10   18.68    8.68
   3  -6  -9   -7.31    7.54
  -3   6   9   16.11    7.62
   3  -6  -8   -0.77    6.99
  -3   6   8   16.40    7.16
   3  -6  -7  139.32   10.66
  -3   6   7  116.07    9.92
   3  -6  -6    4.31    6.22
  -3   6   6    2.41    6.94
  -3   6   5   34.76    6.62
  -3   6   4   22.01    4.92
  -3   6   0   22.28    8.71
   3  -6   1   60.44    9.94
  -3   6  -1   56.05   10.37
   3  -6   2   35.84    9.87
  -3   6  -2   26.13   10.48
   3  -6   3   89.42   11.51
   3  -6   4   -5.55   10.47
  -3   6  -4    2.55   10.69
   3  -6   5   25.35   10.59
  -3   6  -5   18.77   11.36
   3  -6   6    4.92   10.11
  -3   6  -6    0.73   10.68
   3  -6   8   13.72   10.55
  -3   6  -8   15.93   10.36
   3  -6   9    0.41   10.11
  -3   6  -9   14.80   10.45
   3  -6  10    8.90   10.82
  -3   6 -10    5.78   11.14
   3  -6  11   15.08   12.01
  -3   6 -11   16.80   11.54
   3  -6  12   -6.58   10.16
  -3   6 -12    5.49   10.33
   2  -6 -12    7.71    8.69
  -2   6  12   10.78    8.86
   2  -6 -11    3.58    9.43
  -2   6  11   -1.84    9.40
   2  -6 -10    6.99    9.05
  -2   6  10   16.87    8.94
   2  -6  -9   -5.47    7.72
  -2   6   9   -1.48    8.25
   2  -6  -8   17.11    7.48
  -2   6   8   18.08    7.31
   2  -6  -7    7.40    7.21
  -2   6   7   14.79    7.20
   2  -6  -6  197.70   13.05
  -2   6   6  155.37   11.64
   2  -6  -5   19.82    6.55
  -2   6   5    8.91    6.83
   2  -6   3   -4.47   10.06
  -2   6  -3    0.86   10.28
   2  -6   4   26.74   10.66
  -2   6  -4    8.04   10.78
   2  -6   5    8.52   10.52
  -2   6  -5   11.11   10.84
   2  -6   6  142.00   14.21
  -2   6  -6  123.50   13.91
  -2   6  -7  -11.79    9.85
   2  -6   8    8.49   10.05
  -2   6  -8   15.08    9.84
   2  -6   9    1.80    9.76
  -2   6  -9   -2.12   10.05
   2  -6  10   -3.09   10.56
  -2   6 -10    9.64   10.86
   2  -6  11    6.18   10.98
  -2   6 -11    3.30   10.99
   2  -6  12   -1.50   10.39
  -2   6 -12    1.21   10.52
   1  -6 -12   37.40    9.98
  -1   6  12   58.30   10.50
   1  -6 -11   37.40   10.70
  -1   6  11   13.69    9.93
   1  -6 -10    9.73    9.23
  -1   6  10   13.18    9.34
   1  -6  -9   17.79    8.37
  -1   6   9    9.28    8.14
   1  -6  -8   10.21    7.58
  -1   6   8   19.62    8.09
   1  -6  -7   16.07    7.40
  -1   6   7   20.57    7.70
   1  -6  -6    7.01    7.11
  -1   6   6   11.09    7.42
   1  -6  -5   17.85    7.18
  -1   6   5   12.40    7.71
  -1   6  -5    8.29   11.69
   1  -6   6    3.69    9.94
  -1   6  -6    6.07   10.45
   1  -6   7   15.12    9.43
  -1   6  -7    8.69    9.47
   1  -6   8   12.40    9.78
  -1   6  -8    3.05    9.33
   1  -6   9    3.90    9.70
  -1   6  -9   24.84    9.94
   1  -6  10   -5.83   10.35
  -1   6 -10    1.70   10.87
   1  -6  11   39.95   11.80
  -1   6 -11   12.70   11.26
   1  -6  12   30.03   11.04
  -1   6 -12   29.06   10.97
   0  -6 -12   12.54    9.51
   0   6  12   12.04    9.32
   0  -6 -11    4.26    9.57
   0   6  11   12.99   10.18
   0  -6 -10  108.26   12.20
   0   6  10  123.50   12.59
   0  -6  -9   34.46    8.80
   0   6   9   45.22    9.28
   0  -6  -8  109.74   10.83
   0   6   8   75.50    9.90
   0  -6  -7    9.13    7.62
   0   6   7   -4.92    7.65
   0  -6  -6  153.28   11.99
   0   6   6  131.41   11.20
   0   6  -8   88.27   11.83
   0  -6   9   -0.08   10.02
   0   6  -9   24.54    9.98
   0  -6  10   49.45   11.83
   0   6 -10   48.81   11.29
   0  -6  11    7.20   11.20
   0   6 -11    9.84   10.94
   0  -6  12    9.13   10.71
   0   6 -12   13.68   10.23
  -1  -6 -12   30.40   10.12
   1   6  12   47.29   10.41
  -1  -6 -11   49.44   11.15
   1   6  11   28.54   10.61
  -1  -6 -10   10.35    9.41
   1   6  10   20.05    9.55
  -1  -6  -9   13.77    8.52
   1   6   9    8.21    8.91
  -1  -6  -8   16.12    8.09
   1   6   8   13.21    8.29
  -1  -6  -7   16.14    7.97
   1   6   7   16.32    8.27
  -1  -6  -6   -1.27    8.20
   1   6   6    3.97    8.54
   1   6 -10   -6.04    9.73
  -1  -6  11  -13.49   10.42
   1   6 -11   25.28   11.20
  -1  -6  12   30.67   10.84
   1   6 -12   25.32   10.64
  -2  -6 -12    8.93    9.36
   2   6  12  -10.30    9.38
  -2  -6 -11   22.25   10.99
   2   6  11   12.12   10.93
  -2  -6 -10   14.23    9.54
   2   6  10    9.76    9.66
  -2  -6  -9    3.97    8.61
   2   6   9   -8.94    8.82
  -2  -6  -8    3.91    8.06
   2   6   8   23.47    8.85
  -2  -6  -7   12.11    8.16
   2   6   7   10.00    8.59
  -3  -6 -12  -12.91    9.51
   3   6  12   -4.44    9.49
  -3  -6 -11   23.61   11.07
   3   6  11   18.78   10.93
  -3  -6 -10   -4.99    9.91
   3   6  10    9.61   10.15
  -3  -6  -9    6.33    8.82
   3   6   9  -11.16    9.50
  -3  -6  -8    8.84    8.64
   3   6   8   15.16    8.98
  -3  -6  -7   94.18   10.77
   3   6   7  101.18   11.22
  -4  -6 -12    7.25    9.83
   4   6  12   -7.63    9.42
  -4  -6 -11   19.27   10.62
   4   6  11   -9.48   10.75
  -4  -6 -10    7.29   10.18
   4   6  10   10.26   10.23
  -4  -6  -9   18.71    9.49
   4   6   9   17.37    9.52
  -4  -6  -8    7.40    8.77
   4   6   8    8.99    8.97
   4   6   7   79.23   10.71
  -5  -6 -12   14.54    9.52
   5   6  12   -2.62    9.48
  -5  -6 -11  114.97   14.04
   5   6  11  120.83   14.30
  -5  -6 -10    6.59   10.40
   5   6  10   -0.35   10.25
  -5  -6  -9   26.70    9.83
   5   6   9    0.94    9.62
  -5  -6  -8  -10.40    8.48
   5   6   8    8.40    9.15
  -6  -6 -12   -9.08    8.82
   6   6  12   -1.58    9.80
  -6  -6 -11   29.84   10.71
   6   6  11   12.33   10.98
  -6  -6 -10    5.59   10.65
   6   6  10    9.08   10.71
  -6  -6  -9   -0.53    9.68
   6   6   9    8.38   10.02
  -6  -6  -8    7.63    9.86
   6   6   8   18.60    9.42
  -7  -6 -11   16.56   10.20
   7   6  11   16.79   10.00
  -7  -6 -10    2.73   11.29
   7   6  10   32.00   11.35
  -7  -6  -9   11.93   10.55
   7   6   9   19.68   10.28
  -8  -6 -11   19.39   10.13
   8   6  11   -6.01    9.42
  -8  -6 -10   52.27   12.40
   8   6  10   66.93   12.43
  -8  -6  -9   10.51   10.68
   8   6   9    8.04   10.68
  -9  -6 -11   13.22   10.00
   9   6  11   -4.65    9.45
  -9  -6 -10   -2.63   10.90
   9   6  10    8.06   10.62
   9   6   9    4.41   10.98
 -10  -6 -10   10.00   10.20
  10   6  10   30.61   10.55
  11   6  10   -5.14    9.76
  18  -7   2    4.36    8.87
 -18   7  -2    6.75    9.51
  18  -7   3   20.06    9.08
 -18   7  -3   14.42   10.00
  17  -7   1   15.83    9.72
  17  -7   2    1.42    9.69
 -17   7  -2    4.80   10.36
  17  -7   3   57.26   11.18
 -17   7  -3   62.62   12.09
  17  -7   4    9.37    9.29
 -17   7  -4   14.12    9.92
  17  -7   5   39.44   10.32
 -17   7  -5   42.99   11.11
  16  -7   1   92.37   12.22
 -16   7  -1   71.11   12.27
  16  -7   2   15.29   10.35
 -16   7  -2    0.42   10.97
  16  -7   3   -1.26   10.39
 -16   7  -3   -4.92   11.19
  16  -7   4    6.58   10.32
 -16   7  -4  -10.47   10.85
  16  -7   5   -1.67    9.90
 -16   7  -5   -0.40   10.43
  16  -7   6   14.99    9.70
 -16   7  -6   13.20   10.04
  15  -7   1   -6.29    9.82
 -15   7  -1   -9.84   10.20
  15  -7   2   19.61   10.33
 -15   7  -2    8.33   11.11
  15  -7   3   24.92   10.73
 -15   7  -3    8.88   11.47
  15  -7   4   19.98   10.94
 -15   7  -4   28.52   11.86
  15  -7   5   -1.93   11.00
 -15   7  -5   -8.43   11.94
  15  -7   6    3.61   10.70
 -15   7  -6   -1.85   10.94
  15  -7   7   -2.78   10.39
 -15   7  -7    2.41   10.71
  14  -7   0   67.59   10.36
  14  -7   1   20.79    9.44
 -14   7  -1   17.37    9.98
  14  -7   2   -1.64    9.25
 -14   7  -2   -4.19   10.09
  14  -7   3   23.17   10.42
 -14   7  -3   -8.20   10.80
  14  -7   4   27.70   11.56
 -14   7  -4   31.28   12.02
  14  -7   5   22.68   11.22
 -14   7  -5   11.50   11.77
  14  -7   6   26.10   11.27
 -14   7  -6   17.76   12.49
  14  -7   7   31.26   11.47
 -14   7  -7   -2.79   11.41
  14  -7   8   -3.51    9.98
  13  -7   0    3.44    8.02
 -13   7   0   11.46    8.64
  13  -7   1   -4.36    8.61
 -13   7  -1    8.54    9.34
  13  -7   2   32.16    9.66
 -13   7  -2   20.55   10.45
  13  -7   3    4.66    9.83
 -13   7  -3   18.60   10.78
  13  -7   4  121.88   13.83
 -13   7  -4  118.04   14.53
  13  -7   5   -0.62   10.52
 -13   7  -5    0.63   11.25
  13  -7   6    4.24   11.76
 -13   7  -6    0.93   11.94
  13  -7   7   10.21   11.64
 -13   7  -7   12.82   12.26
  13  -7   8   -0.31   10.57
  13  -7   9    7.68   10.09
 -13   7  -9   -4.85   10.62
  12  -7  -1    0.26    7.41
  12  -7   0  341.21   21.12
 -12   7   0  276.55   18.34
  12  -7   1   -5.43    8.26
 -12   7  -1    7.13    9.13
  12  -7   2   76.50   10.91
 -12   7  -2   70.72   11.08
  12  -7   3   12.40    9.78
 -12   7  -3   14.09    9.97
  12  -7   4   43.01   10.76
 -12   7  -4   35.63   11.15
  12  -7   5   -3.22   10.22
 -12   7  -5  -10.64   10.52
  12  -7   6   44.84   12.47
 -12   7  -6   61.73   13.13
  12  -7   7   10.97   11.68
  12  -7   8   62.43   13.53
 -12   7  -8   78.22   14.21
  12  -7   9   10.66   10.41
 -12   7  -9   -3.52   11.41
  11  -7  -1    0.01    7.71
 -11   7   1    2.59    7.49
  11  -7   0   -7.07    7.87
 -11   7   0   16.70    8.33
  11  -7   1    9.18    8.63
 -11   7  -1    0.26    8.80
  11  -7   2   28.20    9.14
 -11   7  -2   15.50    9.38
  11  -7   3   -1.29    9.18
 -11   7  -3   24.85   10.45
  11  -7   4    2.78    9.62
 -11   7  -4   -9.02   10.01
  11  -7   5   16.61    9.94
 -11   7  -5   39.23   11.18
  11  -7   6    6.15   10.25
 -11   7  -6    3.59   10.93
  11  -7   7   -2.34   11.76
  11  -7   8   10.23   12.48
 -11   7  -8   21.72   12.55
  11  -7   9    9.01   11.19
 -11   7  -9   -9.08   11.70
  11  -7  10   20.01   10.77
 -11   7 -10   21.40   11.00
  10  -7  -1   18.22    7.50
 -10   7   1   14.04    7.70
  10  -7   0   27.89    8.36
 -10   7   0    4.17    8.45
  10  -7   1   18.64    8.73
 -10   7  -1   23.55    8.88
  10  -7   2    1.69    8.99
 -10   7  -2    2.10    9.23
  10  -7   3    2.79    9.63
 -10   7  -3   14.32   10.08
  10  -7   4   -8.37    9.49
 -10   7  -4    7.66   10.16
  10  -7   5   -9.20    9.80
 -10   7  -5   -1.52   10.11
  10  -7   6  -14.64    9.76
 -10   7  -6   -1.87    9.44
  10  -7   7   18.17   11.56
 -10   7  -7   12.82   11.91
  10  -7   8   26.13   12.07
 -10   7  -8   -3.31   12.47
  10  -7   9    8.49   11.77
 -10   7  -9   15.20   12.36
  10  -7  10   -3.63   11.01
 -10   7 -10    7.07   11.00
   9  -7  -2    5.04    6.55
  -9   7   2   -2.24    6.61
   9  -7  -1   77.21    8.98
  -9   7   1   76.22    9.35
   9  -7   0    3.09    7.95
  -9   7   0    4.73    8.75
   9  -7   1   86.37   10.98
  -9   7  -1   59.53   10.45
   9  -7   2   11.80    9.15
  -9   7  -2    8.33    9.75
   9  -7   3  182.93   15.44
  -9   7  -3  169.32   15.27
   9  -7   4   14.04    9.72
  -9   7  -4   -0.17   10.05
   9  -7   5  267.83   19.49
  -9   7  -5  320.04   22.19
   9  -7   6   -8.27   10.02
   9  -7   7   63.47   12.06
  -9   7  -7   62.57   12.98
   9  -7   8    4.22   12.14
  -9   7  -8   15.05   12.44
   9  -7   9   -9.85   11.97
  -9   7  -9   12.61   12.30
   9  -7  10    1.72   10.78
  -9   7 -10   10.30   11.29
  -9   7 -11   66.31   12.98
   8  -7 -11    4.30    6.25
   8  -7  -2    3.48    6.30
  -8   7   2   13.30    6.85
   8  -7  -1   45.98    8.11
  -8   7   1   25.60    8.37
   8  -7   0   31.41    8.70
  -8   7   0   25.93    9.40
   8  -7   1   59.59   10.28
  -8   7  -1   48.77   10.61
   8  -7   2    0.22    9.48
  -8   7  -2    5.36   10.16
   8  -7   3    6.09    9.66
  -8   7  -3   24.24   10.94
   8  -7   4   27.39   10.05
  -8   7  -4   16.32   10.16
   8  -7   5  108.91   13.15
  -8   7  -5   97.34   12.87
   8  -7   6    2.64    9.63
  -8   7  -6   13.73   10.52
   8  -7   7   28.15   10.36
  -8   7  -7   28.00   11.39
   8  -7   8    2.95   11.15
  -8   7  -8    5.00   11.57
   8  -7   9   32.50   12.70
  -8   7  -9   70.93   13.98
   8  -7  10    7.14    7.90
  -8   7 -10   -1.24   12.36
   8  -7  11    8.22    9.94
  -8   7 -11   22.08   10.55
   7  -7 -11   23.89    7.12
  -7   7  11   10.36    6.55
   7  -7 -10    0.93    7.35
  -7   7  10   19.18    7.18
   7  -7  -9    3.74    6.68
   7  -7  -3   20.20    5.15
  -7   7   3   26.38    5.37
   7  -7  -2    7.50    6.30
  -7   7   2   13.40    6.99
   7  -7  -1   99.65    9.91
  -7   7   1  138.86   11.86
   7  -7   0   -0.49    8.79
  -7   7   0  -17.63    9.05
   7  -7   1   95.73   11.48
  -7   7  -1   96.84   12.21
   7  -7   2   14.08   10.05
  -7   7  -2    7.19   10.62
   7  -7   3   23.76   10.05
  -7   7  -3   33.14   11.07
   7  -7   4   14.59    9.77
  -7   7  -4   14.82   10.51
   7  -7   5  140.13   14.29
   7  -7   6   23.06   10.51
  -7   7  -6   26.53   10.78
   7  -7   7    7.50   10.02
  -7   7  -7   -6.90   10.78
   7  -7   8    5.02   10.27
  -7   7  -8   -4.92   10.47
   7  -7   9    5.55   11.65
  -7   7  -9  -14.82   12.19
  -7   7 -10   -8.62   12.32
   7  -7  11   -4.13   10.44
  -7   7 -11   -6.97   10.83
  -6   7  12    0.56    7.54
   6  -7 -11    3.09    7.55
  -6   7  11   -8.80    7.12
   6  -7 -10   13.21    7.73
  -6   7  10   19.63    7.62
   6  -7  -9    0.45    6.71
  -6   7   9   13.97    7.07
   6  -7  -8   25.41    6.02
  -6   7   8   33.67    6.38
   6  -7  -7    8.18    4.80
  -6   7   7   15.92    5.23
   6  -7  -3   15.83    4.61
  -6   7   3    4.48    4.78
   6  -7  -2  121.41    9.23
  -6   7   2  112.35    9.38
   6  -7  -1    2.12    7.20
  -6   7   1    9.76    7.87
   6  -7   0   17.42    8.44
  -6   7   0   20.15    9.23
   6  -7   1   11.27    9.18
  -6   7  -1    3.41    9.80
   6  -7   2   73.68   11.47
  -6   7  -2  118.50   13.37
   6  -7   3   -0.72   10.59
  -6   7  -3    6.97   11.06
   6  -7   4   10.76   10.36
  -6   7  -4    9.04   10.43
   6  -7   5   18.10   10.06
   6  -7   6    1.50    9.93
  -6   7  -6    0.24   10.44
   6  -7   7   16.60   10.08
  -6   7  -7   24.48   10.84
   6  -7   8   16.37   10.64
  -6   7  -8   41.95   11.23
   6  -7   9   11.52   10.42
  -6   7  -9    9.71   11.55
   6  -7  10   17.49   12.63
  -6   7 -10   11.05   12.23
   6  -7  11    2.65   10.99
  -6   7 -11   -1.74   11.30
   5  -7 -12    9.36    7.50
  -5   7  12   10.75    7.27
   5  -7 -11    5.84    8.20
  -5   7  11   13.49    8.01
   5  -7 -10   19.53    8.14
  -5   7  10   -2.65    8.14
   5  -7  -9    2.67    6.84
  -5   7   9    0.30    6.97
   5  -7  -8   71.38    7.55
  -5   7   8   66.61    7.84
   5  -7  -7   20.35    5.44
  -5   7   7    7.57    5.51
  -5   7   6   27.55    5.04
   5  -7  -5   25.71    3.79
  -5   7   5   29.86    3.91
   5  -7  -3   34.69    4.30
  -5   7   3   45.99    4.73
   5  -7  -2   35.41    5.90
  -5   7   2   46.33    6.61
   5  -7  -1   11.70    7.04
  -5   7   1   18.92    7.64
   5  -7   0   17.06    8.14
  -5   7   0   -3.34    8.41
   5  -7   1    3.51    8.87
  -5   7  -1   32.20   10.00
   5  -7   2   42.10   10.27
  -5   7  -2   44.45   10.86
   5  -7   3   37.18   10.97
  -5   7  -3   69.99   12.39
   5  -7   4   27.70   10.62
   5  -7   5   15.33   10.19
  -5   7  -5   24.21   10.73
   5  -7   6   30.11   10.66
  -5   7  -6   31.97   10.40
   5  -7   8   77.86   12.22
  -5   7  -8   82.98   12.54
  -5   7  -9   -7.41   10.83
   5  -7  10    8.01   11.84
  -5   7 -10    1.14   12.32
   5  -7  11   21.03   11.43
  -5   7 -11   15.62   12.08
   5  -7  12    7.01   10.18
  -5   7 -12   12.89   10.09
   4  -7 -12    7.43    7.76
  -4   7  12   10.02    7.51
   4  -7 -11    4.74    8.49
  -4   7  11    3.72    8.07
   4  -7  -9   -8.34    7.28
  -4   7   9   10.26    7.25
   4  -7  -8  236.89   14.79
  -4   7   8  233.40   14.59
   4  -7  -7    8.94    5.72
  -4   7   7    5.55    6.19
  -4   7   6  125.48    8.94
   4  -7  -5   -7.14    4.45
  -4   7   5    7.08    4.57
   4  -7   0  654.62   34.67
  -4   7   0  602.75   32.33
   4  -7   1   26.26    9.19
  -4   7  -1   27.77    9.93
   4  -7   2  547.63   30.89
  -4   7  -2  537.86   30.49
   4  -7   3   -6.33   10.35
  -4   7  -3   -4.30   10.25
   4  -7   4    4.63   10.23
   4  -7   5   -9.70   10.06
  -4   7  -5   10.92   10.70
   4  -7   6  111.05   13.18
  -4   7  -6  118.16   13.55
   4  -7   7    4.34    9.90
  -4   7  -7    5.69   10.06
   4  -7   8  172.81   15.80
  -4   7  -8  186.07   16.48
   4  -7   9    7.40   10.57
  -4   7  -9    8.69   11.12
   4  -7  10  155.60   16.51
  -4   7 -10  163.39   17.06
   4  -7  12  -20.92    9.70
  -4   7 -12   10.78   10.22
   3  -7 -12    8.91    8.21
  -3   7  12   -1.05    7.64
   3  -7 -11   10.97    9.00
  -3   7  11   23.47    8.99
   3  -7 -10   11.34    8.85
  -3   7  10   22.12    8.85
   3  -7  -9   19.19    7.86
  -3   7   9   -1.90    7.23
   3  -7  -7   23.88    6.47
  -3   7   7    5.76    6.33
   3  -7  -6   27.84    5.94
  -3   7   6   35.09    6.35
  -3   7   5   25.12    5.62
   3  -7   2   50.77   10.26
  -3   7  -2   69.78   10.95
   3  -7   3   20.20   10.73
  -3   7  -3   17.19    8.07
   3  -7   5    6.34   10.26
  -3   7  -5  -13.54   10.72
   3  -7   6   66.78   11.12
  -3   7  -6   34.39   10.68
   3  -7   7   21.46    9.65
  -3   7  -7   16.27   10.40
  -3   7  -8    5.28   10.12
   3  -7   9    5.72   10.21
  -3   7  -9    1.44   10.51
   3  -7  10    7.69   11.54
  -3   7 -10    0.10   11.26
   3  -7  11   43.05   12.15
  -3   7 -11   15.56   11.33
   3  -7  12   -8.90    9.91
  -3   7 -12    4.37   10.36
   2  -7 -12    1.76    8.13
  -2   7  12  -11.34    8.02
   2  -7 -11   -7.07    9.05
  -2   7  11   21.03    9.45
   2  -7 -10   -0.55    8.61
  -2   7  10    2.69    8.64
   2  -7  -9    5.55    7.77
  -2   7   9    5.74    7.52
   2  -7  -8   36.83    7.72
  -2   7   8    9.98    7.37
   2  -7  -7    0.70    6.49
  -2   7   7    8.18    6.83
   2  -7  -6    5.99    6.35
  -2   7   6   -0.21    6.31
  -2   7  -4   17.25   11.14
   2  -7   5    9.44   10.02
  -2   7  -5   10.45   10.95
   2  -7   6   11.79    9.87
  -2   7  -6  -12.58   10.12
   2  -7   7    5.24    9.76
  -2   7  -7    1.15    9.65
  -2   7  -8   24.42   10.30
   2  -7   9    8.30    9.99
  -2   7  -9   -0.03    9.89
   2  -7  10    6.12   11.07
  -2   7 -10    5.55   10.84
   2  -7  11    6.80   11.55
  -2   7 -11    2.36   11.20
   2  -7  12    0.74    9.68
  -2   7 -12  -10.16   10.30
   1  -7 -12   -5.23    8.50
  -1   7  12  -10.48    8.55
   1  -7 -11   37.70   10.25
  -1   7  11   56.65   10.79
   1  -7 -10    8.88    9.28
  -1   7  10    6.29    8.95
   1  -7  -9    8.75    7.93
  -1   7   9   11.21    8.54
   1  -7  -8    5.58    7.07
  -1   7   8   16.68    7.68
   1  -7  -7   65.04    8.21
  -1   7   7   58.29    8.18
  -1   7  -7   35.41   10.13
   1  -7   8   13.07    9.86
  -1   7  -8   20.56    9.82
   1  -7   9    9.57   10.12
  -1   7  -9   14.33   10.30
   1  -7  10    2.36   10.36
  -1   7 -10   -0.03   10.86
   1  -7  11   47.79   12.05
  -1   7 -11   46.90   12.06
   1  -7  12    6.97    9.87
  -1   7 -12   -2.41    9.48
   0  -7 -12    2.02    8.82
   0   7  12   -8.30    8.37
   0  -7 -11   22.89   10.00
   0   7  11   38.67   10.51
   0  -7 -10    5.38    9.26
   0   7  10   -4.23    9.58
   0  -7  -9   14.71    8.19
   0   7   9    3.72    8.27
   0  -7  -8  -10.49    7.31
   0   7   8   13.65    8.12
   0  -7  -7  138.86   11.30
   0   7   7  142.11   11.56
   0   7  -9   -4.09    9.70
   0  -7  10    1.04   10.71
   0   7 -10  -13.22   10.48
   0  -7  11    8.04   10.71
   0   7 -11    1.28   10.98
   0  -7  12   -8.87    9.56
   0   7 -12    3.99    9.77
  -1  -7 -12   -1.27    8.69
   1   7  12   12.76    9.04
  -1  -7 -11   46.35   10.64
   1   7  11   62.12   11.44
  -1  -7 -10    0.12    9.36
   1   7  10    4.26    9.56
  -1  -7  -9   13.58    8.64
   1   7   9   40.14    9.09
  -1  -7  -8   26.55    7.94
   1   7   8   15.40    7.97
  -1  -7  -7   66.78    9.19
   1   7   7   42.96    8.57
   1   7 -12   -1.30    9.66
  -2  -7 -12    5.02    8.87
   2   7  12   -7.19    8.86
  -2  -7 -11   10.72    9.84
   2   7  11   19.14   10.16
  -2  -7 -10   16.41    9.47
   2   7  10    2.24    9.83
  -2  -7  -9   21.64    8.95
   2   7   9   14.85    8.85
  -2  -7  -8    3.54    8.04
   2   7   8   13.18    8.41
   2   7   7   -5.26    8.26
  -3  -7 -12   -5.43    8.71
   3   7  12   -5.98    9.05
  -3  -7 -11   35.43   10.91
   3   7  11   26.08   10.68
  -3  -7 -10   14.34   10.08
   3   7  10   17.25   10.32
  -3  -7  -9   11.00    9.00
   3   7   9   12.27    8.93
  -3  -7  -8    9.21    8.35
   3   7   8   18.06    8.84
  -4  -7 -12   -0.45    8.97
   4   7  12    5.64    9.32
  -4  -7 -11    4.50   10.16
   4   7  11   -5.50   10.54
  -4  -7 -10  125.71   13.66
   4   7  10  110.89   12.94
  -4  -7  -9  -13.73    9.12
   4   7   9  -10.51    9.16
   4   7   8  180.37   14.64
  -5  -7 -12   -3.59    9.27
   5   7  12   23.68    9.71
  -5  -7 -11   21.32   10.19
   5   7  11    6.93   10.23
  -5  -7 -10   14.84   10.97
   5   7  10   11.98   10.29
  -5  -7  -9   -1.55    9.56
   5   7   9   -7.27    9.21
  -6  -7 -11    6.58   10.04
   6   7  11   -8.47    9.50
  -6  -7 -10   11.15   10.62
   6   7  10   -9.80   10.66
  -6  -7  -9    6.75    9.79
   6   7   9   29.29   10.47
  -7  -7 -11   -1.36    9.80
   7   7  11    5.08    9.70
  -7  -7 -10    7.12   10.82
   7   7  10   19.76   11.16
   7   7   9   -5.09    9.95
  -8  -7 -11   16.25    9.50
   8   7  11    8.35    9.18
  -8  -7 -10   12.41   10.89
   8   7  10   13.19   10.80
  -9  -7 -11   31.11   10.82
   9   7  11   24.82   10.34
   9   7  10  -15.16   10.02
  18  -8   1    3.85    8.30
 -18   8  -1   -3.29    8.76
  18  -8   2   36.10    9.37
 -18   8  -2   25.31   10.13
  17  -8   1   -5.50    9.19
 -17   8  -1   -3.57    9.76
  17  -8   2   37.64   10.02
 -17   8  -2   32.55   10.72
  17  -8   3   41.63   10.33
 -17   8  -3   58.74   11.46
  17  -8   4  165.25   15.26
 -17   8  -4  135.13   14.39
  16  -8   0   19.36    9.47
  16  -8   1   79.66   11.64
 -16   8  -1   72.06   12.25
  16  -8   2   30.22   10.43
 -16   8  -2   10.91   10.99
  16  -8   3    3.90   10.39
 -16   8  -3   26.75   11.15
  16  -8   4   46.76   11.20
 -16   8  -4   28.95   11.34
  16  -8   5   10.83    9.63
 -16   8  -5    6.52   10.13
  16  -8   6    1.91    9.29
 -16   8  -6   25.38   10.62
  15  -8   0   10.48    9.19
 -15   8   0    3.91   10.07
  15  -8   1  101.14   12.42
 -15   8  -1   70.07   12.16
  15  -8   2    4.99    9.87
 -15   8  -2    5.93   11.41
  15  -8   3   27.38   11.30
 -15   8  -3    1.72   11.77
  15  -8   4   -0.28   11.02
 -15   8  -4    5.58   11.73
  15  -8   6   10.23   10.22
 -15   8  -6    7.45   10.97
  15  -8   7    0.63   10.35
 -15   8  -7   -1.10   10.73
  14  -8  -1    8.13    8.57
  14  -8   0    1.92    9.09
 -14   8   0    8.52    9.08
  14  -8   1   17.30    9.62
 -14   8  -1    0.22   10.28
  14  -8   2   33.86   10.27
 -14   8  -2   33.28   11.27
  14  -8   3  351.79   23.71
 -14   8  -3  337.72   23.89
  14  -8   4   -2.95   10.69
 -14   8  -4  -11.35   11.71
  14  -8   5  184.91   17.71
 -14   8  -5  248.41   20.76
  14  -8   6   -7.08   11.41
 -14   8  -6    1.88   11.70
  14  -8   7    1.51   10.28
 -14   8  -7   11.47   11.43
 -14   8  -8    4.45   11.16
  13  -8   0   18.30    8.69
 -13   8   0   12.94    9.09
  13  -8   1  164.21   14.07
 -13   8  -1  172.12   14.94
  13  -8   2   89.93   11.64
 -13   8  -2   74.85   11.86
  13  -8   3  267.59   19.40
 -13   8  -3  238.75   18.90
  13  -8   5   12.65   11.40
 -13   8  -5    6.45   12.20
  13  -8   6   41.25   12.25
 -13   8  -6   32.46   12.78
  13  -8   7   12.80   10.94
 -13   8  -7   14.41   12.02
  13  -8   8   11.20   10.40
 -13   8  -8   -3.52    8.32
  12  -8  -2  150.95   11.90
  12  -8   0   30.13    8.49
 -12   8   0   51.52    9.34
  12  -8   1  215.49   15.93
 -12   8  -1  253.17   17.98
  12  -8   3  144.21   14.16
 -12   8  -3  161.65   15.48
  12  -8   4  160.60   15.21
 -12   8  -4  148.97   15.72
  12  -8   5  114.19   14.07
 -12   8  -5  153.04   16.13
  12  -8   6    3.99   11.50
 -12   8  -6   20.06   12.51
  12  -8   7   50.56   13.16
 -12   8  -7   68.30   14.21
  12  -8   8   31.52   11.66
  12  -8   9  157.58   16.11
 -12   8  -9  136.99   15.98
  11  -8  -2   65.94    8.42
 -11   8   2   69.51    8.40
  11  -8  -1   14.04    7.33
 -11   8   1    8.71    7.51
  11  -8   0    4.73    7.86
 -11   8   0   13.01    8.33
  11  -8   1    8.57    8.50
 -11   8  -1   -0.67    8.54
  11  -8   2   90.59   11.36
 -11   8  -2   89.99   11.72
  11  -8   3   15.77    9.44
 -11   8  -3   10.82    9.93
  11  -8   4   11.46   10.40
 -11   8  -4   35.52   11.05
  11  -8   5   11.46   10.44
 -11   8  -5   13.65   10.91
  11  -8   6   82.38   13.25
 -11   8  -6   89.40   14.09
  11  -8   7    1.05   11.47
 -11   8  -7   22.54   12.27
  11  -8   8   36.16   12.63
 -11   8  -8   30.55   13.00
  11  -8   9    4.40   11.07
 -11   8  -9   29.79   11.97
  10  -8  -2    1.38    6.56
 -10   8   2    5.68    6.66
  10  -8  -1   17.64    7.09
 -10   8   1    8.45    7.40
  10  -8   0    6.92    7.83
 -10   8   0   13.84    8.44
  10  -8   1   31.39    8.82
 -10   8  -1   13.16    8.59
  10  -8   2    2.55    8.86
 -10   8  -2   12.82    9.68
  10  -8   3    3.91    9.01
 -10   8  -3   -1.85    9.91
  10  -8   4   28.17   10.02
 -10   8  -4   42.78   10.85
  10  -8   5    3.37    9.51
 -10   8  -5   29.52   10.80
  10  -8   6  143.39   15.34
 -10   8  -6  118.04   14.43
  10  -8   7    7.77   11.68
  10  -8   8    6.43   12.42
 -10   8  -8    6.29   12.20
  10  -8   9  -13.59   11.19
 -10   8  -9  -12.69   11.64
  10  -8  10    2.30   10.72
 -10   8 -10   35.42   11.19
   9  -8  -3   15.91    5.71
  -9   8   3   11.18    5.70
   9  -8  -2   48.65    7.12
  -9   8   2   56.66    7.52
   9  -8  -1   -4.69    7.38
  -9   8   1   10.29    7.34
   9  -8   0    4.99    8.21
  -9   8   0   -8.94    8.35
   9  -8   1   -6.66    8.55
  -9   8  -1    1.07    8.68
   9  -8   2   48.76   10.23
  -9   8  -2   85.44   11.36
   9  -8   3    9.54    9.48
  -9   8  -3   43.98   10.52
   9  -8   5   20.58    9.72
  -9   8  -5   23.38   10.43
   9  -8   6   90.78   12.54
  -9   8  -6   81.63   13.20
   9  -8   7    6.97   11.43
   9  -8   8  236.31   19.91
  -9   8  -8  212.12   19.43
   9  -8   9    1.38   11.94
  -9   8  -9   24.00   12.76
   9  -8  10   35.14   11.96
  -9   8 -10   50.61   12.71
   8  -8 -11    0.77    6.01
   8  -8 -10    9.11    6.41
   8  -8  -3  130.02    9.13
  -8   8   3  111.08    8.55
   8  -8  -2   24.63    6.76
  -8   8   2   32.17    7.01
   8  -8  -1   34.52    7.85
  -8   8   1   22.25    7.87
   8  -8   0  583.91   31.97
  -8   8   0  576.01   31.81
   8  -8   1   14.22    8.90
  -8   8  -1   36.39    9.66
   8  -8   2   44.01   10.15
  -8   8  -2   21.46    9.93
   8  -8   3  111.55   12.52
  -8   8  -3  138.62   14.04
   8  -8   4  152.35   14.26
  -8   8  -4  202.12   16.55
   8  -8   5  213.17   17.00
  -8   8  -5  233.64   18.42
   8  -8   6  131.06   13.99
   8  -8   7   43.84   11.23
  -8   8  -7   44.26   12.26
   8  -8   8   71.54   13.21
  -8   8  -8   94.29   14.79
   8  -8   9  -13.79   12.30
  -8   8  -9    2.31   12.26
   8  -8  10   26.75   11.78
  -8   8 -10   17.80   11.96
  -8   8 -11   36.54   11.76
   7  -8 -11    6.22    6.35
  -7   8  11   -8.86    5.95
   7  -8 -10  164.79   12.00
  -7   8  10  133.97   10.76
   7  -8  -9   17.00    6.84
  -7   8   9   16.25    6.95
   7  -8  -8   15.39    5.41
   7  -8  -4  151.88    8.75
   7  -8  -3  298.18   16.43
  -7   8   3  269.69   15.16
   7  -8  -2   34.06    6.56
  -7   8   2   29.34    7.11
   7  -8  -1  183.28   12.84
  -7   8   1  193.17   13.79
   7  -8   0   -4.41    7.99
  -7   8   0    6.23    8.63
   7  -8   2   58.21   10.26
  -7   8  -2   32.60   10.13
   7  -8   3  303.88   20.32
  -7   8  -3  242.24   18.14
   7  -8   4  225.73   17.10
  -7   8  -4  201.89   16.51
   7  -8   5   41.95   10.50
  -7   8  -5   71.43   11.89
   7  -8   6    9.05    9.54
   7  -8   7   -0.37    9.61
  -7   8  -7    2.29   10.87
   7  -8   8   32.03   11.68
  -7   8  -8   33.66   11.87
   7  -8   9   27.63   12.01
  -7   8  -9   25.83   12.58
   7  -8  10  134.67   15.78
  -7   8 -10  162.58   17.84
   7  -8  11   19.70   10.04
  -7   8 -11   11.20   10.84
   6  -8 -11   84.21    9.28
  -6   8  11   63.04    8.47
   6  -8 -10   15.62    7.36
  -6   8  10   11.12    7.45
   6  -8  -9  207.93   13.73
  -6   8   9  200.96   13.43
   6  -8  -8   39.46    6.16
  -6   8   8   27.40    6.20
  -6   8   7  412.15   21.89
   6  -8  -6   14.86    3.61
  -6   8   6   15.34    3.83
   6  -8  -4   32.91    3.21
  -6   8   4   34.48    3.51
   6  -8  -3  179.33   10.45
  -6   8   3  194.44   11.29
   6  -8  -2   13.18    6.02
  -6   8   2   18.96    6.37
   6  -8  -1   10.73    7.26
  -6   8   1   27.11    8.15
   6  -8   0   71.37    9.68
  -6   8   0   50.47    9.27
   6  -8   1   27.93    9.35
  -6   8  -1   26.50    9.89
   6  -8   2    6.48    9.51
  -6   8  -2    8.34    9.92
   6  -8   3  205.26   16.03
  -6   8  -3  256.43   18.68
   6  -8   4   14.07    9.68
  -6   8  -4   19.77   10.35
   6  -8   5   27.75   10.09
  -6   8  -5   13.30    6.65
   6  -8   6   12.93   10.11
  -6   8  -6   15.62   10.50
   6  -8   7  448.20   27.90
  -6   8  -7  526.35   32.10
   6  -8   8   22.61   10.93
  -6   8  -8   38.51   11.55
   6  -8   9  245.73   20.07
  -6   8  -9  231.08   20.20
  -6   8 -10   11.89   12.58
   6  -8  11   74.01   12.84
  -6   8 -11   96.65   14.06
   5  -8 -11    5.86    7.49
  -5   8  11   -0.02    7.08
   5  -8 -10   -0.87    7.75
  -5   8  10   17.76    7.81
   5  -8  -9  106.78    9.82
  -5   8   9   94.72    9.45
   5  -8  -8   10.90    5.95
  -5   8   8   12.65    6.26
   5  -8  -7  326.67   17.89
  -5   8   7  310.62   17.30
   5  -8  -6   17.70    4.34
  -5   8   6   13.43    4.52
  -5   8   5  475.18   24.25
   5  -8  -2   33.73    6.06
  -5   8   2   24.64    6.37
   5  -8  -1   58.28    8.02
  -5   8   1   74.95    8.75
   5  -8   0   14.25    8.08
  -5   8   0    5.70    8.58
   5  -8   2   13.64    9.76
  -5   8  -2   -0.55   10.34
   5  -8   3  101.43   12.21
  -5   8  -3  121.18   13.39
   5  -8   4   15.90    9.86
  -5   8  -4   38.25   10.77
   5  -8   5  437.03   26.88
   5  -8   6   -1.56    9.51
  -5   8  -6   10.80   10.56
   5  -8   7  271.08   19.82
  -5   8  -7  299.57   21.40
   5  -8   8    7.49   10.41
  -5   8  -8    3.66   10.64
   5  -8   9   53.37   12.64
  -5   8  -9   77.92   13.75
  -5   8 -10   11.73   12.22
   5  -8  11   10.44   10.69
  -5   8 -11    5.41   10.92
   4  -8 -12   12.75    7.93
  -4   8  12   26.28    7.77
   4  -8 -11   -0.07    8.01
  -4   8  11    7.58    7.84
   4  -8 -10   19.36    8.27
  -4   8  10    9.54    8.45
   4  -8  -9   33.82    7.65
  -4   8   9   43.19    8.08
   4  -8  -8   10.26    6.26
  -4   8   8   12.94    6.71
  -4   8   6   27.41    5.43
  -4   8   0   39.70    8.61
   4  -8   1  364.23   21.67
  -4   8  -1  324.46   20.27
   4  -8   2   14.61    9.82
  -4   8  -2   24.46   10.14
   4  -8   3  965.01   51.38
  -4   8  -3 1084.45   57.34
   4  -8   4   23.36   10.54
  -4   8  -4   19.56    9.15
   4  -8   5  395.98   24.65
  -4   8  -5  429.59   26.79
   4  -8   6   46.51   10.58
  -4   8  -6   15.86    9.82
   4  -8   8   19.68   10.22
  -4   8  -8    6.90   10.13
  -4   8  -9   14.96   11.25
   4  -8  10   -6.01   11.36
  -4   8 -10   29.85   12.63
   4  -8  11   12.25   10.83
  -4   8 -11   29.13   11.84
   3  -8 -12   -6.34    7.72
  -3   8  12   -0.72    7.72
   3  -8 -11   10.08    8.38
  -3   8  11   -4.99    8.22
   3  -8 -10    3.19    8.62
  -3   8  10    1.29    8.30
   3  -8  -9   41.82    8.27
  -3   8   9   31.03    8.22
   3  -8  -8   37.45    7.19
  -3   8   8   53.02    7.56
   3  -8  -7   16.16    5.79
  -3   8   7   17.87    6.40
   3  -8  -6    7.57    4.99
  -3   8   6    5.64    5.56
   3  -8   3   85.29   11.73
  -3   8  -3  118.39   13.43
   3  -8   4  357.02   22.71
   3  -8   5   78.02   11.55
  -3   8  -5   79.73   12.01
   3  -8   6    6.38   10.07
  -3   8  -6    0.30    9.80
   3  -8   7    8.47    9.91
  -3   8  -7   19.97   10.32
   3  -8   8   30.54   10.58
  -3   8  -8   36.83   11.02
  -3   8  -9    3.87   11.21
   3  -8  10    5.79   11.35
  -3   8 -10   12.44   12.14
   3  -8  11    9.11   11.08
  -3   8 -11   18.20   11.33
   3  -8  12   26.00   10.12
  -3   8 -12   -1.69    9.43
   2  -8 -12    1.29    8.00
  -2   8  12   -0.07    7.77
   2  -8 -11   11.40    8.73
  -2   8  11   34.32    9.08
   2  -8 -10   10.68    8.94
  -2   8  10   36.77    9.06
   2  -8  -9  102.11   10.49
  -2   8   9  108.36   10.66
   2  -8  -8   13.97    6.83
  -2   8   8   10.57    7.08
   2  -8  -7   69.65    7.81
  -2   8   7   68.16    7.75
  -2   8  -5    8.56    9.38
   2  -8   6   34.91    9.89
  -2   8  -6   13.26    9.93
   2  -8   7   36.88    9.98
  -2   8  -7   27.05   10.45
  -2   8  -8   25.43   10.51
   2  -8   9   87.55   13.01
  -2   8  -9   90.64   13.15
   2  -8  10   16.72   11.47
  -2   8 -10    9.44   11.32
   2  -8  11   11.41   10.69
  -2   8 -11  -10.90   10.50
   2  -8  12   -2.87    9.58
  -2   8 -12   -3.80   10.05
   1  -8 -12  105.87   11.33
  -1   8  12  134.55   12.57
   1  -8 -11    2.44    8.91
  -1   8  11   11.66    9.12
   1  -8 -10   50.23    9.57
  -1   8  10   35.96    9.54
   1  -8  -9   18.92    8.13
  -1   8   9   12.59    7.93
   1  -8  -8  967.34   50.34
  -1   8   8  911.75   47.66
   1  -8  -7   90.55    9.00
  -1   8   7  101.94    9.34
  -1   8  -8  835.46   46.30
   1  -8   9   -3.84    9.82
  -1   8  -9   14.72   10.61
   1  -8  10   39.71   12.09
  -1   8 -10   59.31   12.39
   1  -8  11    7.75   10.83
  -1   8 -11   24.88   11.27
   1  -8  12   87.37   12.46
  -1   8 -12  101.70   13.43
   0  -8 -12   13.82    8.49
   0   8  12   22.38    8.63
   0  -8 -11    3.70    8.83
   0   8  11   -8.01    9.29
   0  -8 -10   75.44   10.97
   0   8  10   86.64   11.43
   0  -8  -9    4.80    8.05
   0   8   9    2.69    8.32
   0  -8  -8   86.73    9.56
   0   8   8   92.36    9.98
   0   8   7   -3.63    7.09
   0   8 -10   73.34   12.65
   0  -8  11    1.99    9.99
   0   8 -11   12.65   10.94
   0  -8  12    3.72    9.26
   0   8 -12    9.32    9.44
  -1  -8 -12  105.22   11.72
   1   8  12  114.60   11.99
  -1  -8 -11    5.19    9.19
   1   8  11    6.72    9.71
  -1  -8 -10   66.29   10.63
   1   8  10   62.31   10.90
  -1  -8  -9    7.09    8.44
   1   8   9   22.05    8.63
  -1  -8  -8  875.00   46.32
   1   8   8  964.31   50.67
  -2  -8 -12   16.71    8.75
   2   8  12   10.64    8.77
  -2  -8 -11   21.91    9.62
   2   8  11   28.46   10.15
  -2  -8 -10   25.22    9.71
   2   8  10    8.52    9.47
  -2  -8  -9  118.62   12.04
   2   8   9   98.30   11.26
   2   8   8    2.91    7.98
  -3  -8 -12    7.78    8.78
   3   8  12    3.69    8.97
  -3  -8 -11   10.56    9.40
   3   8  11   30.68   10.18
  -3  -8 -10   32.68   10.13
   3   8  10   14.63    9.91
  -3  -8  -9   45.23    9.68
   3   8   9   25.49    9.20
  -4  -8 -12    4.37    8.99
   4   8  12    6.23    9.22
  -4  -8 -11   13.05    9.49
   4   8  11   18.60    9.54
  -4  -8 -10    6.78   10.15
   4   8  10   24.71   10.18
  -4  -8  -9   35.57   10.21
   4   8   9   19.53    9.77
  -5  -8 -11   19.42    9.97
   5   8  11  -15.42    9.42
  -5  -8 -10  -10.44   10.34
   5   8  10   25.40   10.54
   5   8   9   47.83   10.35
  -6  -8 -11   65.79   11.39
   6   8  11   89.05   11.87
  -6  -8 -10   36.64   11.09
   6   8  10   31.52   10.84
  -7  -8 -11   -3.40    9.20
   7   8  11   17.18    9.55
   7   8  10  117.81   13.71
  -8  -8 -11   14.56    9.38
   8   8  11    2.60    9.56
  18  -9   0   11.91    7.83
  17  -9   0   13.37    8.15
 -17   9   0   -7.33    8.75
  17  -9   1   -3.58    8.68
 -17   9  -1    9.04    9.14
  17  -9   2   -2.88    8.55
 -17   9  -2    9.75    9.57
  17  -9   3   -0.44    8.69
 -17   9  -3    6.15    9.51
 -17   9  -4   16.01   10.19
  16  -9  -1    1.60    8.33
  16  -9   0    5.59    9.11
 -16   9   0   -7.52    9.34
  16  -9   1   14.58    9.36
 -16   9  -1   26.71   10.82
  16  -9   2   -3.09    9.27
 -16   9  -2   15.29   10.57
  16  -9   3   -6.29    9.66
 -16   9  -3   15.98   10.30
  16  -9   4   -7.58    9.54
 -16   9  -4   -1.12   10.09
  16  -9   5   10.51    9.80
 -16   9  -5    4.43    9.68
  15  -9  -1    7.37    8.80
 -15   9   1    2.73    8.95
  15  -9   0    5.73    9.28
 -15   9   0   19.28   10.61
  15  -9   1   -5.79    9.58
 -15   9  -1   -4.88   10.84
  15  -9   2   31.54   10.68
 -15   9  -2    6.85   10.92
  15  -9   3   15.05   10.55
 -15   9  -3   -5.73   11.61
  15  -9   4   23.89   10.86
 -15   9  -4   23.58   11.87
  15  -9   5    0.27    9.92
 -15   9  -5   -8.93   10.39
  15  -9   6   -7.20    9.52
 -15   9  -6   -3.07   10.40
  14  -9  -2    8.16    8.20
  14  -9  -1    0.30    8.47
 -14   9   1   11.42    9.27
  14  -9   0    8.62    9.12
 -14   9   0    9.20    9.51
  14  -9   1   -1.30   10.11
 -14   9  -1   17.14   10.86
  14  -9   2   15.72   10.39
 -14   9  -2    8.29   11.84
  14  -9   3   13.90   10.91
 -14   9  -3   -5.66   11.86
  14  -9   4   34.09   11.86
 -14   9  -4    9.07   12.29
  14  -9   5   10.26   11.00
 -14   9  -5   -8.04   11.40
  14  -9   6    6.81   10.20
 -14   9  -6   -7.86   10.91
  14  -9   7   -5.95    9.38
 -14   9  -7  -13.98    9.90
  13  -9  -2    9.99    7.98
 -13   9   2   20.31    8.01
  13  -9  -1    4.49    8.32
 -13   9   1   22.33    8.82
  13  -9   0   10.92    8.76
 -13   9   0    9.07    8.99
  13  -9   1   10.01    9.70
 -13   9  -1   21.18   10.28
  13  -9   2    8.06    9.97
 -13   9  -2    6.87   10.43
  13  -9   3   14.05   10.52
 -13   9  -3   21.56   11.82
  13  -9   4   11.55   10.90
 -13   9  -4   14.91   12.14
  13  -9   5   23.88   11.78
 -13   9  -5   -0.90   11.99
  13  -9   6   22.48   11.58
 -13   9  -6   -6.14   11.97
  13  -9   7  -15.03   10.43
 -13   9  -7  -10.21   10.91
  13  -9   8    9.16    9.87
 -13   9  -8   10.23   10.66
  12  -9  -2    4.87    7.35
 -12   9   2    7.44    7.27
  12  -9  -1   -6.97    7.57
 -12   9   1    8.37    8.38
  12  -9   0   12.26    8.08
 -12   9   0   -7.93    8.51
  12  -9   1   -6.64    8.38
 -12   9  -1  -10.21    9.19
  12  -9   2   -1.14    9.34
 -12   9  -2    1.67    9.83
  12  -9   3   -1.69    9.57
 -12   9  -3   -2.65   10.39
  12  -9   4   16.78   10.84
 -12   9  -4   15.08   11.57
  12  -9   5   20.21   11.59
 -12   9  -5   -5.27   12.04
  12  -9   6   13.87   11.55
 -12   9  -6    6.31   12.54
  12  -9   8   10.57   10.78
 -12   9  -8   16.77   11.14
  11  -9  -3    9.82    6.40
 -11   9   3   11.26    6.36
  11  -9  -2   -6.88    6.78
 -11   9   2   -0.50    6.86
  11  -9  -1   20.13    7.61
 -11   9   1   18.35    7.69
  11  -9   0   -7.70    7.87
 -11   9   0   -5.77    8.13
  11  -9   1   11.56    8.41
 -11   9  -1   10.21    9.11
  11  -9   2    6.87    8.98
 -11   9  -2   -6.95    9.45
  11  -9   3   21.54    9.91
 -11   9  -3   37.64   10.83
  11  -9   4    0.86    9.99
 -11   9  -4    6.31   10.63
  11  -9   5   15.78   10.65
 -11   9  -5   -0.63   10.94
  11  -9   6    4.92   11.70
 -11   9  -6   14.63   12.27
  11  -9   7    5.52   11.96
 -11   9  -7   -5.09   12.01
  11  -9   8    1.33   11.51
  11  -9   9   13.89   10.47
 -11   9  -9  -15.41   10.70
  10  -9  -3   15.18    6.04
 -10   9   3    6.05    6.08
  10  -9  -2   -4.56    6.48
 -10   9   2   -2.48    6.44
  10  -9  -1    4.88    7.12
 -10   9   1   -0.88    7.41
  10  -9   0   -1.83    7.70
 -10   9   0    4.59    8.33
  10  -9   1    1.06    8.32
 -10   9  -1    4.51    8.37
  10  -9   2   -7.57    9.09
 -10   9  -2    3.92    9.66
  10  -9   3    1.54    9.41
 -10   9  -3   26.13   10.21
  10  -9   4    6.80   10.06
 -10   9  -4   -0.63   10.34
  10  -9   5    1.12   10.34
 -10   9  -5    9.22   10.86
  10  -9   6   20.85   11.82
 -10   9  -6   -7.88   11.39
  10  -9   7   11.86   11.46
 -10   9  -7   10.22   12.52
  10  -9   8    9.59   12.19
  10  -9   9    7.22   11.23
 -10   9  -9   40.76   12.29
   9  -9  -4    2.40    4.66
   9  -9  -3    8.72    5.50
  -9   9   3   -1.05    5.88
   9  -9  -2    4.49    6.27
  -9   9   2   18.79    6.63
   9  -9  -1   45.85    7.94
  -9   9   1   56.15    8.58
   9  -9   0    8.23    7.88
  -9   9   0   -7.26    7.94
   9  -9   1   41.88    9.07
  -9   9  -1   34.02    9.20
   9  -9   2    8.06    8.79
  -9   9  -2  -10.28    9.01
   9  -9   3   15.40    9.26
  -9   9  -3    7.56   10.01
   9  -9   4    8.45    9.45
  -9   9  -4   20.69   10.05
   9  -9   5   12.59    9.87
  -9   9  -5   13.89   10.68
   9  -9   6    4.55   10.35
  -9   9  -6  -10.85   10.55
   9  -9   7    8.98   11.32
   9  -9   8    1.76   11.92
  -9   9  -8  -17.56   11.99
   9  -9   9  -10.14   11.40
  -9   9  -9    6.14   11.87
   9  -9  10    3.67   10.29
  -9   9 -10  -15.04   10.33
   8  -9 -10   10.05    5.51
  -8   9  10    4.65    5.78
   8  -9  -9    6.84    5.78
   8  -9  -4   39.63    4.84
  -8   9   4   45.20    4.95
   8  -9  -3   64.15    6.66
  -8   9   3   54.66    6.55
   8  -9  -2   -1.48    6.08
  -8   9   2   10.64    6.38
   8  -9  -1   38.47    7.90
  -8   9   1   37.83    7.78
   8  -9   0   13.97    8.18
  -8   9   0   -4.63    8.28
   8  -9   1   57.66    9.42
  -8   9  -1   32.42    8.99
   8  -9   2    6.94    8.92
  -8   9  -2   -4.43    8.83
   8  -9   3   78.65   10.92
  -8   9  -3   75.57   11.25
   8  -9   4   28.04    9.66
  -8   9  -4   21.49    9.82
   8  -9   5    5.11    9.59
  -8   9  -5   11.23   10.23
   8  -9   6   -2.14   10.11
  -8   9  -6    2.51   10.40
   8  -9   7    0.03   11.00
   8  -9   8   35.74   12.40
  -8   9  -8   22.34   12.19
   8  -9   9   -9.11   11.93
  -8   9  -9   -0.07   12.09
   8  -9  10   -3.26   10.73
  -8   9 -10    5.98   11.07
   7  -9 -11   -6.97    6.01
  -7   9  11    4.16    6.18
   7  -9 -10    0.24    6.00
  -7   9  10   14.66    6.31
   7  -9  -9   -5.93    5.83
  -7   9   9    7.04    6.37
  -7   9   8    1.02    5.35
   7  -9  -7    2.16    3.74
  -7   9   7    0.71    3.83
   7  -9  -4    4.55    3.65
  -7   9   4    3.19    3.81
   7  -9  -3   -0.87    4.87
  -7   9   3    6.92    5.19
   7  -9  -2   -0.16    5.92
  -7   9   2   17.22    6.38
   7  -9  -1    9.99    6.90
  -7   9   1    9.15    7.27
   7  -9   0   11.16    7.68
  -7   9   0   11.34    7.91
   7  -9   1    4.87    8.77
  -7   9  -1   14.07    8.77
   7  -9   2   -5.50    8.94
  -7   9  -2    9.58    9.71
   7  -9   3   21.55    9.43
  -7   9  -3    7.90    9.80
   7  -9   4   -2.76    9.05
  -7   9  -4  -12.97    9.52
   7  -9   5   22.56    9.82
  -7   9  -5   -2.81   10.44
   7  -9   6  -13.28    9.48
  -7   9  -6   -3.09    8.83
   7  -9   7   12.98   10.33
  -7   9  -7  -17.04   11.14
   7  -9   8   -0.17   11.15
  -7   9  -8   18.04   12.40
   7  -9   9   25.46   12.63
  -7   9  -9   -5.08   11.98
   7  -9  10    1.95   10.91
  -7   9 -10   10.06   11.46
  -7   9 -11   20.94   11.70
   6  -9 -11   -6.52    6.34
  -6   9  11   -5.73    6.25
   6  -9 -10    0.07    6.86
  -6   9  10   -5.47    6.81
   6  -9  -9   15.79    6.72
  -6   9   9    5.06    6.87
   6  -9  -8    1.30    5.24
  -6   9   8   -2.97    5.77
   6  -9  -7    3.30    4.47
  -6   9   7   -1.31    4.71
   6  -9  -6    4.21    3.12
  -6   9   6    2.78    3.34
  -6   9   4    9.56    3.07
   6  -9  -3    1.26    4.63
  -6   9   3   -5.49    4.73
   6  -9  -1    3.66    6.95
  -6   9   1    7.68    7.48
   6  -9   0   -0.02    7.72
  -6   9   0    0.31    8.11
   6  -9   1    9.87    8.49
  -6   9  -1    4.26    8.76
   6  -9   2  -16.00    8.86
  -6   9  -2   -5.49    9.13
   6  -9   3    1.88    9.41
  -6   9  -3    2.65   10.29
   6  -9   4    5.98    9.40
  -6   9  -4   19.82    9.56
   6  -9   5    4.02    9.43
  -6   9  -5    4.24    9.84
   6  -9   6   -1.52    9.18
   6  -9   7    5.71    9.64
  -6   9  -7    9.83   10.59
   6  -9   8   20.61   11.44
  -6   9  -8   -1.62   11.49
   6  -9   9   -5.90   11.77
  -6   9  -9   13.27   11.96
   6  -9  10  -11.18   10.57
  -6   9 -10   -2.54   12.15
  -6   9 -11    4.42   10.25
   5  -9 -11   -0.03    6.84
  -5   9  11   -5.77    6.97
   5  -9 -10   40.71    7.99
  -5   9  10   50.23    8.42
   5  -9  -9   12.94    7.15
  -5   9   9   10.52    7.59
   5  -9  -8   15.94    5.92
  -5   9   8    8.83    6.31
  -5   9   7   24.78    5.77
   5  -9  -6   -1.36    3.63
  -5   9   6   -0.29    3.98
   5  -9  -1    0.95    6.66
  -5   9   1  -15.03    7.58
   5  -9   0   -4.33    7.73
  -5   9   0   19.48    8.15
   5  -9   1    2.55    8.48
  -5   9  -1    3.70    9.34
   5  -9   2   17.04    9.02
  -5   9  -2   36.64    9.72
   5  -9   3   -0.92    9.19
  -5   9  -3   -4.44    9.80
   5  -9   4   74.59   10.92
  -5   9  -4   94.65   12.09
   5  -9   5   -6.31    9.20
  -5   9  -5   14.11    9.05
   5  -9   6    5.09    9.36
  -5   9  -6   -1.09    9.98
   5  -9   7   -2.72    9.37
  -5   9  -7   10.51   10.59
   5  -9   8   -3.42   10.25
  -5   9  -8   29.27   11.25
   5  -9   9    5.80   11.55
  -5   9  -9    4.50   11.77
  -5   9 -10   31.57   12.42
   5  -9  11    6.30    9.91
  -5   9 -11   14.26   10.48
   4  -9 -11    0.95    7.16
  -4   9  11   15.41    7.38
   4  -9 -10   -2.34    7.61
  -4   9  10   17.11    7.97
   4  -9  -9    0.93    7.28
  -4   9   9   -1.98    7.65
   4  -9  -8    1.41    5.85
  -4   9   8    5.92    6.76
   4  -9  -7    1.35    4.95
  -4   9   7    2.01    5.51
   4  -9   2    2.13    9.00
  -4   9  -2   10.20    9.72
   4  -9   3   11.58    9.56
  -4   9  -3    3.72   10.23
   4  -9   4   37.25    9.79
  -4   9  -4   35.42   10.41
   4  -9   5   29.86    9.98
   4  -9   6    8.13    9.64
  -4   9  -6   25.22   10.20
   4  -9   7   10.66    9.56
  -4   9  -7   11.28   10.45
   4  -9   8   13.59   10.21
  -4   9  -8    6.52   10.61
   4  -9   9  -14.76   10.76
  -4   9  -9   -0.09   11.46
  -4   9 -10   26.95   12.27
   4  -9  11    2.99    9.98
  -4   9 -11   22.19   10.98
   3  -9 -11   -2.02    7.77
  -3   9  11    4.26    7.72
   3  -9 -10    4.20    8.27
  -3   9  10   12.86    8.61
   3  -9  -9   21.84    7.47
  -3   9   9    6.56    7.58
   3  -9  -8    5.42    6.29
  -3   9   8   -1.34    6.80
   3  -9  -7   12.28    5.58
  -3   9   7   11.06    5.90
  -3   9  -4  -14.73    9.64
   3  -9   5   10.55    9.54
  -3   9  -5   12.01    9.79
   3  -9   6   11.07    9.68
  -3   9  -6   31.17    9.98
   3  -9   7    5.88    9.57
  -3   9  -7   12.43    9.94
   3  -9   8  -14.35    9.43
  -3   9  -8    0.35   10.28
   3  -9   9   11.99    8.49
  -3   9  -9  -11.79   11.21
   3  -9  10   -0.01   11.46
  -3   9 -10    9.42   12.13
   3  -9  11   12.70   10.11
  -3   9 -11    2.14   10.63
   2  -9 -11   19.79    8.41
  -2   9  11   15.76    8.23
   2  -9 -10   -7.04    8.47
  -2   9  10   -6.12    8.28
   2  -9  -9    2.05    7.76
  -2   9   9   15.36    8.00
   2  -9  -8   16.23    6.87
  -2   9   8    2.71    6.68
  -2   9   7    7.35    5.97
   2  -9   7   18.85    9.70
  -2   9  -7   24.61   10.35
   2  -9   8   11.69    9.89
  -2   9  -8   15.96   10.11
  -2   9  -9   -7.50   11.07
   2  -9  10    6.83   11.06
  -2   9 -10   -2.17   11.41
   2  -9  11   20.96   10.87
  -2   9 -11   -3.58   10.33
   1  -9 -12   -6.69    8.19
  -1   9  12    4.45    8.58
   1  -9 -11   -1.62    8.02
  -1   9  11   21.63    8.41
   1  -9 -10    2.17    8.63
  -1   9  10   11.73    8.87
   1  -9  -9   12.56    8.12
  -1   9   9   15.27    8.04
   1  -9  -8    4.36    7.04
  -1   9   8   18.86    7.09
  -1   9  -9   -2.43   10.98
   1  -9  10    9.26   11.18
  -1   9 -10   -7.35   11.25
   1  -9  11   -4.07   10.32
  -1   9 -11   10.27   10.89
   0  -9 -12    9.32    8.15
   0   9  12    9.11    8.22
   0  -9 -11   70.23   10.20
   0   9  11   76.43   10.76
   0  -9 -10   11.22    9.06
   0   9  10   -1.88    8.90
   0  -9  -9   13.92    8.22
   0   9   9   -1.42    8.11
   0   9   8    0.56    7.28
   0   9 -11   53.34   11.69
  -1  -9 -12    1.88    8.38
   1   9  12   11.76    8.83
  -1  -9 -11    9.18    8.66
   1   9  11   -5.59    9.07
  -1  -9 -10  -19.42    9.26
   1   9  10   -4.20    8.83
  -1  -9  -9   18.82    9.16
   1   9   9    1.93    8.69
  -2  -9 -11   -7.57    8.59
   2   9  11   14.76    8.82
  -2  -9 -10    8.29    9.85
   2   9  10    9.09    9.47
  -2  -9  -9   14.66    8.90
   2   9   9   14.13    8.72
  -3  -9 -11   -7.73    8.80
   3   9  11  -12.99    8.64
  -3  -9 -10   13.70    9.63
   3   9  10    2.20    9.36
   3   9   9   -4.22    9.15
  -4  -9 -11    9.05    8.90
   4   9  11    0.83    8.85
  -4  -9 -10    8.75    9.97
   4   9  10   -1.85    9.64
  -5  -9 -11   10.93    9.18
   5   9  11    9.12    8.68
   5   9  10   20.04    9.94
  -6  -9 -11    5.71    9.27
   6   9  11   -7.20    8.88
   7   9  11   14.63    9.44
  17 -10  -1    2.84    7.08
 -17  10   1    6.84    8.25
  17 -10   0   11.61    7.80
 -17  10   0   -9.51    8.38
  17 -10   1   -1.31    8.07
 -17  10  -1   -0.73    8.75
  17 -10   2   -1.83    8.41
 -17  10  -2    5.49    9.19
  16 -10  -2   84.15    9.84
  16 -10  -1   56.74    9.19
 -16  10   1   30.57    9.25
  16 -10   0  263.64   18.23
 -16  10   0  216.77   17.00
  16 -10   1   57.66   10.12
 -16  10  -1   66.53   11.51
  16 -10   2  103.01   12.30
 -16  10  -2   81.96   12.39
  16 -10   3   28.32   10.00
 -16  10  -3   32.25   10.98
  16 -10   4   19.49    9.84
 -16  10  -4   47.22   11.27
  15 -10  -2   -7.37    8.21
 -15  10   2    3.86    8.59
  15 -10  -1   29.35    9.02
 -15  10   1   21.17    9.58
  15 -10   0    6.73    9.09
 -15  10   0   15.99   10.11
  15 -10   2   -1.12    9.82
 -15  10  -2   11.30   10.80
  15 -10   3   -1.92    9.98
 -15  10  -3   -3.29   10.78
  15 -10   4   -8.12    9.49
 -15  10  -4   -7.83   10.72
  15 -10   5   41.41   10.68
 -15  10  -5   30.86   10.98
  14 -10  -2   -5.90    8.50
 -14  10   2   -0.43    8.72
  14 -10  -1   17.30    9.14
 -14  10   1   14.55    9.14
  14 -10   0   23.58    9.58
 -14  10   0   18.13   10.48
  14 -10   1   10.16    9.71
 -14  10  -1   13.59   11.19
  14 -10   2    0.90   10.27
 -14  10  -2    1.92   11.20
  14 -10   3   53.03   11.70
 -14  10  -3   72.13   13.28
  14 -10   4  -16.82   10.49
 -14  10  -4   -5.79   10.68
  14 -10   5  159.09   15.84
 -14  10  -5  218.75   19.00
  14 -10   6   42.41   11.21
 -14  10  -6   35.16   11.35
  13 -10  -3  633.92   34.30
  13 -10  -2    8.19    8.11
 -13  10   2    4.77    8.21
  13 -10  -1  -14.14    8.43
 -13  10   1    0.65    9.02
  13 -10   0   -0.79    8.84
 -13  10   0   11.37    9.19
  13 -10   1   -4.94    9.57
 -13  10  -1    3.21   10.20
  13 -10   2   -1.47   10.29
 -13  10  -2    5.37   10.97
  13 -10   3  732.89   41.56
 -13  10  -3  755.33   43.20
  13 -10   4   93.04   13.59
 -13  10  -4   95.52   14.42
  13 -10   5   92.69   13.83
 -13  10  -5  126.64   15.65
  13 -10   6    5.99   11.00
 -13  10  -6   -6.09   11.36
  13 -10   7   35.55   10.72
 -13  10  -7    2.69   10.84
  12 -10  -3   20.50    7.56
 -12  10   3   25.12    7.31
  12 -10  -2  157.00   12.26
 -12  10   2  149.90   11.97
  12 -10  -1   12.96    7.93
 -12  10   1    7.56    8.40
  12 -10   0   -2.71    8.65
 -12  10   0    2.95    8.83
  12 -10   1    5.92    9.13
 -12  10  -1    8.84    9.27
  12 -10   2  186.65   15.70
 -12  10  -2  194.10   16.65
  12 -10   3   15.78   10.44
 -12  10  -3   30.74   11.55
  12 -10   4   74.38   12.71
 -12  10  -4  108.27   14.54
  12 -10   5  148.51   15.76
 -12  10  -5  169.91   17.39
  12 -10   6   38.98   11.93
 -12  10  -6   47.06   13.22
  12 -10   7   67.83   12.47
 -12  10  -7   26.86   11.99
  12 -10   8   20.26   10.68
 -12  10  -8  -10.42   10.65
  11 -10  -4   11.80    6.20
  11 -10  -3  -14.62    6.55
 -11  10   3  -11.12    6.28
  11 -10  -2   17.00    7.29
 -11  10   2    8.98    7.08
  11 -10  -1   19.06    7.84
 -11  10   1   33.57    8.28
  11 -10   0   17.93    8.16
 -11  10   0    6.97    8.65
  11 -10   1   21.77    8.95
 -11  10  -1   53.89    9.93
  11 -10   2   -3.92    9.13
 -11  10  -2   14.14    9.99
  11 -10   3   21.48    9.56
 -11  10  -3   49.90   11.68
  11 -10   4   13.05   10.56
 -11  10  -4    6.58   11.13
  11 -10   5   27.83   11.71
 -11  10  -5   34.62   12.14
  11 -10   6  173.16   16.99
 -11  10  -6  169.44   17.49
  11 -10   7  -18.94   10.83
 -11  10  -7   -5.64   11.91
  11 -10   8   15.44   10.85
 -11  10  -8   10.75   11.12
  11 -10   9    8.95   10.89
  10 -10  -4    7.09    5.45
 -10  10   4    9.04    5.38
  10 -10  -3    7.14    6.16
 -10  10   3   17.63    6.43
  10 -10  -2   15.87    6.80
 -10  10   2    4.28    6.85
  10 -10  -1   11.62    7.52
 -10  10   1    6.68    7.38
  10 -10   0  758.71   40.85
 -10  10   0  723.82   39.25
  10 -10   1   -1.65    8.54
 -10  10  -1  -14.84    8.61
  10 -10   2   11.36    8.69
 -10  10  -2   11.40    9.44
  10 -10   3   19.57    9.64
 -10  10  -3   11.57   10.29
  10 -10   4    8.66   10.12
 -10  10  -4   19.64   11.00
  10 -10   5    1.13   10.66
 -10  10  -5    4.76   11.29
  10 -10   6   38.92   12.23
 -10  10  -6   41.37   12.98
  10 -10   7   17.37   11.65
 -10  10  -7    5.81   12.73
  10 -10   9    3.48    9.75
 -10  10  -9    3.93   10.58
   9 -10 -10   18.56    5.00
   9 -10  -5   -2.31    3.98
   9 -10  -3   14.97    5.70
  -9  10   3   -0.60    5.79
   9 -10  -2   11.15    6.71
  -9  10   2   16.55    6.72
   9 -10  -1   -0.08    7.15
  -9  10   1    2.22    7.44
   9 -10   0   -3.29    7.54
  -9  10   0   -5.31    7.87
   9 -10   1   -0.44    8.42
  -9  10  -1   21.85    8.58
   9 -10   2   15.36    8.95
  -9  10  -2   10.61    9.45
   9 -10   3  -10.89    8.95
  -9  10  -3   -2.84    9.48
   9 -10   4   46.48   10.41
  -9  10  -4   39.25   10.92
   9 -10   5    6.44    9.87
  -9  10  -5   -2.04   10.75
   9 -10   6   13.09   10.56
  -9  10  -6   30.24   11.93
   9 -10   7   13.77   11.54
  -9  10  -7  -11.00   12.02
   9 -10   8  129.20   15.72
   9 -10   9   -5.56   10.51
  -9  10  -9   10.30   11.02
   8 -10 -10    7.19    5.16
  -8  10  10    7.65    5.19
   8 -10  -9    0.83    4.93
  -8  10   9    6.87    5.13
   8 -10  -8  108.15    7.58
   8 -10  -5   85.59    5.56
  -8  10   5   72.94    5.06
   8 -10  -4  552.98   28.50
  -8  10   4  539.37   27.83
   8 -10  -3    6.61    5.22
  -8  10   3    5.01    5.65
   8 -10  -2   62.80    7.45
  -8  10   2   59.14    7.42
   8 -10  -1   55.08    7.92
  -8  10   1   49.03    8.11
   8 -10   0    8.06    7.63
  -8  10   0   32.84    8.21
   8 -10   1   52.11    9.28
  -8  10  -1   46.42    9.18
   8 -10   2   67.64   10.21
  -8  10  -2   71.92   10.58
   8 -10   3   -5.18    8.85
  -8  10  -3   -5.85    9.64
   8 -10   4  495.18   29.59
  -8  10  -4  526.70   31.42
   8 -10   5   87.77   12.13
  -8  10  -5  111.95   13.57
   8 -10   6  530.07   32.16
  -8  10  -6  520.30   32.19
   8 -10   7   -9.49   10.75
  -8  10  -7    6.54   11.04
   8 -10   8  144.90   16.48
  -8  10  -8  147.46   17.30
   8 -10   9   -0.23   11.36
  -8  10  -9   -0.19   11.90
   8 -10  10  -11.33    9.76
  -8  10 -10   -3.67   10.27
   7 -10 -10    0.77    5.61
  -7  10  10   -5.16    5.70
   7 -10  -9   -0.21    5.61
  -7  10   9   -3.94    5.91
  -7  10   8   15.83    5.35
   7 -10  -7   46.52    4.55
  -7  10   7   51.16    4.85
  -7  10   5    2.09    2.27
   7 -10  -4   11.98    3.91
  -7  10   4   17.65    4.04
   7 -10  -2    2.01    5.61
  -7  10   2    5.24    5.99
   7 -10  -1    6.16    6.81
  -7  10   1    2.73    6.64
   7 -10   0   -6.07    7.54
  -7  10   0    1.77    7.87
   7 -10   1    3.55    7.88
  -7  10  -1    2.79    8.16
   7 -10   2    0.51    8.29
  -7  10  -2  -13.25    8.61
   7 -10   4    9.04    9.02
  -7  10  -4   31.36   10.26
   7 -10   5    5.02    9.42
  -7  10  -5    3.15    9.80
   7 -10   6   47.66   11.06
  -7  10  -6   47.02   11.36
   7 -10   7   44.81   11.59
   7 -10   8   13.40   11.97
  -7  10  -8   17.19   12.13
   7 -10   9    9.08   11.59
  -7  10  -9   -6.35   11.96
   7 -10  10   -9.65   10.20
  -7  10 -10   20.25   10.98
   6 -10 -11    9.12    6.70
  -6  10  11    0.85    6.56
   6 -10 -10   42.41    6.93
  -6  10  10   30.05    6.85
   6 -10  -9  108.83    9.06
  -6  10   9  114.38    9.66
  -6  10   8    8.04    5.72
   6 -10  -7   29.57    4.35
  -6  10   7   24.35    4.74
   6 -10  -2    8.95    5.90
  -6  10   2   -4.11    5.84
   6 -10  -1   -4.35    6.72
  -6  10   1   18.39    7.04
   6 -10   0   72.80    9.11
  -6  10   0   61.82    8.98
   6 -10   1    7.36    8.20
  -6  10  -1   10.07    8.43
   6 -10   2   14.16    8.66
  -6  10  -2   -7.57    8.65
   6 -10   3   25.93    9.20
  -6  10  -3   18.68    9.82
   6 -10   4   34.63    9.43
  -6  10  -4   14.69    9.56
   6 -10   5   -7.95    9.13
  -6  10  -5   10.37   10.11
   6 -10   6    0.81    9.79
  -6  10  -6   14.08   10.08
   6 -10   7   41.45   11.22
  -6  10  -7   22.20   10.98
   6 -10   8   13.82   11.16
  -6  10  -8   -5.04   11.70
   6 -10   9   84.80   14.22
  -6  10  -9  115.11   15.28
   6 -10  10   42.60   11.72
  -6  10 -10   56.59   12.37
   5 -10 -11   42.16    7.42
  -5  10  11   48.20    7.81
   5 -10 -10   -2.65    6.75
  -5  10  10    8.49    6.98
   5 -10  -9  463.20   25.48
  -5  10   9  417.38   23.49
   5 -10  -8   10.59    5.50
  -5  10   8   15.16    6.45
  -5  10   7   32.95    5.40
  -5  10   0  -11.73    7.54
   5 -10   1  418.89   24.39
  -5  10  -1  486.81   27.59
   5 -10   2   20.71    8.90
  -5  10  -2   -8.79    9.22
   5 -10   4    8.61    9.08
  -5  10  -4    0.23    9.22
   5 -10   5    6.00    8.95
  -5  10  -5   -3.41    9.92
   5 -10   6    1.50    9.29
   5 -10   7   47.39   10.82
  -5  10  -7   37.02   11.56
   5 -10   8    5.98   10.76
  -5  10  -8   -5.42   11.84
   5 -10   9  323.65   23.65
  -5  10  -9  328.07   24.04
   5 -10  10  -10.41   10.57
  -5  10 -10   -0.24   11.01
  -5  10 -11   26.61   11.19
   4 -10 -11    8.88    6.94
  -4  10  11   14.99    7.02
   4 -10 -10    2.95    7.15
  -4  10  10   11.01    7.72
   4 -10  -9  135.83   10.89
  -4  10   9  165.84   12.48
   4 -10  -8    5.40    5.68
  -4  10   8   -0.26    6.37
  -4  10   7    9.18    5.41
   4 -10   3   45.97    9.69
  -4  10  -3   21.98    9.73
   4 -10   4   13.35    8.97
  -4  10  -4   20.74    9.51
   4 -10   5  158.74   14.29
  -4  10  -5  163.16   14.90
   4 -10   6    4.98    9.14
   4 -10   7    5.57    9.41
  -4  10  -7   11.39   10.57
   4 -10   8   -1.45   10.48
  -4  10  -8   -6.85   11.02
   4 -10   9  146.07   15.89
  -4  10  -9  134.32   15.60
   4 -10  10   33.30    9.91
  -4  10 -10   10.05   11.89
   4 -10  11   -5.01    9.27
  -4  10 -11   13.12   10.36
   3 -10 -11    5.88    7.19
  -3  10  11    2.16    7.19
   3 -10 -10   14.73    7.47
  -3  10  10    9.76    7.92
   3 -10  -9   14.63    7.45
  -3  10   9   11.18    7.73
   3 -10  -8   -5.51    6.16
  -3  10   8    7.45    6.76
   3 -10   6  -11.34    9.04
  -3  10  -6   14.55    9.89
   3 -10   7   28.43    9.80
  -3  10  -7   52.09   11.29
   3 -10   8   13.20   10.54
  -3  10  -8    4.17   10.43
   3 -10   9   12.91   11.43
  -3  10  -9    0.14   11.02
  -3  10 -10   -4.95   11.65
   3 -10  11   -3.87    9.61
  -3  10 -11   -4.72   10.09
   2 -10 -11    6.25    7.54
  -2  10  11   -3.72    7.28
   2 -10 -10   45.85    8.93
  -2  10  10   40.89    9.13
   2 -10  -9   46.82    8.45
  -2  10   9   33.91    8.22
  -2  10   8   14.56    6.76
  -2  10  -8    6.27   10.79
   2 -10  10   14.23   11.33
  -2  10 -10   23.10   11.85
   2 -10  11   -6.19    9.99
  -2  10 -11    1.24   10.44
   1 -10 -11    7.95    7.79
  -1  10  11   16.15    7.95
   1 -10 -10   80.34   10.23
  -1  10  10   69.66    9.82
   1 -10  -9   38.77    8.83
  -1  10   9   41.89    8.54
  -1  10 -10   71.79   13.32
  -1  10 -11   -1.79   10.19
   0 -10 -11    8.37    7.77
   0  10  11    4.88    7.94
   0 -10 -10   67.64   10.34
   0  10  10   59.04    9.75
   0 -10  -9   11.47    8.84
   0  10   9    3.27    7.87
  -1 -10 -11    1.81    8.05
   1  10  11    9.25    7.87
  -1 -10 -10   44.73    9.73
   1  10  10   66.65   10.23
  -2 -10 -11   13.97    8.49
   2  10  11    7.81    7.92
  -2 -10 -10   50.55    9.93
   2  10  10   28.38    9.33
  -3 -10 -11    9.48    8.49
   3  10  11    6.61    7.97
   3  10  10    7.68    9.19
  -4 -10 -11   -1.91    8.12
   4  10  11    6.59    8.25
   5  10  11   46.02    9.62
  16 -11  -3    2.67    6.38
  16 -11  -2    2.54    7.41
 -16  11   2   -4.62    7.35
  16 -11  -1    7.15    7.50
 -16  11   1   11.64    8.44
  16 -11   0    2.71    7.69
 -16  11   0    5.08    8.63
  16 -11   1   26.03    8.84
 -16  11  -1   20.87    9.40
  16 -11   2    9.09    8.72
 -16  11  -2   14.48    9.41
  16 -11   3    2.05    8.82
 -16  11  -3    6.78    9.68
  15 -11  -3    0.62    7.06
  15 -11  -2   14.06    7.98
 -15  11   2    8.69    8.12
  15 -11   0   -5.37    8.40
 -15  11   0   -8.43    9.22
  15 -11   1    7.55    9.13
 -15  11  -1   -3.00    9.92
  15 -11   2   -5.84    9.38
 -15  11  -2   17.05   10.55
  15 -11   3   -1.38    9.37
 -15  11  -3    0.66   10.23
  15 -11   4    4.31    9.27
 -15  11  -4    9.04   10.22
  15 -11   5    5.71    9.44
 -15  11  -5   -0.88    9.82
  14 -11  -3    9.18    7.88
 -14  11   3   -3.12    7.15
  14 -11  -2    2.70    8.21
 -14  11   2   12.14    8.26
  14 -11  -1    5.31    8.91
 -14  11   1   21.89    9.51
  14 -11   0   16.25    9.36
 -14  11   0   17.12    9.72
  14 -11   1   17.25    9.91
 -14  11  -1    9.97   11.11
  14 -11   2   12.15   10.26
 -14  11  -2   16.26   11.33
  14 -11   3    5.93    9.85
 -14  11  -3    8.72   11.00
  14 -11   4   12.04   10.33
 -14  11  -4    7.08   10.93
  14 -11   5    0.66    9.40
 -14  11  -5  -10.09    9.86
  14 -11   6    3.38    9.79
 -14  11  -6  -20.37   10.06
  13 -11  -4   11.23    6.98
  13 -11  -3    1.97    7.76
 -13  11   3   10.15    7.58
  13 -11  -2   45.55    8.92
 -13  11   2   62.72    9.56
  13 -11  -1   26.15    9.11
 -13  11   1    6.34    9.27
  13 -11   0    6.15    9.05
 -13  11   0   24.15   10.14
  13 -11   1   13.87    9.57
 -13  11  -1   16.40   10.95
  13 -11   2   81.62   12.22
 -13  11  -2   39.68   11.93
  13 -11   3   29.42   10.89
 -13  11  -3   16.26   11.75
  13 -11   4   32.56   11.61
 -13  11  -4   -9.07   11.75
  13 -11   5   11.96   10.44
 -13  11  -5   -2.00   11.54
  13 -11   6   32.04   10.65
 -13  11  -6   -4.31   10.61
  13 -11   7    1.91    9.34
 -13  11  -7    9.50    9.84
  12 -11  -4   14.82    6.92
 -12  11   4    1.57    6.55
  12 -11  -3   20.75    7.72
 -12  11   3    4.47    7.51
  12 -11  -2   25.96    8.25
 -12  11   2   20.05    8.02
  12 -11  -1   10.39    8.65
 -12  11   1   -1.97    8.79
  12 -11   0    6.20    8.86
 -12  11   0   10.05    9.61
  12 -11   1   19.55    9.71
 -12  11  -1    3.86    9.89
  12 -11   2   55.26   11.14
 -12  11  -2   26.39   11.42
  12 -11   3   18.20   10.68
 -12  11  -3  -13.30   11.59
  12 -11   4    7.97   11.27
 -12  11  -4    5.84   11.97
  12 -11   5    3.37   11.05
 -12  11  -5   -1.98   11.93
  12 -11   6   -5.93   10.87
 -12  11  -6    8.33   11.26
  12 -11   7   14.94   10.11
 -12  11  -7    4.99   10.52
  11 -11  -5    7.77    5.56
  11 -11  -4    1.55    6.15
 -11  11   4    0.99    6.41
  11 -11  -3    8.49    6.85
 -11  11   3   -1.79    6.81
  11 -11  -2   10.25    7.65
 -11  11   2    3.65    7.27
  11 -11  -1    5.15    7.98
 -11  11   1    2.51    8.05
  11 -11   0   -3.97    8.55
 -11  11   0   -7.28    8.98
  11 -11   1   -5.95    8.78
 -11  11  -1   -3.84    9.36
  11 -11   2   -3.97    9.44
 -11  11  -2   17.42   10.45
  11 -11   3    9.86    9.70
 -11  11  -3    6.58   10.73
  11 -11   4   11.46   10.80
 -11  11  -4    7.30   11.69
  11 -11   5    6.90   11.06
 -11  11  -5    2.40   11.96
  11 -11   6   -8.01   11.34
 -11  11  -6   22.04   12.11
  11 -11   7    3.01   10.33
 -11  11  -7   20.77   11.42
  11 -11   8    5.26   10.14
 -11  11  -8   -5.51   10.64
  10 -11  -5    5.86    4.85
 -10  11   5   -5.31    4.77
  10 -11  -4   -0.37    5.72
 -10  11   4    6.88    5.85
  10 -11  -3   26.79    6.72
 -10  11   3   20.14    6.55
  10 -11  -2    2.59    6.75
 -10  11   2   -3.77    6.64
  10 -11  -1   10.01    7.58
 -10  11   1    3.43    7.59
  10 -11   0    4.23    7.84
 -10  11   0    7.13    8.44
  10 -11   1    7.59    8.47
 -10  11  -1    5.15    9.12
  10 -11   3    8.61    9.37
 -10  11  -3    4.74   10.37
  10 -11   4   -1.51   10.18
 -10  11  -4  -17.01   10.59
  10 -11   5   23.76   11.14
 -10  11  -5   18.27   11.52
  10 -11   6  -10.71   10.86
 -10  11  -6    8.43   12.37
  10 -11   7   -4.07   10.72
 -10  11  -7   19.26   12.18
  10 -11   8   -6.47   10.09
 -10  11  -8   13.96   11.12
   9 -11  -5   22.57    4.37
  -9  11   5   16.12    4.42
   9 -11  -4   -3.45    5.08
  -9  11   4    2.88    5.40
   9 -11  -3    1.23    5.69
  -9  11   3   14.26    6.31
   9 -11  -2    5.31    6.43
  -9  11   2    2.22    6.42
   9 -11  -1    3.74    7.13
  -9  11   1   16.76    7.40
   9 -11   0    7.21    7.33
  -9  11   0  -10.30    7.75
   9 -11   1   -0.36    8.36
  -9  11  -1   16.46    8.55
   9 -11   2   15.87    8.73
  -9  11  -2   -3.13    9.07
   9 -11   3   -3.76    9.07
  -9  11  -3    2.14    9.83
   9 -11   4    4.22   10.00
  -9  11  -4   -6.38   10.40
   9 -11   5   40.13   11.52
  -9  11  -5   11.68   11.51
   9 -11   6   14.40   11.02
  -9  11  -6   12.65   11.51
   9 -11   7   -3.17   11.35
  -9  11  -7   -4.72   11.86
   9 -11   8    9.20   10.95
  -9  11  -8   12.00   10.94
   9 -11   9   29.70   10.57
  -9  11  -9   22.14   11.05
   8 -11 -10   12.06    5.15
  -8  11   9   19.30    4.86
   8 -11  -8    4.86    4.00
  -8  11   8    3.41    4.14
   8 -11  -7    6.73    2.80
   8 -11  -4    3.45    4.45
  -8  11   4    7.04    4.73
   8 -11  -3    2.23    5.35
  -8  11   3    6.14    5.48
   8 -11  -2    1.05    6.20
  -8  11   2   -0.27    6.20
   8 -11  -1   11.50    7.08
  -8  11   1   35.18    7.63
   8 -11   1   31.42    8.50
  -8  11  -1   20.81    8.40
   8 -11   2    2.23    8.54
  -8  11  -2    1.64    8.94
   8 -11   3    4.43    8.90
  -8  11  -3    0.02    9.37
   8 -11   4    9.28    9.50
  -8  11  -4    5.08    9.87
   8 -11   5   17.23   10.35
  -8  11  -5   29.72   11.05
   8 -11   6   -0.79   10.90
  -8  11  -6   11.39   11.62
   8 -11   8   -7.57   11.12
   8 -11   9   12.30   10.40
  -8  11  -9   10.71   11.39
   7 -11 -10   11.35    5.30
  -7  11  10   22.75    5.61
   7 -11  -9    5.74    4.73
  -7  11   9    0.81    5.36
   7 -11  -8   15.32    4.81
  -7  11   8    9.79    5.09
   7 -11  -7   14.00    3.50
  -7  11   7    7.78    3.86
  -7  11   4   -6.18    4.02
   7 -11  -3    7.86    5.05
  -7  11   3    8.37    5.12
   7 -11  -2   13.87    5.97
  -7  11   2   25.34    6.31
   7 -11  -1    7.28    6.64
  -7  11   1  -10.16    6.92
   7 -11   0   12.73    7.45
  -7  11   0   10.02    7.47
   7 -11   1    2.34    8.01
  -7  11  -1   -8.95    7.90
   7 -11   2    5.76    8.66
  -7  11  -2   10.27    8.90
   7 -11   3    3.57    8.84
  -7  11  -3   13.23    9.54
   7 -11   4    5.24    8.71
  -7  11  -4   -4.70    9.83
   7 -11   5   24.31    9.87
  -7  11  -5   24.98   10.69
   7 -11   6  -10.13    9.78
  -7  11  -6    4.37   10.56
   7 -11   7   14.99   11.11
  -7  11  -7   13.76   11.80
   7 -11   8   21.28   11.94
   7 -11   9   12.66   10.94
  -7  11  -9   -0.67   11.08
   7 -11  10    2.62    9.76
  -7  11 -10   25.82   10.79
   6 -11 -10   -2.54    5.59
  -6  11  10    5.50    5.84
   6 -11  -9    3.81    5.48
  -6  11   9   -2.51    6.18
  -6  11   8   48.03    6.52
  -6  11   7    0.57    4.27
  -6  11   1    0.77    6.66
   6 -11   0    3.43    7.34
  -6  11   0   13.77    7.75
   6 -11   1   11.64    7.92
  -6  11  -1    9.25    7.95
   6 -11   2   19.48    8.40
  -6  11  -2    8.95    8.77
   6 -11   3    1.42    8.49
  -6  11  -3   -0.51    9.42
   6 -11   4   -4.07    8.84
  -6  11  -4    5.40    9.22
   6 -11   5    6.71    9.29
  -6  11  -5    6.47   10.14
   6 -11   6    4.11    9.65
  -6  11  -6   13.05   10.18
   6 -11   7   -0.73   10.56
   6 -11   8   43.89   12.30
  -6  11  -8   54.16   12.79
   6 -11   9  -18.22   10.92
  -6  11  -9    6.23   11.64
   6 -11  10   18.51   10.69
  -6  11 -10    5.28   10.14
   5 -11 -10   24.28    6.23
  -5  11  10   16.35    6.63
   5 -11  -9    6.86    6.07
  -5  11   9    1.49    6.90
   5 -11  -8   44.34    6.18
  -5  11   8   27.52    6.35
   5 -11   2   17.11    8.72
  -5  11  -2   19.87    8.94
   5 -11   3    3.50    8.43
  -5  11  -3   11.16    9.02
   5 -11   4   24.56    9.47
  -5  11  -4   31.82    9.58
   5 -11   5   -9.56    8.86
  -5  11  -5    1.67    9.40
   5 -11   6   76.87   11.55
  -5  11  -6   63.12   11.99
   5 -11   7   -7.19   10.30
   5 -11   8   32.77   11.84
  -5  11  -8   35.59   12.30
   5 -11   9  -12.47   11.18
  -5  11  -9   -3.78   11.57
   5 -11  10   -2.86   10.14
  -5  11 -10   -8.14   10.43
   4 -11 -11    9.26    6.91
   4 -11 -10   -0.94    6.35
  -4  11  10    5.16    7.01
   4 -11  -9   12.16    6.68
  -4  11   9   11.87    7.19
  -4  11   8   56.87    7.25
  -4  11  -4   15.63    9.14
   4 -11   5    0.77    9.30
  -4  11  -5    0.28    9.58
   4 -11   6   26.34    9.78
  -4  11  -6   -4.15    6.76
   4 -11   7    5.42   10.12
  -4  11  -7   24.13   11.43
   4 -11   8   64.43   12.47
  -4  11  -8   57.03   13.11
   4 -11   9   11.98   11.62
  -4  11  -9    3.41   11.07
   4 -11  10    2.99    9.90
  -4  11 -10   22.74   11.27
   3 -11 -11    3.74    6.77
  -3  11  11    2.33    6.80
   3 -11 -10    4.78    6.44
  -3  11  10   -4.09    7.16
   3 -11  -9   16.10    7.06
  -3  11   9   -4.38    7.33
   3 -11   7   -2.93    8.95
  -3  11  -7   11.50   10.30
   3 -11   8    1.83   10.58
  -3  11  -8    7.59   11.48
   3 -11   9   21.37   11.39
  -3  11  -9   -4.95   11.37
   3 -11  10    0.49    9.78
  -3  11 -10   -5.98   10.84
  -3  11 -11   20.49    9.93
   2 -11 -11   -5.62    6.73
  -2  11  11   -0.27    6.73
   2 -11 -10    7.70    7.44
  -2  11  10   10.23    7.47
  -2  11   9   10.94    7.44
  -2  11  -9    6.38   11.55
  -2  11 -10    0.23   10.72
   2 -11  11   -5.52    8.95
  -2  11 -11    7.41    9.92
   1 -11 -11    9.63    7.51
  -1  11  11    1.64    7.18
   1 -11 -10   17.91    8.14
  -1  11  10    0.53    7.72
  -1  11 -11   15.57    9.49
   0 -11 -11   35.20    8.27
   0  11  11   35.63    8.06
   0 -11 -10   13.34    8.16
   0  11  10   -3.35    7.50
  -1 -11 -11    4.71    7.50
   1  11  11    9.30    7.56
   1  11  10    7.78    8.09
  -2 -11 -11   -6.83    7.65
   2  11  11   -7.69    7.30
   3  11  11    8.83    7.99
  16 -12  -1    0.26    7.02
 -16  12   1   -1.26    8.02
  16 -12   0   33.78    8.38
 -16  12   0   28.62    9.45
  16 -12   1    4.50    8.22
 -16  12  -1    2.77    9.11
  15 -12  -4   -4.65    6.07
  15 -12  -3   23.49    7.01
 -15  12   3   16.55    7.00
  15 -12  -2    6.77    7.22
 -15  12   2   -5.22    7.45
  15 -12  -1   -6.66    7.55
 -15  12   1   -5.50    8.26
  15 -12   0    8.80    8.02
 -15  12   0  -10.43    8.62
  15 -12   1   -0.90    8.40
 -15  12  -1    5.09    9.07
  15 -12   2   -3.63    8.63
 -15  12  -2   -0.97    9.22
  15 -12   3   16.73    8.94
 -15  12  -3   22.11    9.61
  15 -12   4   12.21    9.19
 -15  12  -4    7.61    9.77
  14 -12  -4    1.54    6.18
 -14  12   4   -0.23    6.11
  14 -12  -3   54.05    8.27
 -14  12   3   37.85    7.62
  14 -12  -2    1.58    7.52
 -14  12   2    7.45    8.05
  14 -12  -1   21.89    8.66
 -14  12   1    3.34    8.76
  14 -12   0   29.27    9.25
 -14  12   0   30.20    9.87
  14 -12   1   15.78    9.29
 -14  12  -1    6.58    9.83
  14 -12   2   13.86    9.51
 -14  12  -2    0.09   10.42
  14 -12   3   70.70   11.41
 -14  12  -3   84.78   12.93
  14 -12   4    6.71    9.45
 -14  12  -4   -0.53   10.04
  14 -12   5   18.69    9.85
 -14  12  -5   37.23   11.25
  13 -12  -5   65.12    7.06
  13 -12  -4   -4.83    6.34
 -13  12   4    2.58    6.42
  13 -12  -3   -6.87    7.47
 -13  12   3    6.44    7.41
  13 -12  -2   20.83    8.52
 -13  12   2   16.35    8.33
  13 -12  -1  126.64   12.42
 -13  12   1  118.62   12.70
  13 -12   0   13.75    9.40
 -13  12   0   18.85    9.80
  13 -12   2    9.29   10.28
 -13  12  -2    3.48   11.06
  13 -12   3    5.38   10.25
 -13  12  -3   10.05   10.99
  13 -12   4   -1.20    9.82
 -13  12  -4    9.51   10.78
  13 -12   5   61.90   11.72
 -13  12  -5   58.40   11.96
  13 -12   6    3.69    9.59
 -13  12  -6   17.57   10.14
  12 -12  -5   68.44    6.97
 -12  12   5   72.79    7.07
  12 -12  -4   15.84    7.08
 -12  12   4   12.65    6.78
  12 -12  -2   11.58    8.45
 -12  12   2   16.23    8.40
  12 -12  -1  195.84   15.08
 -12  12   1  212.47   15.91
  12 -12   0   94.54   11.54
 -12  12   0   59.55   10.97
  12 -12   1  173.51   15.07
 -12  12  -1  173.05   15.76
  12 -12   2   24.82   10.45
 -12  12  -2   25.57   11.79
  12 -12   4   23.79   11.35
 -12  12  -4   29.31   11.97
  12 -12   5   71.30   12.73
 -12  12  -5   68.31   13.41
  12 -12   6    2.59    9.49
 -12  12  -6    6.33   10.56
  12 -12   7   29.78   10.18
 -12  12  -7   24.12   10.64
  11 -12  -6    6.75    4.20
  11 -12  -5   -2.64    5.34
 -11  12   5   11.77    5.48
  11 -12  -3   10.56    7.65
 -11  12   3   17.83    7.85
  11 -12  -2    4.40    7.85
 -11  12   2    6.90    7.93
  11 -12  -1   10.14    8.65
 -11  12   1   18.60    8.75
  11 -12   0   -4.33    8.73
 -11  12   0    5.77    9.25
  11 -12   1    1.29    9.41
 -11  12  -1   29.75   10.26
  11 -12   2   14.44   10.28
 -11  12  -2   15.54   10.87
  11 -12   3    1.84   10.37
 -11  12  -3   29.48   11.93
  11 -12   4   60.98   12.21
 -11  12  -4   46.38   12.87
  11 -12   5   16.41   11.26
 -11  12  -5    1.04   11.98
  11 -12   6   27.50   11.01
 -11  12  -6    1.67   10.54
  11 -12   7   10.66   10.39
 -11  12  -7  -10.42   10.36
  10 -12  -6    8.87    3.91
  10 -12  -5   22.88    5.16
 -10  12   5   17.34    5.36
  10 -12  -4    5.44    6.27
 -10  12   4    6.83    6.37
  10 -12  -3   23.27    6.76
 -10  12   3    9.28    6.94
  10 -12  -2   54.89    8.44
 -10  12   2   46.46    8.01
  10 -12  -1   14.12    7.99
 -10  12   1   27.55    7.99
  10 -12   0    7.36    8.06
 -10  12   0   -8.68    8.62
  10 -12   1   23.51    8.85
 -10  12  -1    7.44    9.23
  10 -12   2   72.08   11.21
 -10  12  -2   43.31   10.94
  10 -12   3    7.63    9.59
 -10  12  -3    5.94   10.39
  10 -12   4   18.32   10.56
 -10  12  -4   -6.72   11.27
  10 -12   5   19.28   11.20
 -10  12  -5   43.05   12.89
  10 -12   6   17.33   11.43
 -10  12  -6    2.43   11.72
  10 -12   7   21.62   11.02
 -10  12  -7    3.08   11.15
  10 -12   8   -6.68    9.36
 -10  12  -8   27.83   11.01
   9 -12  -9   -0.47    3.62
  -9  12   9    5.90    3.69
   9 -12  -8   15.57    2.91
   9 -12  -6  111.93    6.66
  -9  12   6  122.11    7.28
   9 -12  -5    1.90    4.42
  -9  12   5   -2.50    4.61
   9 -12  -4  519.84   27.39
  -9  12   4  537.63   28.29
   9 -12  -3    1.38    6.05
  -9  12   3    4.13    6.11
   9 -12  -2  101.32    9.47
  -9  12   2  107.07    9.47
   9 -12  -1    1.31    7.47
  -9  12   1   -5.38    7.29
   9 -12   0   -6.40    7.61
  -9  12   0   -4.00    8.11
   9 -12   1    5.52    8.38
  -9  12  -1   -0.77    8.86
   9 -12   2   70.66   10.43
  -9  12  -2   89.86   11.96
   9 -12   3    3.26    9.09
  -9  12  -3   16.10   10.04
   9 -12   4  517.74   31.17
  -9  12  -4  515.18   31.42
   9 -12   5    0.57   10.43
  -9  12  -5   13.28   11.51
   9 -12   6  113.43   14.58
  -9  12  -6  139.32   16.23
   9 -12   7  -12.55   10.61
  -9  12  -7   -8.77   11.35
   9 -12   8    1.64   10.05
  -9  12  -8   -1.22   10.54
   8 -12  -9   -2.00    4.27
  -8  12   9   10.66    4.15
   8 -12  -8   11.20    3.50
  -8  12   8   15.28    3.76
  -8  12   5   20.05    4.19
   8 -12  -4   10.80    4.79
  -8  12   4    4.57    5.06
   8 -12  -3   27.20    5.84
  -8  12   3   22.90    6.08
   8 -12  -2    8.27    6.25
  -8  12   2   13.42    6.31
   8 -12  -1    4.43    7.06
  -8  12   1   13.58    6.95
   8 -12   0  187.58   13.56
  -8  12   0  226.31   15.69
   8 -12   1   10.75    7.97
  -8  12  -1   10.19    8.33
   8 -12   2   16.06    8.50
  -8  12  -2   14.64    9.07
   8 -12   3   19.14    9.51
  -8  12  -3   32.35   10.32
   8 -12   4    5.48    9.77
  -8  12  -4    6.31   10.41
   8 -12   5   27.50   10.63
  -8  12  -5    4.92   10.75
   8 -12   6   18.78   10.72
  -8  12  -6   11.98   11.77
   8 -12   7    6.93   10.73
  -8  12  -7    6.72   11.61
   8 -12   8    9.19   10.37
  -8  12  -8    7.77   10.78
   8 -12   9   13.85    9.94
  -7  12   9    2.51    4.83
   7 -12  -8   21.36    4.27
  -7  12   8   16.87    4.65
   7 -12  -2   22.36    6.12
  -7  12   2    7.42    5.97
   7 -12  -1   64.68    8.23
  -7  12   1   47.63    7.80
   7 -12   0   10.75    7.23
  -7  12   0    7.61    7.55
   7 -12   1   46.96    8.70
  -7  12  -1   51.67    9.16
   7 -12   2   11.72    8.18
  -7  12  -2   31.66    9.33
   7 -12   3   11.13    8.83
  -7  12  -3   15.33    9.72
   7 -12   4  166.77   14.85
  -7  12  -4  150.14   14.76
   7 -12   5   -0.59    9.95
  -7  12  -5    1.47   10.54
   7 -12   6   -0.14   10.40
  -7  12  -6   14.69   11.66
   7 -12   7    5.77   11.52
  -7  12  -7   -5.94   11.66
   7 -12   8   19.17   11.00
  -7  12  -8    5.77    7.90
   7 -12   9    5.87    9.83
  -7  12  -9   -3.15   10.22
   6 -12  -9    8.05    4.79
  -6  12   9    3.29    5.57
  -6  12   8    8.26    5.13
  -6  12   0   15.65    7.52
   6 -12   1   31.86    8.15
  -6  12  -1   33.70    8.42
   6 -12   2   14.89    8.55
  -6  12  -2   30.53    9.42
   6 -12   3   -3.12    8.71
  -6  12  -3    4.50    9.12
   6 -12   4   -5.05    9.05
  -6  12  -4   10.08    9.62
   6 -12   5   32.48    9.98
  -6  12  -5   18.42   10.35
   6 -12   6    0.16   10.40
  -6  12  -6    8.37   10.78
   6 -12   7  150.02   15.46
  -6  12  -7  139.55   15.90
   6 -12   8   17.65   11.34
   6 -12   9   -0.94   10.01
  -6  12  -9   17.46   10.77
   5 -12 -10   -5.49    5.27
  -5  12  10   11.05    5.95
   5 -12  -9    6.88    5.45
  -5  12   9   -3.30    5.97
   5 -12   3  165.84   14.23
  -5  12  -3  151.07   13.83
   5 -12   4   30.96    9.25
  -5  12  -4   47.76   10.40
   5 -12   5    9.71    9.42
  -5  12  -5   -7.87    9.97
   5 -12   6   16.01    9.92
  -5  12  -6   11.04   10.82
   5 -12   7   -2.34   10.41
  -5  12  -7   23.61    9.02
   5 -12   8   30.40   11.70
  -5  12  -8    3.26   11.69
   5 -12   9    1.72   10.40
  -5  12  -9    9.09   11.37
   5 -12  10  -17.72    9.70
  -5  12 -10    6.18    9.91
   4 -12 -10    3.59    5.74
  -4  12  10    7.20    6.20
  -4  12   9   45.12    7.25
  -4  12  -5  105.39   12.46
   4 -12   6    1.98    9.43
  -4  12  -6  -16.80    9.58
   4 -12   7  460.64   28.90
   4 -12   8   11.70   11.70
  -4  12  -8    9.12   11.33
   4 -12   9   54.84   12.14
  -4  12  -9   53.34   12.87
   4 -12  10    0.23    9.62
  -4  12 -10   -4.49   10.12
   3 -12 -10   15.51    6.54
  -3  12  10   15.57    6.65
  -3  12  -8   53.98   12.47
   3 -12   9   25.04   11.11
  -3  12  -9   -8.97   10.91
   3 -12  10    8.87   10.05
  -3  12 -10    0.35   10.26
   2 -12 -10    2.81    6.52
  -2  12  10   -0.86    6.49
  -2  12 -10  -14.77   10.23
  -1  12  10   24.41    7.33
  15 -13  -2    9.41    7.11
 -15  13   2   12.37    7.42
  15 -13  -1    8.18    7.18
 -15  13   1    1.23    7.57
  15 -13   0    9.05    7.84
 -15  13   0   -3.19    7.91
  15 -13   1   -1.41    7.77
 -15  13  -1   -4.01    8.85
  15 -13   2   -3.85    8.34
 -15  13  -2    3.56    9.01
  14 -13  -4    5.71    6.05
 -14  13   4    9.52    5.99
  14 -13  -3   -9.54    6.38
 -14  13   3   -3.66    6.69
  14 -13  -2    1.98    7.12
 -14  13   2   -7.95    7.29
  14 -13  -1   28.86    8.47
 -14  13   1   29.45    8.76
  14 -13   1    2.29    8.58
 -14  13  -1   25.83    9.92
  14 -13   2    1.52    8.80
 -14  13  -2    9.28    9.73
  14 -13   3    4.88    8.87
 -14  13  -3    9.79    9.35
  14 -13   4    5.02    9.37
 -14  13  -4    4.74   10.34
  13 -13  -5   11.20    5.19
 -13  13   5    1.72    4.95
  13 -13  -4   29.90    6.48
 -13  13   4   40.90    6.73
  13 -13  -3    6.52    6.94
 -13  13   3   10.92    6.90
  13 -13  -2  131.30   11.80
 -13  13   2  134.32   11.96
  13 -13  -1   43.66    9.43
 -13  13   1   27.54    9.54
  13 -13   0    8.05    8.68
 -13  13   0   -3.35    9.47
  13 -13   1   36.88    9.72
 -13  13  -1   52.12   10.92
  13 -13   2  125.71   13.18
 -13  13  -2  144.90   14.86
  13 -13   4   55.96   11.07
 -13  13  -4   39.47   11.42
  13 -13   5   15.97    9.64
 -13  13  -5   11.99   10.00
  12 -13  -6  118.39    7.95
  12 -13  -4    0.28    6.49
 -12  13   4   -2.59    6.36
  12 -13  -3  110.22   10.44
 -12  13   3  110.17   10.33
  12 -13  -2   45.79    8.83
 -12  13   2   23.57    8.76
  12 -13  -1   41.68    9.59
 -12  13   1   36.47   10.00
  12 -13   1   38.33   10.27
 -12  13  -1   51.47   11.66
  12 -13   2   55.87   10.86
 -12  13  -2   29.20   11.09
  12 -13   3  105.75   13.13
 -12  13  -3   91.67   13.26
  12 -13   4   -8.35    9.83
 -12  13  -4    6.07   10.72
  12 -13   5   13.28    9.94
 -12  13  -5   30.61   10.91
  12 -13   6  160.84   15.34
 -12  13  -6  149.90   15.60
  11 -13  -6    6.27    3.93
 -11  13   6   15.14    4.05
  11 -13  -5    7.51    5.29
 -11  13   5    7.78    5.40
  11 -13  -4   18.86    6.79
 -11  13   4   25.56    6.86
  11 -13  -3    9.11    7.35
 -11  13   3    1.37    7.23
  11 -13  -2   -0.02    7.97
 -11  13   2   -7.37    8.07
  11 -13  -1  324.46   20.48
 -11  13   1  378.42   23.14
  11 -13   0   -9.07    8.95
 -11  13   0   19.65    9.50
  11 -13   1  360.16   23.10
 -11  13  -1  326.09   22.13
  11 -13   2    2.45   10.02
 -11  13  -2   11.11   11.23
  11 -13   3    5.93   10.21
 -11  13  -3    7.27   10.92
  11 -13   4    4.69   10.52
 -11  13  -4   14.78   11.68
  11 -13   5    3.28   10.43
 -11  13  -5   13.84   10.77
  11 -13   6    7.92    9.59
 -11  13  -6   11.47   10.47
  11 -13   7   -2.87    9.52
 -11  13  -7   -5.42   10.08
  10 -13  -5   76.77    6.88
 -10  13   5   79.34    7.29
  10 -13  -4   12.68    6.65
 -10  13   4    9.83    6.31
  10 -13  -3   30.42    7.54
 -10  13   3   13.90    7.34
  10 -13  -2   10.71    7.66
 -10  13   2   32.31    8.12
  10 -13  -1   -6.36    8.25
 -10  13   1   11.82    8.41
  10 -13   0   74.47   10.26
 -10  13   0   44.89    9.98
  10 -13   1    6.85    9.14
 -10  13  -1   -7.06    9.50
  10 -13   2   19.20    9.99
 -10  13  -2   23.53   10.78
  10 -13   3   13.68   10.34
 -10  13  -3    9.69   11.28
  10 -13   4   28.03   10.76
 -10  13  -4   26.60   11.99
  10 -13   5   90.85   13.35
 -10  13  -5   80.00   13.97
  10 -13   6   32.07   10.98
 -10  13  -6   40.84   11.27
  10 -13   7   -6.68    9.66
 -10  13  -7   22.46   10.45
  -9  13   6    0.81    3.43
   9 -13  -5  383.77   20.37
  -9  13   5  443.08   23.32
   9 -13  -4   11.89    6.09
  -9  13   4   17.26    6.07
   9 -13  -3  775.68   40.49
  -9  13   3  789.52   41.18
   9 -13  -2   25.68    7.63
  -9  13   2   37.50    7.65
   9 -13  -1  162.46   12.69
  -9  13   1  170.72   13.04
   9 -13   0  -17.80    7.94
  -9  13   0   -3.85    8.49
   9 -13   1  162.11   13.73
  -9  13  -1  122.92   12.64
   9 -13   2   26.08    9.77
  -9  13  -2   25.00   10.50
   9 -13   3  821.39   45.20
  -9  13  -3  777.89   43.76
   9 -13   5  491.58   30.53
  -9  13  -5  516.00   32.29
   9 -13   6    9.34   10.69
  -9  13  -6    6.26   11.36
   9 -13   7   51.19   11.40
  -9  13  -7   48.44   11.82
   9 -13   8    2.22    9.47
  -9  13  -8    4.05   10.28
  -8  13   8    6.45    3.09
  -8  13   4   11.89    5.54
   8 -13  -3  287.48   16.82
  -8  13   3  284.46   16.55
   8 -13  -2   15.61    6.78
  -8  13   2    4.41    6.30
   8 -13   0  124.90   11.40
  -8  13   0  123.85   11.59
   8 -13   1    4.38    8.29
  -8  13  -1   21.94    8.75
   8 -13   2   15.35    8.82
  -8  13  -2   -4.40    9.36
   8 -13   3  312.48   21.00
  -8  13  -3  272.94   19.82
   8 -13   4   36.76   10.99
  -8  13  -4    9.54   10.55
   8 -13   5   43.53   11.71
  -8  13  -5    5.12   11.51
   8 -13   6  125.13   14.92
  -8  13  -6  125.25   15.55
   8 -13   7   35.60   11.07
  -8  13  -7   24.19   11.78
   8 -13   8    5.58    9.73
  -8  13  -8    6.22   10.82
  -7  13   9   20.79    4.69
  -7  13   1  277.59   17.14
   7 -13   0   -5.43    7.34
  -7  13   0    1.65    7.69
   7 -13   1  301.32   19.22
  -7  13  -1  284.34   18.69
   7 -13   2   81.49   10.43
  -7  13  -2   67.73   10.63
   7 -13   3   27.62    9.43
  -7  13  -3   18.82   10.23
   7 -13   4   99.90   12.63
  -7  13  -4   76.49   12.15
   7 -13   5   73.42   12.40
  -7  13  -5   96.90   13.33
   7 -13   6   42.84   11.21
  -7  13  -6   45.12   12.54
   7 -13   7   -0.59    9.93
  -7  13  -7    0.94   11.39
   7 -13   8   43.89   11.00
  -7  13  -8   58.16   12.42
   7 -13   9   54.90   11.94
  -6  13   9    1.30    4.76
  -6  13  -1    5.66    7.66
   6 -13   2  500.88   28.92
  -6  13  -2  544.37   31.23
   6 -13   3    7.80    9.02
  -6  13  -3   11.40    9.22
   6 -13   4   67.18   11.08
  -6  13  -4   82.70   12.14
   6 -13   5   23.67   10.47
  -6  13  -5   24.75   10.89
   6 -13   6   16.47   10.87
  -6  13  -6   28.47   11.22
   6 -13   7   76.07   12.58
  -6  13  -7  101.50   14.33
   6 -13   8    3.08   10.33
  -6  13  -8   -1.30   10.06
   6 -13   9    1.95    9.48
  -6  13  -9   -6.83   10.30
  -5  13  -4   52.25   10.84
   5 -13   5   15.71    9.83
  -5  13  -5    6.77   10.39
   5 -13   6  552.40   33.09
  -5  13  -6  592.99   35.47
   5 -13   7   23.29   10.97
  -5  13  -7    8.93   11.36
   5 -13   8    1.43   10.37
   5 -13   9    6.31    9.77
  -5  13  -9   18.44   10.41
  -4  13  -6  853.02   48.58
  -4  13  -7   15.86   11.47
   4 -13   8  130.83   14.65
  -4  13  -8   99.34   14.34
   4 -13   9   10.41   10.14
  -4  13  -9   36.62   11.54
  -3  13  10   21.70    6.52
  -3  13  -9   -1.40   10.84
  14 -14  -2   -5.88    6.76
 -14  14   2    0.50    7.11
  14 -14  -1   11.05    7.48
 -14  14   1   -3.54    7.63
  14 -14   0   12.80    7.86
 -14  14   0    9.27    8.44
  14 -14   1    4.44    7.66
 -14  14  -1   16.10    9.20
  14 -14   2   -0.26    8.14
 -14  14  -2   14.43    9.64
  13 -14  -4   -9.68    5.86
 -13  14   4   -2.56    5.79
  13 -14  -3   32.02    7.22
 -13  14   3   39.78    7.26
  13 -14  -2   18.68    7.36
 -13  14   2   -1.80    7.22
  13 -14  -1    5.04    7.87
 -13  14   1   -4.42    8.02
  13 -14   0    5.74    7.98
 -13  14   0    9.52    8.84
  13 -14   1   10.47    8.36
 -13  14  -1   13.05    9.26
  13 -14   2    2.56    8.41
 -13  14  -2  -10.54    9.40
  13 -14   3   21.99    9.11
 -13  14  -3   30.48   10.18
  13 -14   4    4.64    9.00
 -13  14  -4    8.87    9.56
  12 -14  -5    1.04    4.98
 -12  14   5    2.34    5.01
  12 -14  -4    9.75    5.87
 -12  14   4   -7.29    5.85
  12 -14  -3   12.87    6.80
 -12  14   3    9.37    6.93
  12 -14  -2    9.13    7.72
 -12  14   2    1.49    7.52
  12 -14  -1    2.26    8.26
 -12  14   1    6.21    8.36
  12 -14   0   19.79    8.70
 -12  14   0   10.66    9.27
  12 -14   1   -0.14    8.54
 -12  14  -1    7.12    9.57
  12 -14   2    3.36    9.14
 -12  14  -2   -5.37    9.89
  12 -14   3    8.16    9.20
 -12  14  -3  -13.48    9.85
  12 -14   4  -13.21    9.07
 -12  14  -4   18.34   10.51
  12 -14   5    4.45    9.20
 -12  14  -5    0.58   10.14
  11 -14  -6    5.30    3.74
 -11  14   6   -7.70    3.83
  11 -14  -5   -2.67    4.77
 -11  14   5   -1.78    4.98
  11 -14  -4   -0.77    6.05
 -11  14   4    8.85    5.91
  11 -14  -3    8.45    7.13
 -11  14   3    6.43    7.07
  11 -14  -2    1.36    7.62
 -11  14   2    2.84    7.80
  11 -14  -1   10.98    8.51
 -11  14   1    2.05    8.78
  11 -14   0   -2.24    9.05
 -11  14   0    9.55    9.45
  11 -14   1    9.69    9.27
 -11  14  -1   10.52   10.36
  11 -14   2    7.48    9.54
 -11  14  -2   -0.56   10.06
  11 -14   3    6.94    9.71
 -11  14  -3   14.20   10.39
  11 -14   4    1.07    9.79
 -11  14  -4    7.26    9.92
  11 -14   5   -1.78    9.45
 -11  14  -5    5.83   10.26
  11 -14   6    4.36    9.43
 -11  14  -6    2.13    9.75
 -10  14   7    0.03    2.56
  10 -14  -5    1.00    4.76
 -10  14   5    5.80    4.95
  10 -14  -4   20.32    6.20
 -10  14   4   10.14    6.08
  10 -14  -3    2.57    6.88
 -10  14   3   11.63    6.87
  10 -14  -2   63.50    9.09
 -10  14   2   33.67    8.33
  10 -14  -1    6.06    8.35
 -10  14   1   16.50    8.75
  10 -14   0   42.24    9.49
 -10  14   0   37.39    9.52
  10 -14   1   12.75    9.27
 -10  14  -1   -7.93   10.16
  10 -14   2   32.14   10.19
 -10  14  -2   45.89   11.58
  10 -14   3    1.62    9.79
 -10  14  -3   -6.90   10.70
  10 -14   5    8.06   10.16
 -10  14  -5    4.49   10.50
  10 -14   6   23.48    9.87
 -10  14  -6   32.52   10.47
  -9  14   5    2.59    4.98
   9 -14  -4   20.15    6.41
  -9  14   4   12.18    6.05
   9 -14  -3    2.90    6.92
  -9  14   3    7.86    6.70
   9 -14  -2   15.61    7.56
  -9  14   2   16.08    7.62
   9 -14  -1   24.45    8.30
  -9  14   1    5.49    8.23
   9 -14   0   -5.04    8.29
  -9  14   0    0.70    9.13
   9 -14   1    8.77    9.11
  -9  14  -1    4.92    9.51
   9 -14   2   21.92    9.77
  -9  14  -2    7.57   10.48
   9 -14   3   -1.77    9.75
  -9  14  -3   10.21   10.95
   9 -14   4   29.91   10.69
  -9  14  -4   27.34   11.76
   9 -14   5   -3.13   10.30
  -9  14  -5   15.68   11.34
   9 -14   6    5.57    9.92
  -9  14  -6   12.69   10.51
   9 -14   7   -0.64    9.29
  -9  14  -7   15.01    9.94
  -8  14   3   12.35    7.23
  -8  14   2  132.46   10.83
   8 -14  -1    3.81    7.73
  -8  14   1   18.07    7.78
   8 -14   0   23.76    8.20
  -8  14   0    8.15    8.41
   8 -14   1   -9.56    8.58
  -8  14  -1    6.36    8.76
   8 -14   2  176.65   14.89
  -8  14  -2  177.12   15.62
   8 -14   3   27.35   10.15
  -8  14  -3   14.49   10.86
   8 -14   4    2.97   10.43
  -8  14  -4   -4.36   11.02
   8 -14   5   10.02   10.62
  -8  14  -5   25.27   11.62
   8 -14   7    4.59    9.72
  -8  14  -7    2.95   10.20
  -7  14   0   14.34    8.33
   7 -14   1   -7.70    8.13
  -7  14  -1   -1.15    8.50
   7 -14   2   -6.56    8.87
  -7  14  -2    2.08    9.79
   7 -14   3   29.41    9.73
  -7  14  -3   28.06   10.56
   7 -14   4    7.75    9.92
  -7  14  -4    0.73   10.91
   7 -14   5    9.14   10.12
  -7  14  -5  -12.07   11.40
   7 -14   6   -0.84   10.48
  -7  14  -6   -5.33   11.33
   7 -14   7    8.66    9.68
  -7  14  -7   14.05   10.25
   7 -14   8   -0.95    9.19
  -7  14  -8    3.35    9.84
  -6  14  -3    5.12    9.64
   6 -14   4    5.65    9.58
  -6  14  -4  -13.62   10.20
   6 -14   5   24.42   10.66
  -6  14  -5   12.14   11.26
   6 -14   6   11.83   10.35
  -6  14  -6   22.26   11.59
   6 -14   7   24.93   10.51
  -6  14  -7   21.74   11.12
   6 -14   8    1.62    9.54
  -6  14  -8   10.32   10.29
  -5  14  -5  195.14   17.12
   5 -14   6    8.13   10.06
  -5  14  -6   20.68   11.15
   5 -14   7  -10.93   10.28
  -5  14  -7   -1.17   10.80
   5 -14   8    7.93    9.77
  -5  14  -8   -8.71   10.39
   4 -14   9   11.34    9.65
  -4  14  -9   16.01   10.29
  13 -15  -2   -3.35    6.71
 -13  15   2   12.46    6.83
  13 -15  -1    4.62    7.04
 -13  15   1    2.59    7.42
  13 -15   0    9.68    7.41
 -13  15   0    5.16    8.14
  13 -15   1   -6.87    7.52
 -13  15  -1   -3.06    8.80
  13 -15   2  -11.61    8.32
 -13  15  -2   13.16    9.28
  12 -15  -4   10.47    5.94
 -12  15   4   -0.12    5.95
  12 -15  -3    6.06    6.34
 -12  15   3    0.31    6.06
  12 -15  -2   17.97    7.09
 -12  15   2   16.75    7.25
  12 -15  -1    6.21    7.37
 -12  15   1   -0.64    7.56
  12 -15   0   14.20    8.11
 -12  15   0    6.11    8.26
  12 -15   1   -7.55    7.69
 -12  15  -1   11.13    8.79
  12 -15   2    5.12    8.55
 -12  15  -2   -0.51    9.05
  12 -15   3    7.30    8.58
 -12  15  -3   -3.41    8.99
  11 -15  -5    1.38    4.76
 -11  15   5   -3.59    4.83
  11 -15  -4    3.67    5.42
 -11  15   4    0.67    5.54
  11 -15  -3  -13.46    6.28
 -11  15   3   -6.00    6.29
  11 -15  -2   -7.68    7.07
 -11  15   2    6.22    7.04
  11 -15  -1   -7.68    7.87
 -11  15   1    2.02    7.90
  11 -15   0    4.86    8.13
 -11  15   0  -12.15    8.50
  11 -15   1    8.49    8.37
 -11  15  -1   -6.29    9.19
  11 -15   2   12.49    9.09
 -11  15  -2    3.56    9.62
  11 -15   3    7.55    8.80
 -11  15  -3    4.65    9.71
  11 -15   4   12.04    9.14
 -11  15  -4   -7.40    9.44
  11 -15   5    1.85    9.26
 -11  15  -5    1.99   10.18
 -10  15   6   -3.14    3.54
  10 -15  -5   11.35    4.58
 -10  15   5    3.04    4.44
  10 -15  -4    5.79    5.59
 -10  15   4    6.64    5.62
  10 -15  -3    2.47    6.75
 -10  15   3   13.76    6.71
  10 -15  -2   -3.74    7.44
 -10  15   2    7.51    7.37
  10 -15  -1    4.22    8.34
 -10  15   1   15.01    8.43
  10 -15   0   44.55    9.27
 -10  15   0   28.41    9.37
  10 -15   1    9.95    9.01
 -10  15  -1    8.33    9.73
  10 -15   2    8.35    8.94
 -10  15  -2   10.71    9.79
  10 -15   3   10.42    9.51
 -10  15  -3    9.00   10.39
  10 -15   4    7.34    9.40
 -10  15  -4   14.80    9.94
  10 -15   5   -2.02    8.88
 -10  15  -5    2.12    9.47
  -9  15   4    2.78    5.64
   9 -15  -3   70.97    8.27
  -9  15   3   69.08    8.21
   9 -15  -2   19.42    7.78
  -9  15   2    7.71    7.50
   9 -15  -1   -4.16    8.36
  -9  15   1    6.02    8.55
   9 -15   0   -4.21    8.48
  -9  15   0   -2.47    8.78
   9 -15   1   12.13    9.13
  -9  15  -1   -7.80   10.02
   9 -15   2    8.76    9.29
  -9  15  -2   10.35   10.05
   9 -15   3   69.42   11.39
  -9  15  -3   94.86   12.80
   9 -15   4   -1.07    9.50
  -9  15  -4  -17.35   10.49
   9 -15   5   25.67   10.00
  -9  15  -5   16.13   10.28
   9 -15   6   -4.47    8.72
  -9  15  -6   13.37    9.92
  -8  15   1  231.43   15.99
   8 -15   0   -3.94    8.38
  -8  15   0   16.00    8.69
   8 -15   1  239.80   17.25
  -8  15  -1  270.27   19.05
   8 -15   2    4.54    9.62
  -8  15  -2    4.23   10.36
   8 -15   3   95.13   12.25
  -8  15  -3   80.84   12.37
   8 -15   4   16.75   10.11
  -8  15  -4   21.41   11.16
   8 -15   5   25.19   10.49
  -8  15  -5   12.90   10.48
   8 -15   6   13.92    9.38
  -8  15  -6    5.74   10.01
   8 -15   7   21.32    9.86
  -8  15  -7   15.91    9.93
  -7  15  -1   27.03    9.16
   7 -15   2   20.32    9.29
  -7  15  -2   26.50   10.41
   7 -15   3   25.97    9.72
  -7  15  -3   38.34   11.26
   7 -15   4    2.91   10.04
  -7  15  -4   -9.62   10.69
   7 -15   5   10.40   10.33
  -7  15  -5    4.81   10.57
   7 -15   6   13.96    9.87
  -7  15  -6   11.99   10.16
   7 -15   7   19.76    9.41
  -7  15  -7    8.29    9.33
  -6  15  -4   24.92   10.84
   6 -15   5   29.69   10.72
  -6  15  -5   14.66   10.84
   6 -15   6   -0.34    9.92
  -6  15  -6   15.64   10.55
   6 -15   7    6.77    9.49
  -6  15  -7   13.01    9.69
  -5  15  -6   33.05   11.04
  -5  15  -7   -7.40    9.89
   5 -15   8   12.47    9.77
  -5  15  -8    6.92   10.14
  12 -16  -1   30.00    7.50
 -12  16   1   15.96    7.47
  12 -16   0   -8.06    7.12
 -12  16   0    9.82    7.92
  12 -16   1    5.62    7.84
 -12  16  -1   33.49    9.69
  11 -16  -3    9.05    6.12
 -11  16   3    7.21    5.93
  11 -16  -2    5.33    6.62
 -11  16   2    2.78    6.71
  11 -16  -1  -14.30    6.98
 -11  16   1   11.05    7.40
  11 -16   0   -0.43    7.26
 -11  16   0    0.73    7.85
  11 -16   1   -9.12    7.22
 -11  16  -1   10.69    8.43
  11 -16   2   -8.71    7.73
 -11  16  -2   -0.06    8.51
  11 -16   3    0.83    8.21
 -11  16  -3    1.37    8.98
  10 -16  -4   26.32    5.64
 -10  16   4   22.78    5.73
  10 -16  -3   -0.71    6.01
 -10  16   3    2.55    6.08
  10 -16  -1   -3.22    7.47
 -10  16   1   -7.04    7.41
  10 -16   0  117.69   11.30
 -10  16   0   97.47   11.05
  10 -16   1   17.50    8.33
 -10  16  -1    5.98    8.73
  10 -16   2   -6.14    8.47
 -10  16  -2    2.12    9.05
  10 -16   3    1.29    8.30
 -10  16  -3   11.50    9.11
  10 -16   4   45.87    9.65
 -10  16  -4   19.75    9.86
  -9  16   3    4.00    5.99
  -9  16   2   76.44    8.99
   9 -16  -1  -12.46    7.92
  -9  16   1   -3.43    7.79
   9 -16   0    8.29    7.75
  -9  16   0   22.63    8.69
   9 -16   1    9.84    8.43
  -9  16  -1    0.09    8.91
   9 -16   2  104.47   12.01
  -9  16  -2   97.86   12.19
   9 -16   3    0.58    8.77
  -9  16  -3   11.75    9.68
   9 -16   4    5.73    8.93
  -9  16  -4  -12.54    9.57
   9 -16   5   12.48    8.84
  -9  16  -5   -9.09    9.72
  -8  16   0   55.62    9.94
   8 -16   1   12.80    9.00
  -8  16  -1   10.70    9.71
   8 -16   2   49.83    9.91
  -8  16  -2   46.81   10.62
   8 -16   3   -1.44    9.19
  -8  16  -3  -11.56    9.82
   8 -16   4   86.69   11.82
  -8  16  -4  100.21   12.63
   8 -16   5  -18.55    8.91
  -8  16  -5   -3.62    9.22
   8 -16   6   13.28    9.57
  -8  16  -6   -9.56    9.58
  -7  16  -3   67.18   11.62
   7 -16   4   16.62    9.63
  -7  16  -4   -5.73   10.14
   7 -16   5   30.91    9.90
  -7  16  -5   13.07    9.70
   7 -16   6   13.51    8.73
  -7  16  -6   10.12    9.64
  -6  16  -5   73.86   12.19
   6 -16   6   -3.76    8.72
  -6  16  -6    1.09    9.42
  10 -17  -2    1.84    6.09
 -10  17   2   13.50    6.37
  10 -17  -1   -8.85    6.57
 -10  17   1    4.00    7.09
  10 -17   0    1.15    6.90
 -10  17   0    2.40    7.45
  10 -17   1    7.65    7.13
 -10  17  -1    4.56    8.37
  10 -17   2    1.43    7.85
 -10  17  -2   11.02    8.44
  -9  17   1   -1.06    7.05
   9 -17   0    1.23    7.41
  -9  17   0    3.79    7.66
   9 -17   1   -8.44    7.48
  -9  17  -1  -19.92    8.35
   9 -17   2   15.64    8.15
  -9  17  -2    9.52    8.71
   9 -17   3   11.02    8.43
  -9  17  -3    8.41    8.77
  -8  17  -1    2.08    8.50
  -8  17  -2    0.03    8.87
   8 -17   3    8.62    8.52
  -8  17  -3    9.61    8.87
   8 -17   4   -9.49    8.38
  -8  17  -4   -5.59    9.14
  -7  17  -4    2.56    8.86
   7 -17   5    9.05    8.71
  -7  17  -5    1.33    9.36
  -9  18   0   -4.79    7.69
  -8  18  -2   -1.00    7.86
   0   0   0    0.00    0.00

_computing_structure_solution     'SHELXT 2014/5 (Sheldrick, 2014)'
;
_shelx_hkl_checksum              81707
loop_
_space_group_symop_operation_xyz
'x, y, z'
'-x+1/2, -y, z+1/2'
'-x, y+1/2, -z'
'x+1/2, -y+1/2, -z+1/2'
'-x, -y, -z'
'x-1/2, y, -z-1/2'
'x, -y-1/2, z'
'-x-1/2, y-1/2, z-1/2'
loop_
_atom_site_label
_atom_site_type_symbol
_atom_site_fract_x
_atom_site_fract_y
_atom_site_fract_z
_atom_site_U_iso_or_equiv
_atom_site_adp_type
_atom_site_occupancy
_atom_site_site_symmetry_order
_atom_site_calc_flag
_atom_site_refinement_flags_posn
_atom_site_refinement_flags_adp
_atom_site_refinement_flags_occupancy
_atom_site_disorder_assembly
_atom_site_disorder_group
Si1 Si 0.4230(4) 1.0572(4) 0.6626(5) 0.015(3) Uani 1 1 d D . . . .
Si2 Si 0.3077(4) 1.0295(4) 0.8105(5) 0.021(3) Uani 1 1 d D . . . .
Si3 Si 0.2802(4) 1.0615(4) 1.0297(5) 0.017(3) Uani 1 1 d D . . . .
Si4 Si 0.1223(4) 1.0644(4) 1.0257(5) 0.014(3) Uani 1 1 d D . . . .
Si5 Si 0.0717(4) 1.0289(4) 0.8144(4) 0.008(2) Uani 1 1 d D . . . .
Si6 Si 0.1863(4) 1.0589(4) 0.6703(5) 0.019(3) Uani 1 1 d D . . . .
Si7 Si 0.4228(4) 0.8287(4) 0.6737(5) 0.014(3) Uani 1 1 d D . . . .
Si8 Si 0.3074(4) 0.8703(4) 0.8154(5) 0.019(3) Uani 1 1 d D . . . .
Si9 Si 0.2744(4) 0.8275(4) 1.0308(5) 0.017(3) Uani 1 1 d D . . . .
Si10 Si 0.1193(4) 0.8268(4) 1.0271(5) 0.018(3) Uani 1 1 d D . . . .
Si11 Si 0.0695(4) 0.8700(4) 0.8168(5) 0.014(2) Uani 1 1 d D . . . .
Si12 Si 0.1867(4) 0.8280(4) 0.6812(5) 0.024(3) Uani 1 1 d D . . . .
O1 O 0.3718(7) 1.0546(11) 0.7525(10) 0.050(5) Uani 1 1 d D . . . .
O2 O 0.3079(8) 1.0613(8) 0.9188(6) 0.035(4) Uani 1 1 d D . . . .
O3 O 0.2012(5) 1.0589(12) 1.0292(13) 0.062(7) Uani 1 1 d D . . . .
O4 O 0.0977(9) 1.0622(9) 0.9138(7) 0.043(5) Uani 1 1 d D . . . .
O5 O 0.1158(6) 1.0561(10) 0.7247(9) 0.038(4) Uani 1 1 d D . . . .
O6 O 0.2435(7) 1.0542(11) 0.7522(10) 0.052(5) Uani 1 1 d D . . . .
O7 O 0.3717(7) 0.8422(10) 0.7619(10) 0.048(5) Uani 1 1 d D . . . .
O8 O 0.3087(9) 0.8460(10) 0.9276(7) 0.048(5) Uani 1 1 d D . . . .
O9 O 0.1969(4) 0.8463(8) 1.0260(12) 0.035(4) Uani 1 1 d D . . . .
O10 O 0.0901(10) 0.8354(10) 0.9184(8) 0.053(5) Uani 1 1 d D . . . .
O11 O 0.1155(7) 0.8441(11) 0.7283(12) 0.052(5) Uani 1 1 d D . . . .
O12 O 0.2416(7) 0.8450(11) 0.7617(10) 0.051(6) Uani 1 1 d D . . . .
O13 O 0.3082(13) 0.9497(5) 0.8179(18) 0.082(7) Uani 1 1 d D . . . .
O14 O 0.0790(9) 0.9495(5) 0.8261(12) 0.047(5) Uani 1 1 d D . . . .
O15 O 0.4200(8) 1.1255(7) 0.6009(11) 0.037(5) Uani 1 1 d D . . . .
O16 O 0.4079(9) 0.9970(7) 0.5873(10) 0.041(5) Uani 1 1 d D . . . .
O17 O 0.4018(9) 0.8668(6) 0.5741(8) 0.034(5) Uani 1 1 d D . . . .
O18 O 0.1896(9) 1.1297(6) 0.6148(10) 0.039(5) Uani 1 1 d D . . . .
O19 O 0.1914(9) 1.0016(7) 0.5883(10) 0.043(5) Uani 1 1 d D . . . .
O20 O 0.1963(10) 0.8709(7) 0.5825(9) 0.047(5) Uani 1 1 d D . . . .
O21 O -0.0039(5) 1.0496(9) 0.7931(9) 0.029(4) Uani 1 1 d D . . . .
O22 O -0.0052(5) 0.8512(10) 0.7898(11) 0.045(5) Uani 1 1 d D . . . .
O23 O 0.4227(13) 0.750000 0.6487(13) 0.034(7) Uani 1 2 d DS T P . .
O24 O 0.1925(14) 0.750000 0.6552(16) 0.042(6) Uani 1 2 d DS T P . .
O25 O 0.2840(11) 0.750000 1.0563(13) 0.025(5) Uani 1 2 d DS T P . .
O26 O 0.1125(12) 0.750000 1.0590(14) 0.031(6) Uani 1 2 d DS T P . .
loop_
_atom_site_aniso_label
_atom_site_aniso_U_11
_atom_site_aniso_U_22
_atom_site_aniso_U_33
_atom_site_aniso_U_23
_atom_site_aniso_U_13
_atom_site_aniso_U_12
Si1 0.014(8) 0.009(7) 0.022(4) 0.002(4) 0.003(4) 0.004(4)
Si2 0.011(7) 0.023(7) 0.030(5) -0.003(5) 0.006(4) 0.006(4)
Si3 0.019(6) 0.006(9) 0.025(4) -0.007(5) -0.002(4) 0.004(4)
Si4 0.010(6) 0.019(9) 0.014(4) -0.014(5) 0.002(4) -0.001(4)
Si5 0.014(6) 0.009(6) 0.002(4) -0.001(4) -0.002(4) 0.001(4)
Si6 0.016(7) 0.025(7) 0.017(4) 0.006(4) 0.011(4) 0.000(4)
Si7 0.016(8) 0.011(7) 0.017(4) 0.004(4) 0.010(4) 0.000(4)
Si8 0.025(7) 0.024(7) 0.007(4) -0.004(4) 0.004(4) 0.002(4)
Si9 0.023(6) 0.014(7) 0.015(4) 0.004(5) -0.004(4) -0.003(4)
Si10 0.015(6) 0.017(8) 0.021(5) 0.004(5) 0.000(4) -0.008(4)
Si11 0.005(6) 0.011(6) 0.027(5) -0.002(4) 0.001(4) 0.004(4)
Si12 0.005(7) 0.036(8) 0.029(5) -0.007(5) 0.005(4) -0.002(5)
O1 0.030(9) 0.074(15) 0.046(8) -0.008(8) 0.018(7) -0.012(9)
O2 0.031(11) 0.042(12) 0.033(6) -0.008(7) 0.009(6) -0.015(8)
O3 0.015(7) 0.10(2) 0.071(11) -0.020(13) 0.004(7) 0.009(9)
O4 0.041(12) 0.059(14) 0.029(6) -0.035(8) -0.014(6) -0.002(8)
O5 0.022(8) 0.061(13) 0.030(7) 0.026(8) 0.015(6) 0.012(8)
O6 0.028(8) 0.089(16) 0.039(8) 0.011(9) -0.009(7) 0.007(9)
O7 0.035(10) 0.075(15) 0.034(7) -0.007(9) 0.018(7) 0.015(9)
O8 0.043(13) 0.075(14) 0.025(6) 0.016(7) 0.008(6) 0.004(9)
O9 0.019(6) 0.017(11) 0.070(10) 0.012(9) 0.004(7) 0.000(5)
O10 0.060(14) 0.054(14) 0.046(7) 0.014(8) -0.025(8) 0.001(9)
O11 0.024(9) 0.073(15) 0.061(9) -0.034(10) 0.017(7) 0.006(8)
O12 0.032(9) 0.091(16) 0.031(7) -0.005(9) -0.002(7) -0.023(9)
O13 0.11(2) 0.022(7) 0.111(15) -0.007(8) 0.024(13) -0.005(7)
O14 0.071(14) 0.013(6) 0.057(9) -0.008(6) 0.001(9) -0.002(6)
O15 0.041(14) 0.015(10) 0.054(9) 0.013(7) -0.022(9) 0.000(7)
O16 0.069(16) 0.016(11) 0.038(7) -0.001(7) -0.029(9) 0.005(8)
O17 0.069(16) 0.013(12) 0.021(7) 0.006(7) -0.005(8) 0.004(8)
O18 0.053(14) 0.024(10) 0.039(8) 0.006(7) 0.015(8) -0.007(7)
O19 0.057(15) 0.026(11) 0.044(8) -0.005(7) 0.013(9) 0.007(8)
O20 0.061(16) 0.037(13) 0.044(8) 0.003(8) 0.008(8) -0.002(9)
O21 0.014(7) 0.047(13) 0.026(8) 0.007(8) -0.006(6) -0.001(7)
O22 0.010(8) 0.078(17) 0.046(9) -0.003(10) 0.006(7) -0.015(8)
O23 0.07(2) 0.013(9) 0.018(10) 0.000 -0.018(11) 0.000
O24 0.044(19) 0.034(9) 0.047(12) 0.000 0.018(12) 0.000
O25 0.033(17) 0.015(9) 0.027(10) 0.000 -0.024(10) 0.000
O26 0.039(18) 0.014(9) 0.039(11) 0.000 0.014(11) 0.000
loop_
_atom_type_symbol
_atom_type_description
_atom_type_scat_dispersion_real
_atom_type_scat_dispersion_imag
_atom_type_scat_source
O O 0.0000 0.0000 'International Tables Vol C Tables 4.2.6.8 and 6.1.1.4'
Si Si 0.0000 0.0000 'International Tables Vol C Tables 4.2.6.8 and 6.1.1.4'
loop_
_geom_angle_atom_site_label_1
_geom_angle_atom_site_label_2
_geom_angle_atom_site_label_3
_geom_angle
_geom_angle_site_symmetry_1
_geom_angle_site_symmetry_3
O1 Si1 O21 108.0(9) . 6_657
O1 Si1 O15 113.6(11) . .
O21 Si1 O15 108.1(9) 6_657 .
O1 Si1 O16 109.7(11) . .
O21 Si1 O16 110.0(10) 6_657 .
O15 Si1 O16 107.5(9) . .
O1 Si2 O13 109.9(12) . .
O1 Si2 O6 108.5(11) . .
O13 Si2 O6 110.3(13) . .
O1 Si2 O2 108.9(9) . .
O13 Si2 O2 109.8(12) . .
O6 Si2 O2 109.4(10) . .
O3 Si3 O19 109.5(12) . 2_575
O3 Si3 O20 109.0(12) . 2_575
O19 Si3 O20 109.8(10) 2_575 2_575
O3 Si3 O2 110.1(10) . .
O19 Si3 O2 109.8(10) 2_575 .
O20 Si3 O2 108.5(9) 2_575 .
O4 Si4 O3 109.7(10) . .
O4 Si4 O17 108.6(9) . 2_575
O3 Si4 O17 110.5(11) . 2_575
O4 Si4 O16 110.8(11) . 2_575
O3 Si4 O16 108.1(12) . 2_575
O17 Si4 O16 109.2(10) 2_575 2_575
O4 Si5 O14 107.5(10) . .
O4 Si5 O5 108.4(10) . .
O14 Si5 O5 111.1(10) . .
O4 Si5 O21 111.0(10) . .
O14 Si5 O21 111.2(10) . .
O5 Si5 O21 107.7(8) . .
O19 Si6 O6 113.1(11) . .
O19 Si6 O5 110.6(10) . .
O6 Si6 O5 108.6(9) . .
O19 Si6 O18 107.7(9) . .
O6 Si6 O18 110.2(11) . .
O5 Si6 O18 106.5(9) . .
O22 Si7 O7 107.9(10) 6_657 .
O22 Si7 O17 111.5(11) 6_657 .
O7 Si7 O17 112.1(10) . .
O22 Si7 O23 110.0(12) 6_657 .
O7 Si7 O23 108.7(12) . .
O17 Si7 O23 106.7(8) . .
O13 Si8 O7 110.7(13) . .
O13 Si8 O8 106.5(13) . .
O7 Si8 O8 108.3(10) . .
O13 Si8 O12 109.6(13) . .
O7 Si8 O12 111.0(11) . .
O8 Si8 O12 110.6(10) . .
O18 Si9 O25 108.0(9) 2_575 .
O18 Si9 O8 107.6(10) 2_575 .
O25 Si9 O8 111.1(12) . .
O18 Si9 O9 110.2(10) 2_575 .
O25 Si9 O9 110.6(11) . .
O8 Si9 O9 109.3(10) . .
O15 Si10 O10 109.3(11) 2_575 .
O15 Si10 O26 111.2(10) 2_575 .
O10 Si10 O26 108.7(12) . .
O15 Si10 O9 110.2(10) 2_575 .
O10 Si10 O9 108.9(11) . .
O26 Si10 O9 108.6(11) . .
O10 Si11 O22 109.9(11) . .
O10 Si11 O11 110.8(11) . .
O22 Si11 O11 107.4(9) . .
O10 Si11 O14 109.3(11) . .
O22 Si11 O14 111.4(11) . .
O11 Si11 O14 108.1(11) . .
O12 Si12 O20 112.0(10) . .
O12 Si12 O24 107.9(14) . .
O20 Si12 O24 109.2(10) . .
O12 Si12 O11 108.1(11) . .
O20 Si12 O11 109.5(11) . .
O24 Si12 O11 110.2(12) . .
Si2 O1 Si1 155.6(13) . .
Si2 O2 Si3 149.3(11) . .
Si3 O3 Si4 174.0(17) . .
Si5 O4 Si4 156.6(13) . .
Si5 O5 Si6 148.6(11) . .
Si2 O6 Si6 160.8(14) . .
Si8 O7 Si7 157.8(12) . .
Si8 O8 Si9 153.3(13) . .
Si9 O9 Si10 152.4(12) . .
Si11 O10 Si10 159.9(15) . .
Si11 O11 Si12 151.7(13) . .
Si12 O12 Si8 163.6(12) . .
Si8 O13 Si2 175.1(18) . .
Si5 O14 Si11 164.1(13) . .
Si10 O15 Si1 148.9(12) 2_574 .
Si4 O16 Si1 167.2(14) 2_574 .
Si4 O17 Si7 146.4(10) 2_574 .
Si9 O18 Si6 145.6(12) 2_574 .
Si3 O19 Si6 159.2(13) 2_574 .
Si12 O20 Si3 149.5(12) . 2_574
Si1 O21 Si5 146.4(9) 6_557 .
Si11 O22 Si7 148.6(11) . 6_557
Si7 O23 Si7 155.7(13) . 7_575
Si12 O24 Si12 153.2(15) . 7_575
Si9 O25 Si9 151.3(13) . 7_575
Si10 O26 Si10 147.1(14) 7_575 .
loop_
_geom_bond_atom_site_label_1
_geom_bond_atom_site_label_2
_geom_bond_distance
_geom_bond_site_symmetry_2
Si1 O1 1.609(9) .
Si1 O21 1.612(9) 6_657
Si1 O15 1.613(10) .
Si1 O16 1.618(9) .
Si2 O1 1.605(9) .
Si2 O13 1.608(10) .
Si2 O6 1.608(9) .
Si2 O2 1.610(9) .
Si3 O3 1.607(9) .
Si3 O19 1.608(9) 2_575
Si3 O20 1.612(10) 2_575
Si3 O2 1.613(9) .
Si4 O4 1.606(9) .
Si4 O3 1.609(9) .
Si4 O17 1.610(10) 2_575
Si4 O16 1.615(9) 2_575
Si5 O4 1.601(9) .
Si5 O14 1.613(10) .
Si5 O5 1.613(9) .
Si5 O21 1.618(9) .
Si6 O19 1.609(9) .
Si6 O6 1.614(9) .
Si6 O5 1.615(9) .
Si6 O18 1.615(10) .
Si7 O22 1.610(9) 6_657
Si7 O7 1.613(9) .
Si7 O17 1.618(9) .
Si7 O23 1.619(9) .
Si8 O13 1.599(10) .
Si8 O7 1.600(9) .
Si8 O8 1.606(9) .
Si8 O12 1.607(9) .
Si9 O18 1.609(9) 2_575
Si9 O25 1.610(9) .
Si9 O8 1.613(9) .
Si9 O9 1.623(9) .
Si10 O15 1.604(9) 2_575
Si10 O10 1.607(9) .
Si10 O26 1.611(9) .
Si10 O9 1.625(9) .
Si11 O10 1.606(9) .
Si11 O22 1.609(9) .
Si11 O11 1.613(9) .
Si11 O14 1.615(10) .
Si12 O12 1.601(9) .
Si12 O20 1.610(9) .
Si12 O24 1.614(9) .
Si12 O11 1.617(9) .
