#------------------------------------------------------------------------------
#$Date: 2018-01-11 12:53:52 +0200 (Thu, 11 Jan 2018) $
#$Revision: 205069 $
#$URL: file:///home/coder/svn-repositories/cod/cif/1/54/86/1548621.cif $
#------------------------------------------------------------------------------
#
# This file is available in the Crystallography Open Database (COD),
# http://www.crystallography.net/
#
# All data on this site have been placed in the public domain by the
# contributors.
#
data_1548621
loop_
_publ_author_name
'Gruene, T.'
'Teng, Li.'
'Van Genderen, E.'
'Pinar, A. B.'
'Van Bokhoven, J. A.'
_publ_section_title
;
 Characterization at the level of individual crystals: single crystal MFI
 type zeolite grains
;
_journal_name_full               'Chemistry - A European Journal'
_journal_paper_doi               10.1002/chem.201704213
_journal_year                    2017
_chemical_formula_sum            'O24 Si12'
_chemical_formula_weight         721.20
_space_group_crystal_system      orthorhombic
_space_group_IT_number           62
_space_group_name_Hall           '-P 2ac 2n'
_space_group_name_H-M_alt        'P n m a'
_symmetry_space_group_name_Hall  '-P 2ac 2n'
_symmetry_space_group_name_H-M   'P n m a'
_atom_sites_solution_hydrogens   .
_audit_creation_method           SHELXL-2017/1
_cell_angle_alpha                90
_cell_angle_beta                 90
_cell_angle_gamma                90
_cell_formula_units_Z            8
_cell_length_a                   20.235(16)
_cell_length_b                   20.135(6)
_cell_length_c                   13.673(6)
_cell_measurement_temperature    293(2)
_cell_volume                     5571(5)
_computing_structure_refinement  'SHELXL-2017/1 (Sheldrick, 2017)'
_computing_structure_solution    'SHELXT 2014/5 (Sheldrick, 2014)'
_diffrn_ambient_temperature      293(2)
_diffrn_measured_fraction_theta_full 0.603
_diffrn_measured_fraction_theta_max 0.604
_diffrn_radiation_wavelength     0.02508
_diffrn_reflns_av_R_equivalents  0.1513
_diffrn_reflns_av_unetI/netI     0.1303
_diffrn_reflns_Laue_measured_fraction_full 0.603
_diffrn_reflns_Laue_measured_fraction_max 0.604
_diffrn_reflns_limit_h_max       26
_diffrn_reflns_limit_h_min       -26
_diffrn_reflns_limit_k_max       16
_diffrn_reflns_limit_k_min       -17
_diffrn_reflns_limit_l_max       18
_diffrn_reflns_limit_l_min       -18
_diffrn_reflns_number            17799
_diffrn_reflns_point_group_measured_fraction_full 0.603
_diffrn_reflns_point_group_measured_fraction_max 0.604
_diffrn_reflns_theta_full        0.862
_diffrn_reflns_theta_max         0.956
_diffrn_reflns_theta_min         0.063
_exptl_absorpt_coefficient_mu    0.006
_exptl_crystal_density_diffrn    1.720
_exptl_crystal_F_000             940
_refine_diff_density_max         0.327
_refine_diff_density_min         -0.383
_refine_diff_density_rms         0.097
_refine_ls_extinction_coef       .
_refine_ls_extinction_method     none
_refine_ls_goodness_of_fit_ref   1.472
_refine_ls_hydrogen_treatment    undef
_refine_ls_matrix_type           full
_refine_ls_number_parameters     149
_refine_ls_number_reflns         4271
_refine_ls_number_restraints     48
_refine_ls_restrained_S_all      1.467
_refine_ls_R_factor_all          0.3398
_refine_ls_R_factor_gt           0.2618
_refine_ls_shift/su_max          0.000
_refine_ls_shift/su_mean         0.000
_refine_ls_structure_factor_coef Fsqd
_refine_ls_weighting_details
'w=1/[\s^2^(Fo^2^)+(0.2000P)^2^] where P=(Fo^2^+2Fc^2^)/3'
_refine_ls_weighting_scheme      calc
_refine_ls_wR_factor_gt          0.5387
_refine_ls_wR_factor_ref         0.5754
_reflns_Friedel_coverage         0.000
_reflns_Friedel_fraction_full    .
_reflns_Friedel_fraction_max     .
_reflns_number_gt                1657
_reflns_number_total             4271
_reflns_threshold_expression     'I > 2\s(I)'
_cod_data_source_file            zsm5_ChemEurJ.cif
_cod_data_source_block           sil1b
_cod_database_code               1548621
_shelx_shelxl_version_number     2017/1
_shelx_space_group_comment
;
The symmetry employed for this shelxl refinement is uniquely defined
by the following loop, which should always be used as a source of
symmetry information in preference to the above space-group names.
They are only intended as comments.
;
_shelx_res_file
;
TITL sil1b.res in Pnma
    sil1b.res
    created by SHELXL-2017/1 at 12:25:41 on 06-Nov-2017
REM Old TITL sil2 in P222

REM SHELXT solution in Pnma
REM R1 0.356,  Rweak 0.061,  Alpha 0.154,  Orientation as input
REM Formula found by SHELXT:  O49 Si24

CELL  0.02508  20.2350  20.1350  13.6730   90.000   90.000   90.000
ZERR    8.000   0.0160   0.0062   0.0057    0.000    0.000    0.000
LATT  1
SYMM 1/2-X, -Y, 1/2+Z
SYMM -X, 1/2+Y, -Z
SYMM 1/2+X, 1/2-Y, 1/2-Z
SFAC O  0.237  0.799  0.649  3.654  0.800 10.924  0.261 29.964  0.035 =
  0.0 0.0 1.230 0.660 16.000
SFAC Si  0.665  1.394  1.312  8.299  2.609 27.621  1.135 78.294  0.106 =
  0.0 0.0 1.230 1.110 28.100
UNIT 192 96
L.S. 10

ACTA
LIST 4
FMAP 2
EQIV $1   x-1/2, y, -z+3/2
EQIV $2   -x+1/2, -y+2, z-1/2
EQIV $3   x, -y+3/2, z
EQIV $4   -x+1/2, -y+2, z+1/2
EQIV $5   x+1/2, y, -z+3/2

DFIX 1.609 0.01 Si1  O1 Si1 O21_$5 Si1 O16 Si1 O15
DFIX 1.609 0.01 Si2  O2 Si2 O13 Si2 O6 Si2 O1
DFIX 1.609 0.01 Si3  O20_$4 Si3 O19_$4 Si3 O2 Si3 O3
DFIX 1.609 0.01 Si4  O4 Si4 O16_$4 Si4 O3 Si4 O17_$4
DFIX 1.609 0.01 Si5  O4 Si5 O5 Si5 O14 Si5 O21
DFIX 1.609 0.01 Si6  O19 Si6 O6 Si6 O5 Si6 O18
DFIX 1.609 0.01 Si7  O23 Si7 O17 Si7 O7 Si7 O22_$5
DFIX 1.609 0.01 Si8  O13 Si8 O8 Si8 O12 Si8 O7
DFIX 1.609 0.01 Si9  O18_$4 Si9 O8 Si9 O25 Si9 O9
DFIX 1.609 0.01 Si10 O15_$4 Si10 O26 Si10 O10 Si10 O9
DFIX 1.609 0.01 Si11 O10 Si11 O14 Si11 O11 Si11 O22
DFIX 1.609 0.01 Si12 O20 Si12 O24 Si12 O11 Si12 O12

PLAN 20
WGHT    0.200000
FVAR       0.66561
SI1   2    0.422858    1.055685    0.664657    11.00000    0.02979
SI2   2    0.309510    1.029965    0.813826    11.00000    0.03133
SI3   2    0.279336    1.061989    1.033587    11.00000    0.02829
SI4   2    0.122892    1.065431    1.029104    11.00000    0.02282
SI5   2    0.072189    1.028709    0.816907    11.00000    0.02444
SI6   2    0.187411    1.059944    0.674509    11.00000    0.02958
SI7   2    0.423225    0.827392    0.676359    11.00000    0.02335
SI8   2    0.309387    0.870598    0.819484    11.00000    0.02622
SI9   2    0.273672    0.827439    1.034497    11.00000    0.02434
SI10  2    0.118428    0.826366    1.029208    11.00000    0.02792
SI11  2    0.069764    0.870483    0.819357    11.00000    0.02609
SI12  2    0.188323    0.826508    0.685372    11.00000    0.03332
O1    1    0.374814    1.056496    0.758753    11.00000    0.05568
O2    1    0.309350    1.059653    0.923903    11.00000    0.04292
O3    1    0.200806    1.054595    1.030285    11.00000    0.06282
O4    1    0.095089    1.062816    0.918168    11.00000    0.05077
O5    1    0.116897    1.056081    0.728333    11.00000    0.04289
O6    1    0.243971    1.050099    0.755297    11.00000    0.05949
O7    1    0.373825    0.841334    0.766531    11.00000    0.04926
O8    1    0.308958    0.847350    0.931957    11.00000    0.03815
O9    1    0.195737    0.844414    1.025616    11.00000    0.05396
O10   1    0.085340    0.835595    0.922495    11.00000    0.06392
O11   1    0.117981    0.845075    0.733439    11.00000    0.06316
O12   1    0.243763    0.846310    0.764494    11.00000    0.05158
O13   1    0.310914    0.950338    0.820244    11.00000    0.12009
O14   1    0.079202    0.949478    0.829216    11.00000    0.05833
O15   1    0.417841    1.124978    0.606117    11.00000    0.06706
O16   1    0.409268    0.994925    0.590382    11.00000    0.05614
O17   1    0.402153    0.867354    0.579786    11.00000    0.05122
O18   1    0.191255    1.131077    0.620896    11.00000    0.05149
O19   1    0.193638    0.999899    0.597158    11.00000    0.06969
O20   1    0.195486    0.872414    0.589745    11.00000    0.08057
O21   1   -0.003128    1.047331    0.794573    11.00000    0.03078
O22   1   -0.004020    0.850430    0.790781    11.00000    0.04099
O23   1    0.423309    0.750000    0.649509    10.50000    0.05939
O24   1    0.192123    0.750000    0.651155    10.50000    0.06198
O25   1    0.283217    0.750000    1.061432    10.50000    0.04084
O26   1    0.109479    0.750000    1.062896    10.50000    0.05208
HKLF 4




REM  sil1b.res in Pnma
REM R1 =  0.2618 for    1657 Fo > 4sig(Fo)  and  0.3398 for all    4271 data
REM    149 parameters refined using     48 restraints

END

WGHT      0.2000      0.0000

REM Highest difference peak  0.327,  deepest hole -0.383,  1-sigma level  0.097
Q1    1  -0.0030  0.7500  1.3289  10.50000  0.05    0.33
Q2    1   0.3024  0.7500  0.3770  10.50000  0.05    0.29
Q3    1   0.4405  1.2141  0.8374  11.00000  0.05    0.28
Q4    1   0.3820  0.7500  1.0240  10.50000  0.05    0.28
Q5    1   0.3831  0.8426  0.9833  11.00000  0.05    0.27
Q6    1   0.1818  1.1054  0.8346  11.00000  0.05    0.27
Q7    1   0.4271  1.1485  0.8616  11.00000  0.05    0.27
Q8    1   0.4375  1.0621  0.9127  11.00000  0.05    0.27
Q9    1   0.0568  1.1864  0.6758  11.00000  0.05    0.27
Q10   1   0.0671  0.7500  1.3477  10.50000  0.05    0.26
Q11   1   0.1742  1.2062  0.8437  11.00000  0.05    0.26
Q12   1   0.1167  0.7500  0.4718  10.50000  0.05    0.26
Q13   1   0.4296  1.1155  0.8459  11.00000  0.05    0.26
Q14   1  -0.0114  1.1541  0.6649  11.00000  0.05    0.26
Q15   1   0.1677  0.7500  1.1676  10.50000  0.05    0.25
Q16   1   0.4424  1.0613  0.8684  11.00000  0.05    0.24
Q17   1   0.4418  0.7500  1.1083  10.50000  0.05    0.24
Q18   1   0.1163  0.8562  0.5064  11.00000  0.05    0.24
Q19   1   0.4372  1.1901  0.9118  11.00000  0.05    0.24
Q20   1   0.1910  0.7500  0.8751  10.50000  0.05    0.24
;
_shelx_res_checksum              79847
_shelx_hkl_file
;
   0   0   2 2395.95  229.02
   0   0  -2 2379.76  227.50
   0   0   3    9.52    8.00
   0   0  -3    5.43    7.71
   0   0   4  311.21   32.09
   0   0  -4  271.97   28.47
   0   0   5    4.19    8.09
   0   0  -5   11.05    7.90
   0   0   6 2637.83  253.21
   0   0  -6 2805.43  269.12
   0   0   7  -11.81    8.09
   0   0  -7   -2.76    8.67
   0   0   8 3207.30  307.87
   0   0  -8 3477.75  333.59
   0   0   9   -6.76    7.24
   0   0  -9   -3.05    7.33
   0   0  10   89.51   14.00
   0   0 -10   70.37   12.19
   0   0  11   -4.00    8.19
   0   0 -11    1.71    8.48
   0   0  12  184.46   23.33
   0   0 -12  248.93   28.95
   0   0  13    9.33    7.43
   0   0 -13    2.48    7.62
   0   0  15    4.76    7.05
   0   0 -15    5.62    6.48
   0   0  17   -0.38    6.29
   0   0 -17    0.95    6.48
   0  -1   1 1337.01  128.08
   0   1  -1 1185.60  113.70
   0   1   2    5.62    7.43
   0  -1   2  -12.57    6.86
   0  -1  -2   -3.52    7.14
   0   1  -2   -5.81    6.48
   0   1   3 2516.89  240.83
   0  -1   3 2461.66  235.50
   0  -1  -3 2624.50  251.02
   0   1  -3 2471.18  236.45
   0   1   4    0.67    7.62
   0  -1   4   -1.24    7.05
   0  -1  -4   12.76    7.90
   0   1  -4    2.86    6.86
   0   1   5  509.19   50.85
   0  -1   5  535.18   53.23
   0  -1  -5  455.57   45.71
   0   1  -5  479.67   47.80
   0   1   6   -0.48    8.48
   0  -1   6    7.62    8.57
   0  -1  -6    2.10    8.38
   0   1  -6   26.19    9.33
   0   1   7   74.56   12.09
   0  -1  -7   64.18   11.90
   0   1  -7   83.04   13.14
   0   1   8   11.90    7.14
   0  -1   8   -0.86    6.95
   0  -1  -8   -7.14    7.33
   0   1  -8   13.90    7.43
   0   1   9  410.72   42.47
   0  -1   9  400.91   41.61
   0  -1  -9  565.18   56.95
   0   1  -9  576.61   57.99
   0   1  10    1.71    7.43
   0  -1  10    3.52    7.71
   0  -1 -10    6.57    7.71
   0   1 -10    3.90    7.43
   0   1  11   75.52   13.14
   0  -1  11   86.56   14.38
   0  -1 -11   48.28   11.43
   0   1 -11   72.47   13.05
   0   1  12    3.90    9.14
   0  -1  12    1.90    8.76
   0  -1 -12   10.48    8.95
   0   1 -12    5.71    8.76
   0   1  13   36.00   10.00
   0  -1  13   13.14    8.48
   0  -1 -13   -2.48    7.33
   0   1 -13   10.48    7.90
   0   1  14   -0.10    6.76
   0  -1  14    3.62    7.33
   0  -1 -14   -0.57    7.05
   0   1 -14   -3.52    6.38
   0   1  15    9.05    6.67
   0  -1  15   -1.05    6.19
   0  -1 -15    7.52    6.95
   0   1 -15   11.05    7.14
   0   1  16   -1.43    6.09
   0  -1  16   -1.62    6.00
   0  -1 -16   -2.95    6.00
   0   1 -16    1.62    6.19
   0   1  17    7.05    6.48
   0  -1  17    0.10    5.90
   0  -1 -17    0.86    6.00
   0   1 -17    5.05   92.56
   0   1  18    1.52    6.57
   0  -1  18    0.19    6.29
   0  -1 -18   -0.19    7.52
   0   1 -18    3.62    6.76
   0  -2   2  708.79   68.95
   0   2  -2  636.51   62.09
   0  -2   3    7.33    7.81
   0   2  -3    4.09    7.52
   0  -2   4   -0.48    6.86
   0  -2  -4   19.71    8.28
   0   2  -4   11.71    7.05
   0   2   5   -2.57    8.00
   0  -2   5    6.95    6.86
   0  -2  -5   -1.90    8.00
   0   2  -5    6.76    6.76
   0   2   6   31.23    9.33
   0  -2   6   38.19    9.33
   0  -2  -6   38.19    9.81
   0   2  -6   40.57    9.33
   0   2   7    5.33    7.52
   0  -2   7    2.10    6.76
   0  -2  -7    8.00    8.19
   0   2  -7   15.81    7.90
   0   2   8  148.94   18.28
   0  -2   8  122.65   15.71
   0   2  -8  153.22   18.09
   0   2   9   10.95    7.24
   0  -2   9   -3.24    6.86
   0  -2  -9   -2.19    6.76
   0   2  -9   -1.05    6.09
   0   2  10   95.32   14.47
   0  -2  10   89.80   13.52
   0   2  11    2.95    8.86
   0  -2  11   -0.10    8.28
   0  -2 -11   12.00    8.95
   0   2  12   23.14   10.19
   0  -2  12   24.95    9.71
   0  -2 -12   33.23   10.76
   0   2 -12   26.00    9.71
   0   2  13    2.86    7.24
   0  -2  13    6.00    7.62
   0  -2 -13    0.10    7.05
   0   2 -13   15.14    8.00
   0   2  14   14.76    7.81
   0  -2  14    0.86    6.48
   0  -2 -14   18.95    8.67
   0   2 -14   28.85    8.67
   0   2  15   -6.76    5.90
   0  -2  15    2.38    6.29
   0  -2 -15   -1.05    6.19
   0   2 -15    1.52    6.19
   0   2  16    0.67    5.71
   0  -2  16   15.52    6.95
   0  -2 -16   -0.48    6.38
   0   2 -16    2.95    6.09
   0   2  17   -4.76    5.33
   0  -2  17    1.62    6.29
   0  -2 -17    1.33   10.00
   0   2 -17   -0.19    6.19
   0   2  18    7.71   12.47
   0  -2  18   -4.57    5.90
   0  -2 -18    0.10    9.14
   0   2 -18    0.29  354.44
   0  -3   3 1516.99  145.89
   0  -3   4   22.19    7.90
   0   3  -4    0.76    7.14
   0  -3   5 1880.76  180.84
   0   3  -5 1756.97  169.03
   0   3   6   -2.10    8.86
   0  -3   6    3.33    7.81
   0  -3  -6    8.95    8.86
   0   3  -6    2.57    8.38
   0   3   7  791.54   78.09
   0  -3  -7  811.82   79.99
   0   3  -7  620.32   61.61
   0   3   8   -0.48    7.43
   0  -3   8   10.38    6.95
   0  -3  -8   -3.90    6.76
   0   3  -8   -0.57    6.29
   0   3   9  135.80   17.33
   0  -3   9   81.90   12.38
   0  -3  -9   77.52   12.28
   0   3  -9   97.70   13.43
   0   3  10    0.29    7.71
   0  -3  10    5.81    6.76
   0  -3 -10   14.47    8.09
   0   3 -10    5.52    6.19
   0   3  11  110.85   16.38
   0  -3  11  112.94   16.19
   0  -3 -11   81.80   14.09
   0   3 -11   75.42   12.76
   0   3  12    2.38    8.86
   0  -3 -12   -4.67    8.48
   0   3 -12    4.86    7.33
   0   3  13   -1.24    6.95
   0  -3  13   12.00    7.62
   0  -3 -13    0.95    6.86
   0   3 -13    7.71    7.33
   0   3  14    0.29    6.57
   0  -3  14   -7.24    5.81
   0  -3 -14    4.00    7.14
   0   3 -14   -0.29    5.81
   0   3  15    4.86    6.19
   0  -3  15    4.19    6.29
   0  -3 -15    1.33    6.29
   0   3 -15    0.38    6.00
   0   3  16    1.90    6.09
   0  -3  16    0.76    6.00
   0  -3 -16    2.29    6.09
   0   3 -16    4.00    6.19
   0   3  17    6.09    6.67
   0  -3  17   10.57    6.76
   0  -3 -17    1.81   18.47
   0   3 -17    6.67    6.48
   0   3  18   -2.67 1034.18
   0  -3  18    3.14    6.95
   0  -3 -18   -2.57    6.67
   0   3 -18    1.43    6.19
   0  -4   4  993.23   96.37
   0  -4   5   -2.95    8.00
   0   4  -5   -6.86    7.81
   0  -4   6   77.33   12.38
   0   4  -6   62.57   10.95
   0   4   7   -1.90    7.71
   0  -4   7   13.33    7.05
   0  -4  -7    2.76    8.38
   0   4  -7   -3.62    7.14
   0   4   8    0.76    7.24
   0  -4   8    9.90    6.76
   0  -4  -8    4.29    7.24
   0   4  -8    1.52    6.67
   0   4   9   -1.52    7.62
   0  -4   9    6.86    6.48
   0  -4  -9    3.52    7.43
   0   4  -9   -1.81    6.48
   0   4  10    3.14    8.38
   0  -4  10   14.38    7.24
   0  -4 -10   16.57    8.86
   0   4 -10   15.05    7.33
   0   4  11    8.38    9.43
   0  -4  11    5.90    8.19
   0  -4 -11    7.90    8.95
   0   4 -11   -4.76    7.52
   0   4  12    5.33    8.28
   0  -4  12   10.95    8.00
   0  -4 -12    7.14    8.38
   0   4 -12    1.71    7.52
   0   4  13    3.33    7.33
   0  -4  13    4.48    6.67
   0  -4 -13    8.09    7.14
   0   4 -13   -1.24    6.76
   0   4  14    4.57    6.86
   0  -4  14   11.33    6.38
   0  -4 -14   -1.81    6.57
   0   4 -14    3.90    5.90
   0   4  15   -7.62    5.52
   0  -4  15    3.71    9.71
   0  -4 -15   -3.14    5.81
   0   4 -15   -2.57    5.62
   0   4  16    0.19    6.00
   0  -4  16   -0.57    5.43
   0  -4 -16    3.81  756.59
   0   4 -16    1.05    5.52
   0   4  17    5.24    6.19
   0  -4  17   -3.05    5.52
   0  -4 -17   -6.29    5.81
   0   4 -17    3.14    5.71
   0  -5   5  870.29   85.13
   0  -5   6    4.48    8.28
   0   5  -6   -0.57    8.28
   0  -5   7    8.95    7.24
   0   5  -7   37.04    9.33
   0  -5   8    3.62    6.57
   0   5  -8   18.76    7.52
   0   5   9 1631.27  158.37
   0  -5  -9 1485.57  144.46
   0   5  10    3.62    8.67
   0  -5  10   -4.19    6.48
   0  -5 -10    1.71    8.48
   0   5 -10    9.90    7.24
   0  -5  11  799.54   79.80
   0  -5 -11 1008.47   99.99
   0   5 -11  806.01   80.37
   0   5  12   -1.05    8.38
   0  -5  12   -7.52    7.43
   0  -5 -12    5.90    8.00
   0   5 -12    5.90    7.71
   0   5  13   22.19    8.86
   0  -5 -13   17.52    8.19
   0   5 -13   30.00    8.76
   0   5  14    6.00    6.86
   0  -5  14   -3.62    5.81
   0  -5 -14    5.90    6.76
   0   5 -14   -4.76    5.24
   0   5  15   12.09    7.14
   0  -5  15   33.14    8.67
   0  -5 -15    8.38    7.14
   0   5 -15   25.62    8.00
   0   5  16   -2.19    5.62
   0  -5  16    1.52    5.24
   0  -5 -16   -4.29    5.90
   0   5 -16    6.00    5.81
   0   5  17   14.67    7.05
   0  -5  17   21.90    7.52
   0  -5 -17    2.00    6.57
   0   5 -17   15.24    7.24
   0  -6   6  465.19   47.33
   0  -6   7    3.90    7.71
   0   6  -7   14.28    8.76
   0  -6   8   85.71   13.24
   0   6  -8   52.57   10.48
   0  -6   9    7.05    6.76
   0   6  -9    4.38    6.57
   0  -6  10  121.23   16.57
   0  -6 -10   76.85   13.71
   0   6 -10  121.32   16.47
   0   6  11   -2.38    9.33
   0  -6  11    5.71    7.52
   0  -6 -11    3.81    9.43
   0   6 -11    4.00    7.81
   0   6  12   19.33    8.95
   0  -6  12    5.90    7.71
   0  -6 -12    6.95    7.90
   0   6 -12   -6.00    7.52
   0   6  13    2.67    7.52
   0  -6  13    8.67    6.48
   0  -6 -13   -3.62    7.33
   0   6 -13    9.71    6.86
   0   6  14   27.24    8.95
   0  -6  14   34.09    8.48
   0  -6 -14   22.66    8.67
   0   6 -14   21.90    7.71
   0   6  15   -2.29    5.90
   0  -6  15    2.10    5.62
   0  -6 -15    1.33    5.90
   0   6 -15   -1.90    5.24
   0   6  16    1.52   26.85
   0  -6  16   25.62    7.90
   0  -6 -16    2.86    6.38
   0   6 -16    6.86    5.81
   0   6  17    3.71    5.90
   0  -6  17   -2.48    5.24
   0  -6 -17    0.76    6.29
   0   6 -17    4.38    5.90
   0  -7   7  118.18   16.19
   0  -7   8   -7.71    7.14
   0   7  -8    7.24    7.52
   0  -7   9   19.62    8.38
   0   7  -9    1.90    7.14
   0  -7  10    3.14    7.62
   0   7 -10   -7.90    8.38
   0  -7  11    5.81    7.90
   0   7 -11   12.86    8.09
   0   7  12    2.67    8.19
   0  -7  12    6.57    7.24
   0  -7 -12   -1.24    7.71
   0   7 -12   -2.95    7.62
   0   7  13   17.62    8.19
   0  -7  13   32.00    8.76
   0  -7 -13   15.71    8.28
   0   7 -13   32.66    8.67
   0   7  14    6.67    6.67
   0  -7  14    1.24    6.57
   0  -7 -14   -5.33    6.95
   0   7 -14    7.43    6.48
   0   7  15    3.05    6.29
   0  -7  15    1.05    5.43
   0  -7 -15    1.43    6.48
   0   7 -15    0.95    5.90
   0   7  16    1.52    6.00
   0  -7  16   -3.90    5.43
   0  -7 -16    7.71    6.57
   0   7 -16   -2.67    6.19
   0   7  17   -2.95    6.38
   0  -7  17   -2.29    5.71
   0  -7 -17    6.29    6.38
   0   7 -17    4.76    5.90
   0  -8   8   20.28    8.48
   0  -8   9    4.95    7.52
   0   8  -9   34.76    9.62
   0  -8  10  105.42   16.00
   0   8 -10  123.04   17.43
   0  -8  11   10.00    9.05
   0   8 -11   -2.95    8.38
   0  -8  12    5.14    7.14
   0   8 -12   14.67    8.19
   0  -8  13    2.00    6.00
   0  -8 -13   -0.57    7.05
   0   8 -13    1.81    6.38
   0  -8  14   35.81    9.14
   0  -8 -14   35.62   10.00
   0   8 -14   45.71   10.28
   0   8  15    4.38    6.57
   0  -8  15    1.05    5.33
   0  -8 -15   -4.48    6.29
   0   8 -15    7.14    6.38
   0   8  16   43.23   10.28
   0  -8  16   35.43    9.05
   0  -8 -16   19.14    8.28
   0   8 -16   26.95    9.14
   0   8  17    4.09    6.29
   0  -8  17    2.76    5.81
   0  -8 -17    5.71    7.05
   0   8 -17    0.29    5.71
   0  -9   9    6.29    8.76
   0  -9  10    0.29    8.57
   0   9 -10   -5.52    8.57
   0  -9  11   75.61   13.71
   0   9 -11   85.04   14.47
   0  -9  12   -7.81    7.24
   0   9 -12   -9.43    7.14
   0  -9  13    4.29    5.90
   0   9 -13    7.52    6.76
   0  -9  14    1.81    5.71
   0   9 -14   -2.10    6.09
   0  -9  15    5.24    5.90
   0  -9 -15    4.09    6.76
   0   9 -15   11.14    7.14
   0   9  16   -2.67    6.29
   0  -9  16    7.62    5.90
   0  -9 -16    5.24    6.57
   0   9 -16    3.71    6.86
   0   9  17    1.62    6.57
   0  -9  17   -0.29    6.38
   0  -9 -17   -5.14  484.05
   0   9 -17    1.90   24.00
   0 -10  10  105.32   16.19
   0 -10  11   -0.76    8.00
   0  10 -11   -3.33    8.38
   0 -10  12    0.67    7.05
   0  10 -12   11.52    7.52
   0 -10  13    7.81    7.05
   0  10 -13  -10.00    6.19
   0 -10  14   -5.24    5.14
   0  10 -14    1.90    6.76
   0 -10  15    8.19    5.81
   0  10 -15    7.14    6.67
   0 -10  16    3.81    5.71
   0 -10 -16   -1.52    6.48
   0  10 -16   -0.95    6.19
   0 -11  11   43.14   11.05
   0 -11  12   -3.90    6.67
   0  11 -12    3.14    7.14
   0 -11  13   12.09    7.33
   0  11 -13    3.43    6.76
   0 -11  14    6.57    6.76
   0  11 -14    1.14   14.19
   0 -11  15   10.76    6.86
   0  11 -15    4.95    6.76
   0 -11  16    0.19  136.46
   0  11 -16    3.05    6.86
   0 -12  12   -1.14    6.57
   0 -12  13   -2.76    6.00
   0  12 -13   -5.90    6.38
   0 -12  14    0.29    6.19
   0  12 -14   -2.00    6.67
   0 -12  15   -2.10    6.38
   0  12 -15    0.67    6.76
   0 -12  16   15.14    7.71
   0  12 -16   11.43    7.62
   0 -13  13    0.00    6.67
   0 -13  14    4.29    6.48
   0  13 -14   -5.90  147.79
   0 -13  15    2.48    6.76
   0  13 -15   -0.95    6.86
   0 -14  14   13.52    7.52
   0 -14  15    1.05    6.48
   0  14 -15   -1.05    6.57
   0 -15  15   -1.62    6.86
   1   0   1 1687.45  161.51
  -1   0   1 1916.00  182.84
   1   0  -1 1813.15  173.03
   1   0   2 2154.07  206.27
  -1   0   2 2055.98  196.55
   1   0  -2 1997.90  190.93
  -1   0  -2 1856.96  177.89
   1   0   3 2215.97  212.36
  -1   0   3 2314.05  221.41
   1   0  -3 2515.94  240.55
  -1   0  -3 2279.77  218.36
   1   0   4 4705.24  449.48
  -1   0   4 4899.51  467.86
   1   0  -4 5037.59  480.90
  -1   0  -4 4830.95  461.48
   1   0   5  560.32   55.71
  -1   0   5  586.70   57.99
   1   0  -5  718.88   70.75
  -1   0  -5  533.66   53.23
   1   0   6  543.85   54.85
  -1   0   6  543.85   54.28
   1   0  -6  547.85   55.14
  -1   0  -6  519.85   52.28
   1   0   7   37.23   10.67
  -1   0   7   36.85    9.05
   1   0  -7   44.85   10.28
  -1   0  -7   29.14    9.71
   1   0   8  833.06   82.85
  -1   0   8  967.52   94.75
   1   0  -8 1182.74  115.13
  -1   0  -8 1022.75  100.18
   1   0   9  213.31   25.33
  -1   0   9  287.50   30.85
   1   0  -9  242.74   26.85
  -1   0  -9  252.07   28.00
   1   0  10 1171.31  115.51
  -1   0  10 1101.79  108.08
   1   0 -10  915.62   90.37
  -1   0 -10 1107.51  108.94
   1   0  11  204.55   25.24
  -1   0  11  198.55   23.90
   1   0 -11  131.03   18.09
  -1   0 -11  171.32   22.00
   1   0  12   73.90   14.09
  -1   0  12   69.23   13.14
   1   0 -12  128.56   18.19
  -1   0 -12   73.33   13.90
   1   0  13   57.42   11.52
  -1   0  13   43.61    9.90
   1   0 -13   33.04    9.71
  -1   0 -13   39.62   10.38
   1   0  14   18.47    7.90
  -1   0  14   24.38    8.28
   1   0 -14   60.66   12.09
  -1   0 -14   47.23   11.14
   1   0  15    2.38    7.05
  -1   0  15    4.29    6.29
   1   0 -15    7.24    6.86
  -1   0 -15    6.48    7.24
   1   0  16   27.81    8.86
  -1   0  16   41.33    9.71
   1   0 -16   10.00    7.14
  -1   0 -16    9.24    7.33
   1   0  17    6.19    6.48
  -1   0  17   15.81    7.14
   1   0 -17   13.33    7.43
  -1   0 -17   13.24    7.24
   1   0  18   16.09    7.62
  -1   0  18   25.24    8.38
   1   0 -18   43.52   10.67
  -1   0 -18   54.09   12.28
   1  -1   1  677.65   65.61
  -1   1  -1  850.68   81.99
   1  -1   2  381.20   38.19
   1   1  -2  310.64   30.85
  -1  -1  -2  415.01   41.33
  -1  -1   2  318.16   31.62
  -1   1  -2  421.77   41.71
   1  -1   3  596.80   58.66
  -1   1   3  696.31   67.71
   1   1  -3  634.13   61.71
  -1  -1  -3  797.25   77.52
   1   1   3  731.74   71.42
  -1  -1   3  673.17   65.42
   1  -1  -3  667.46   64.95
  -1   1  -3  657.36   64.28
   1  -1   4  333.11   34.09
  -1   1   4  377.20   38.00
   1   1  -4  275.88   28.28
  -1  -1  -4  297.11   30.85
   1   1   4  344.54   35.23
  -1  -1   4  340.73   34.47
  -1   1  -4  301.40   31.14
  -1   1   5   89.71   12.67
   1   1  -5   51.52    9.14
  -1  -1  -5   52.95   10.28
   1   1   5   76.85   11.81
  -1  -1   5   64.76   10.67
   1  -1  -5   59.33   10.38
  -1   1   6   12.00    8.57
  -1  -1  -6   13.33    9.14
   1   1   6   14.76    8.95
  -1  -1   6   18.28    8.86
   1  -1  -6   -3.24    8.00
  -1   1  -6    9.62    8.67
   1  -1   7   -1.90    8.09
  -1   1   7   10.09    7.62
  -1  -1  -7    5.62    8.67
   1   1   7   -2.48    7.90
  -1  -1   7    7.71    7.81
   1  -1  -7    3.90    8.28
  -1   1  -7    4.19    8.48
   1  -1   8   12.67    8.00
  -1   1   8   13.62    7.14
   1   1  -8   30.85    8.28
  -1  -1  -8   11.05    7.33
   1   1   8    1.33    7.05
   1  -1  -8    9.52    6.95
  -1   1  -8    1.81    7.05
   1  -1   9   23.33    8.48
  -1   1   9   -4.29    6.76
   1   1  -9   -4.09    6.57
  -1  -1  -9   14.76    7.33
   1   1   9    3.71    7.05
  -1  -1   9    0.67    6.86
   1  -1  -9    7.43    6.95
  -1   1  -9   -1.62    6.76
   1  -1  10   38.38   10.19
  -1   1  10   36.00    9.33
   1   1 -10   58.47   10.76
  -1  -1 -10   43.23   10.57
   1   1  10   59.80   11.52
  -1  -1  10   79.61   12.67
   1  -1 -10   26.00    8.86
  -1   1 -10   35.81    9.43
   1  -1  11   58.66   12.38
  -1   1  11   18.19    8.95
   1   1 -11   36.76   10.19
  -1  -1 -11   37.04   10.76
   1   1  11   33.33   10.57
  -1  -1  11   30.28   10.09
   1  -1 -11   24.28    9.81
  -1   1 -11   29.33   10.19
   1  -1  12   -6.09    8.86
  -1   1  12   39.81   10.57
   1   1 -12   13.62    8.57
  -1  -1 -12   15.71    9.52
   1   1  12   14.95    9.43
  -1  -1  12    3.33    8.86
   1  -1 -12   10.95    9.14
  -1   1 -12   11.05    8.95
   1  -1  13   -1.24    7.62
  -1   1  13   -1.33    7.05
   1   1 -13   23.33    8.57
  -1  -1 -13   -0.57    7.43
   1   1  13   -3.62    7.43
  -1  -1  13   13.90    8.09
   1  -1 -13    4.57    7.14
  -1   1 -13   -2.67    7.14
   1  -1  14    7.71    7.52
  -1   1  14   -2.95    6.38
   1   1 -14    6.67    6.67
  -1  -1 -14   -2.00    7.24
   1   1  14   11.33    7.43
  -1  -1  14    0.95    6.48
   1  -1 -14   20.86    8.09
  -1   1 -14    2.48    7.05
   1  -1  15    0.38   18.19
  -1   1  15    3.90    6.48
   1   1 -15   -4.48    6.00
  -1  -1 -15    2.67    6.38
   1   1  15    4.00    6.19
  -1  -1  15    5.33    6.67
   1  -1 -15   -3.52    6.09
  -1   1 -15    7.81    6.76
   1  -1  16    5.05    6.76
  -1   1  16   -0.29    5.43
   1   1 -16   -2.29    6.19
  -1  -1 -16    3.90    6.48
   1   1  16   -4.57    5.71
  -1  -1  16   -0.10    6.29
   1  -1 -16   -6.86    6.09
  -1   1 -16   -0.10    6.48
   1  -1  17    4.76   10.86
  -1   1  17    7.14    6.48
   1   1 -17    0.95    6.48
  -1  -1 -17    1.81    6.29
   1   1  17   -1.81    6.00
  -1  -1  17    4.19    6.38
   1  -1 -17   -0.86    5.81
  -1   1 -17    6.48    6.95
   1  -1  18    2.29    8.48
  -1   1  18    3.81    6.29
   1   1 -18    1.33    6.76
  -1  -1 -18    5.90    6.76
   1   1  18    1.05   12.76
  -1  -1  18    2.19    9.24
   1  -1 -18   -1.14    6.19
  -1   1 -18    0.67    6.76
   1  -2   3  298.83   30.76
   1   2  -3  305.40   31.14
  -1  -2   3  330.25   33.43
  -1   2  -3  298.35   30.66
   1  -2   4  945.81   91.71
   1   2  -4  835.44   81.04
  -1  -2  -4 1020.85   99.04
   1   2   4  795.16   77.61
  -1  -2   4  873.82   84.75
  -1   2  -4  931.34   90.37
   1  -2   5   28.00    8.00
  -1   2   5   22.85    8.57
   1   2  -5   27.81    7.52
  -1  -2  -5   49.14   11.33
   1   2   5   33.62    9.24
  -1  -2   5   24.85    7.71
  -1   2  -5   38.66    8.48
   1  -2   6  231.50   25.33
  -1   2   6  276.45   29.52
   1   2  -6  216.26   23.62
  -1  -2  -6  209.88   23.71
   1   2   6  269.88   29.24
   1  -2  -6  229.60   25.24
  -1   2  -6  178.27   20.57
   1  -2   7    9.05    7.24
  -1   2   7   -3.90    7.33
   1   2  -7   -0.38    7.14
  -1  -2  -7   18.95    8.95
   1   2   7    9.33    8.00
  -1  -2   7    8.76    6.86
   1  -2  -7    9.33    7.90
  -1   2  -7    5.52    7.43
   1  -2   8   21.62    8.28
  -1   2   8   11.62    7.33
  -1  -2  -8    6.86    7.05
   1   2   8   24.95    8.48
  -1  -2   8   14.76    7.24
   1  -2  -8   13.52    7.24
  -1   2  -8   13.33    6.67
   1  -2   9    9.43    7.71
  -1   2   9   -3.43    6.76
   1   2  -9    7.90    6.48
  -1  -2  -9    9.14    7.05
   1   2   9   17.52    7.71
  -1  -2   9    6.67    6.95
   1  -2  -9   12.00    7.05
  -1   2  -9   12.19    7.24
   1  -2  10   79.71   13.05
  -1   2  10   93.99   14.09
   1   2 -10   82.85   12.95
  -1  -2 -10   79.42   13.52
   1   2  10  111.13   16.00
  -1  -2  10   95.80   13.90
   1  -2 -10   90.94   13.90
   1  -2  11    4.76    8.95
  -1   2  11   26.38    9.71
   1   2 -11   19.14    8.95
  -1  -2 -11   18.00    9.14
   1   2  11   12.28    9.24
  -1  -2  11   35.33   10.19
   1  -2 -11   18.86    9.43
  -1   2 -11   22.47    9.24
   1  -2  12   11.14    9.33
  -1   2  12    0.95    8.67
   1   2 -12   24.19    9.52
  -1  -2 -12    2.57    8.95
   1   2  12    5.62    9.14
  -1  -2  12    6.38    8.48
   1  -2 -12    3.05    8.57
  -1   2 -12   13.71    9.05
   1  -2  13    3.43    7.81
  -1   2  13    4.48    7.05
   1   2 -13    3.52    6.95
  -1  -2 -13   -7.71    7.24
   1   2  13    3.62    7.24
  -1  -2  13    2.95    7.62
   1  -2 -13    1.81    6.95
  -1   2 -13   11.81    8.09
   1  -2  14   15.33    7.71
  -1   2  14   17.14    7.71
   1   2 -14   29.24    8.28
  -1  -2 -14   20.09    8.28
   1   2  14    3.52    7.05
  -1  -2  14   13.90    7.81
   1  -2 -14    1.62    7.14
  -1   2 -14    6.48    6.67
   1  -2  15   24.28    8.28
  -1   2  15    1.52    6.29
   1   2 -15   -2.00    5.52
  -1  -2 -15    0.38    6.48
   1   2  15   -0.67    6.38
  -1  -2  15   -5.43    6.00
   1  -2 -15   -3.43    6.38
  -1   2 -15    2.29    6.19
   1  -2  16    2.38    6.48
  -1   2  16    5.05    6.00
   1   2 -16    2.95    6.00
  -1  -2 -16    6.95    6.48
   1   2  16    1.71    5.81
  -1  -2  16    5.52    6.19
   1  -2 -16   -3.71    6.19
  -1   2 -16   -0.86    5.71
   1  -2  17    9.33    6.48
  -1   2  17   -1.52    5.52
   1   2 -17    3.52    6.19
  -1  -2 -17   -4.29    6.29
   1   2  17    5.90    6.29
  -1  -2  17    1.05    6.00
   1  -2 -17   -1.62    6.19
  -1   2 -17    0.10    6.00
   1  -2  18   -1.05    6.19
  -1   2  18    2.19    6.95
   1   2 -18    4.29    6.76
  -1  -2 -18    2.19   28.47
   1   2  18    2.95   39.04
  -1  -2  18   -2.67   41.33
   1  -2 -18    2.38 1333.20
  -1   2 -18    0.67   10.38
   1  -3   3 6126.05  584.61
  -1   3  -3 6365.08  607.46
   1  -3   4  148.27   17.05
   1   3  -4  195.60   21.43
  -1  -3   4  166.08   18.86
  -1   3  -4  165.13   18.57
   1  -3   5  166.36   18.95
   1   3  -5  125.61   15.24
  -1  -3  -5  216.74   24.19
  -1  -3   5  133.99   16.19
  -1   3  -5  144.08   16.95
  -1   3   6   74.09   12.47
  -1  -3  -6  107.32   15.24
   1   3   6   57.33   11.71
  -1  -3   6   93.99   13.33
   1  -3  -6   67.04   11.81
   1  -3   7  301.78   31.81
  -1   3   7  292.54   31.14
   1   3  -7  367.77   37.90
  -1  -3  -7  340.73   35.90
   1   3   7  363.96   38.09
  -1  -3   7  341.78   35.43
   1  -3  -7  345.30   36.09
  -1   3  -7  337.78   35.23
   1  -3   8   18.47    7.33
  -1   3   8    1.81    6.76
   1   3  -8    9.81    6.67
  -1  -3  -8    8.67    7.33
   1   3   8   12.86    7.71
  -1  -3   8   10.67    6.86
   1  -3  -8   11.71    6.95
  -1   3  -8    2.29    6.57
   1  -3   9   16.47    7.62
  -1   3   9   32.19    9.05
   1   3  -9   19.52    6.95
  -1  -3  -9   23.43    8.09
   1   3   9   18.66    8.48
  -1  -3   9   25.14    7.81
   1  -3  -9   26.28    8.28
  -1   3  -9   10.09    6.76
   1  -3  10   22.95    8.00
  -1   3  10   23.62    8.95
   1   3 -10   24.19    7.52
  -1  -3 -10   27.81    9.33
   1   3  10   16.86    9.33
  -1  -3  10   17.71    7.43
   1  -3 -10   34.00    9.33
  -1   3 -10   20.28    7.43
  -1   3  11   10.95    8.95
   1   3 -11   26.57    8.86
  -1  -3 -11   36.19   10.48
   1   3  11   25.14   10.28
  -1  -3  11   36.57    9.62
   1  -3 -11   35.23   10.28
  -1   3 -11   34.85    9.71
   1  -3  12   -9.14    8.48
  -1   3  12    3.05    8.48
   1   3 -12    5.90    7.14
  -1  -3 -12    2.48    8.57
   1   3  12    3.43    8.76
  -1  -3  12    3.43    7.81
   1  -3 -12    8.28    8.38
  -1   3 -12    3.05    7.43
   1  -3  13   14.57    8.00
  -1   3  13   -0.76    6.95
   1   3 -13    4.86    6.57
  -1  -3 -13    2.00    7.05
   1   3  13   -1.24    7.33
  -1  -3  13   -5.33    6.86
   1  -3 -13   -6.29    6.38
  -1   3 -13   15.71    7.24
   1  -3  14    4.09    6.48
  -1   3  14   13.43    7.14
   1   3 -14   -3.52    5.05
  -1  -3 -14   -1.52    7.14
   1   3  14    2.10    7.05
  -1  -3  14    1.33    5.90
   1  -3 -14   -0.67    6.67
  -1   3 -14    8.19    6.48
   1  -3  15    5.33    6.38
  -1   3  15   -0.67    5.90
   1   3 -15    2.76    5.90
  -1  -3 -15    7.14    6.76
   1   3  15   -3.62    6.00
  -1  -3  15    9.33    6.38
   1  -3 -15    2.86    6.67
  -1   3 -15    8.67    6.76
   1  -3  16   -4.38    5.71
  -1   3  16   -3.62    5.62
   1   3 -16   -5.24    5.62
  -1  -3 -16    2.00    6.67
   1   3  16    4.38    6.09
  -1  -3  16   -5.05    5.43
   1  -3 -16   -4.76    5.81
  -1   3 -16   -3.14    5.90
   1  -3  17   11.81    7.14
  -1   3  17   14.67   14.28
   1   3 -17    8.76    6.86
  -1  -3 -17    5.52    6.76
   1   3  17   17.43    7.52
  -1  -3  17    7.52    6.76
   1  -3 -17   18.95    8.00
  -1   3 -17    9.14    7.14
   1  -3  18   -0.57    6.86
  -1   3  18   -1.43    8.48
   1   3 -18   -3.43    5.71
  -1  -3 -18    0.95   14.47
   1   3  18    0.00    6.19
  -1  -3  18   -1.81    6.48
   1  -3 -18   -2.48  128.65
  -1   3 -18    5.24    6.67
   1  -4   4    5.33    7.52
  -1   4  -4   10.19    7.52
   1  -4   5    1.24    7.90
   1   4  -5   22.66    8.38
  -1  -4   5   -5.71    8.09
  -1   4  -5   11.81    8.19
   1  -4   6   12.76    7.43
  -1  -4   6    9.24    8.48
  -1   4  -6    8.28    7.71
   1  -4   7    1.81    6.95
  -1   4   7   -1.71    7.33
   1   4  -7    5.62    7.14
   1   4   7   18.28    8.48
  -1  -4   7    0.86    6.57
   1  -4  -7    2.19    8.00
  -1   4  -7    5.33    7.24
   1  -4   8   12.38    7.62
  -1   4   8   13.52    7.71
   1   4  -8    2.29    6.86
  -1  -4  -8   10.76    7.71
   1   4   8   -1.14    7.05
  -1  -4   8   14.38    7.14
   1  -4  -8   -2.19    6.95
  -1   4  -8   18.09    7.90
   1  -4   9    3.90    6.48
  -1   4   9   -3.90    7.05
   1   4  -9    4.48    6.48
  -1  -4  -9    6.76    7.71
   1   4   9   -0.38    7.62
  -1  -4   9   -6.19    6.29
   1  -4  -9    4.57    7.43
  -1   4  -9    6.38    6.48
   1  -4  10   43.42    9.62
  -1   4  10   45.80   11.05
   1   4 -10   47.14    9.33
  -1  -4 -10   54.66   11.81
   1   4  10   47.14   11.24
  -1  -4  10   30.95    8.48
   1  -4 -10   73.33   12.86
   1  -4  11    9.81    8.09
  -1   4  11    7.24    9.05
   1   4 -11    9.71    7.90
  -1  -4 -11   -8.76    8.76
   1   4  11    2.38    9.33
  -1  -4  11    8.86    8.38
   1  -4 -11   10.86    9.33
  -1   4 -11    1.52    7.71
   1  -4  12   22.19    8.95
  -1   4  12   52.47   11.14
   1   4 -12   47.80   10.57
  -1  -4 -12   52.19   11.71
   1   4  12   42.66   11.05
  -1  -4  12   26.00    9.14
   1  -4 -12   45.23   10.76
  -1   4 -12   47.90   10.86
   1  -4  13    5.90    6.67
  -1   4  13    2.76    6.95
   1   4 -13   16.86    7.43
  -1  -4 -13   -2.38    7.14
   1   4  13   -0.95    7.14
  -1  -4  13   -0.48    6.38
   1  -4 -13    3.14    6.67
  -1   4 -13   11.43    7.24
   1  -4  14   -3.33    5.33
  -1   4  14    8.38    7.05
   1   4 -14    8.38    5.81
  -1  -4 -14    2.67    6.76
   1   4  14    8.38    7.33
  -1  -4  14    8.95    6.00
   1  -4 -14    0.10    6.48
  -1   4 -14    0.48    5.62
  -1   4  15   -2.38    5.62
   1   4 -15    3.71    5.52
  -1  -4 -15   -2.19    6.09
   1   4  15    7.05    6.09
  -1  -4  15    3.52    5.62
   1  -4 -15    1.90    6.29
  -1   4 -15    7.62    6.29
   1  -4  16   -4.86    5.81
  -1   4  16    2.67    5.43
   1   4 -16    2.95    6.00
  -1  -4 -16    3.43    6.00
   1   4  16   -0.95    6.19
  -1  -4  16   12.47    6.57
   1  -4 -16    2.10    5.90
  -1   4 -16    3.90    6.09
   1  -4  17    2.48    6.00
  -1   4  17    0.67    5.81
   1   4 -17    9.81  141.13
  -1  -4 -17    4.38   19.14
   1   4  17    5.52    6.38
  -1  -4  17    2.19    6.09
   1  -4 -17    0.57    6.00
  -1   4 -17   -2.48    5.90
   1  -5   5  198.27   22.66
  -1   5  -5  138.75   17.52
   1  -5   6   -5.14    7.81
  -1  -5   6    6.76    8.76
  -1   5  -6    6.57    8.38
   1  -5   7    5.90    6.86
   1   5  -7    6.95    7.62
  -1  -5   7   10.86    7.43
  -1   5  -7   10.00    7.24
   1  -5   8   27.71    8.00
   1   5  -8   36.00    8.76
  -1  -5  -8   28.47    8.67
  -1  -5   8   29.81    8.38
  -1   5  -8   20.66    7.90
   1  -5   9   10.48    6.76
  -1   5   9   38.19    9.71
  -1  -5  -9   24.19    8.76
   1   5   9   10.95    8.19
  -1  -5   9   10.67    6.95
   1  -5  -9   30.38    8.76
  -1   5  -9   14.57    7.52
   1  -5  10  316.06   34.00
  -1   5  10  208.46   24.66
   1   5 -10  323.02   34.38
  -1  -5 -10  257.02   29.52
  -1  -5  10  294.35   31.81
   1  -5 -10  223.98   26.19
   1  -5  11   97.89   14.76
  -1   5  11   74.94   14.19
   1   5 -11   61.61   12.00
  -1  -5 -11   57.61   13.14
   1   5  11   62.28   13.33
  -1  -5  11   62.18   11.90
   1  -5 -11   72.85   13.81
  -1   5 -11   59.52   11.71
   1  -5  12   15.62    8.00
  -1   5  12   -4.57    7.81
   1   5 -12    6.38    8.00
  -1  -5 -12   18.28    8.86
   1   5  12    9.05    8.57
  -1  -5  12   -1.33    7.81
   1  -5 -12    5.14    7.90
  -1   5 -12   -0.76    7.43
   1  -5  13   52.76   10.67
  -1   5  13   28.57    9.14
   1   5 -13   23.62    8.00
  -1  -5 -13   16.76    8.48
   1   5  13   41.42   10.38
  -1  -5  13   22.19    8.28
   1  -5 -13   23.24    8.48
  -1   5 -13   32.38    9.14
   1  -5  14    5.05    5.52
  -1   5  14   10.76    8.19
   1   5 -14    9.24    6.09
  -1  -5 -14   12.76    7.81
   1   5  14    6.38    7.43
  -1  -5  14    2.19    5.52
   1  -5 -14   -3.62    6.67
  -1   5 -14    8.67    6.09
   1  -5  15   16.19    6.76
  -1   5  15   13.90    7.05
   1   5 -15    7.71    6.00
  -1  -5 -15    9.33    6.57
   1   5  15    2.29    5.90
  -1  -5  15    3.05    5.62
   1  -5 -15    1.05    6.48
  -1   5 -15    8.57    6.38
   1  -5  16    6.76    5.81
  -1   5  16    0.29    8.19
   1   5 -16   -5.62    5.24
  -1  -5 -16   -3.24    6.09
   1   5  16   -2.86    6.38
  -1  -5  16   -4.76    5.24
   1  -5 -16    0.29    5.71
  -1   5 -16    4.76    5.71
   1  -5  17    2.95    6.38
  -1   5  17   11.43    6.86
   1   5 -17    5.52    5.81
  -1  -5 -17    3.33    6.48
   1   5  17   14.76    7.24
  -1  -5  17    2.00    5.71
   1  -5 -17   -4.67    5.90
  -1   5 -17    8.09    6.48
   1  -6   6   15.52    8.28
  -1   6  -6   13.81    8.76
   1  -6   7    6.95    7.90
   1   6  -7   19.14    7.90
  -1  -6   7   10.38    7.81
  -1   6  -7   17.71    8.57
   1  -6   8   23.52    8.09
   1   6  -8   28.09    8.38
  -1  -6   8   13.14    7.71
  -1   6  -8   24.95    8.57
   1  -6   9    5.71    6.86
   1   6  -9   -3.62    6.95
  -1  -6   9   -5.24    6.67
  -1   6  -9    3.33    6.86
   1  -6  10    3.14    7.62
   1   6 -10   -2.10    7.43
   1   6  10   16.86   10.09
  -1  -6  10   -0.29    7.14
   1  -6 -10   27.04    9.71
  -1   6 -10    2.76    7.81
   1  -6  11   18.95    8.48
  -1   6  11   12.95    9.52
   1   6 -11   22.85    8.86
  -1  -6 -11   13.71   10.09
   1   6  11   14.47   10.28
  -1  -6  11   16.57    8.48
   1  -6 -11    0.95    9.71
  -1   6 -11   24.19    9.14
   1  -6  12   70.09   12.47
  -1   6  12   36.09   10.00
   1   6 -12   50.76   11.14
  -1  -6 -12   37.52   10.57
   1   6  12   31.23   10.00
  -1  -6  12   43.14   10.09
   1  -6 -12   16.47    8.57
  -1   6 -12   26.28    9.24
   1  -6  13    9.90    6.29
  -1   6  13    2.19    7.05
   1   6 -13    6.95    6.76
  -1  -6 -13    8.19    8.19
   1   6  13    2.57    7.33
  -1  -6  13    9.43    6.67
   1  -6 -13    4.00    7.52
  -1   6 -13    4.00    6.76
   1  -6  14    0.48    5.33
  -1   6  14   -4.09    6.38
   1   6 -14    5.05    6.38
  -1  -6 -14   -2.86    6.67
   1   6  14    8.09    7.14
  -1  -6  14    4.00    5.81
   1  -6 -14   10.28    7.33
  -1   6 -14    4.38    5.81
   1  -6  15   -0.95    5.62
  -1   6  15    4.29    6.29
   1   6 -15    5.24    6.09
  -1  -6 -15    0.29    6.19
   1   6  15    3.43    6.19
  -1  -6  15    9.05    6.00
   1  -6 -15   -3.43    6.48
  -1   6 -15    3.14    5.71
   1  -6  16    1.05    5.62
  -1   6  16    9.33    6.76
   1   6 -16    0.57    5.52
  -1  -6 -16    6.09    6.57
   1   6  16    4.48    6.76
  -1  -6  16    3.24    5.90
   1  -6 -16    8.48    6.48
  -1   6 -16   -0.67    5.52
   1  -6  17    0.86    5.81
  -1   6  17   -0.29    7.05
   1   6 -17   -0.48    5.62
  -1  -6 -17    9.90    6.57
   1   6  17   -3.05    6.00
  -1  -6  17    4.09    5.62
   1  -6 -17   -1.81    5.81
  -1   6 -17    0.19  495.66
   1  -7   7   72.37   12.28
  -1   7  -7   80.56   12.86
   1  -7   8   44.57   10.19
   1   7  -8   13.81    7.43
  -1  -7   8   15.14    7.90
  -1   7  -8   18.00    8.00
   1  -7   9   36.95    9.33
   1   7  -9   11.81    7.71
  -1  -7   9   34.09    9.24
  -1   7  -9   35.81    9.62
   1  -7  10  -10.28    7.62
   1   7 -10    8.28    8.38
  -1  -7  10   -9.81    7.90
  -1   7 -10   -6.09    7.90
   1  -7  11   52.76   11.33
   1   7 -11   39.52   10.19
  -1  -7  11   87.42   13.62
  -1   7 -11   39.42   10.38
   1  -7  12   -1.90    7.05
   1   7 -12   -2.57    7.24
  -1  -7 -12   22.19    9.05
   1   7  12    6.00    8.19
  -1  -7  12    2.76    7.33
   1  -7 -12    7.14    7.33
  -1   7 -12    0.00    7.24
   1  -7  13   34.47    8.48
  -1   7  13   53.61   11.43
   1   7  13   21.81    8.76
  -1  -7  13   48.00    9.81
   1  -7 -13   66.76   12.28
  -1   7 -13   39.90    9.71
   1  -7  14   -4.95    5.62
  -1   7  14   -4.76    6.19
   1   7 -14   -1.33    6.00
  -1  -7 -14   -2.00    7.24
   1   7  14   -1.62    6.48
  -1  -7  14   -2.95    5.52
   1  -7 -14   -2.29    6.38
  -1   7 -14    8.67    6.57
   1  -7  15   31.43    8.48
  -1   7  15   15.33    7.71
   1   7 -15    5.33    7.05
  -1  -7 -15    9.33    7.33
   1   7  15   29.81    8.76
  -1  -7  15   10.67    6.57
   1  -7 -15    8.86    6.48
  -1   7 -15   31.90    9.05
   1  -7  16    1.81    5.62
  -1   7  16   11.05    7.52
   1   7 -16   -2.76    5.71
  -1  -7 -16    2.00    6.57
   1   7  16    3.05    6.67
  -1  -7  16   -1.71    5.52
   1  -7 -16    3.62    6.38
  -1   7 -16    4.00    5.71
   1  -7  17   16.57    7.33
  -1   7  17    0.48    6.19
   1   7 -17   20.09    8.00
  -1  -7 -17   11.24    8.28
   1   7  17   19.81    8.19
  -1  -7  17    7.90    6.29
   1  -7 -17    2.38    7.14
  -1   7 -17   17.71    7.81
   1  -8   8 1324.63  129.42
  -1   8  -8 1089.41  106.85
   1  -8   9   23.43    9.14
   1   8  -9   14.19    8.28
  -1  -8   9   35.33    9.62
  -1   8  -9   24.00    9.05
   1  -8  10   52.09   11.81
  -1  -8  10   67.42   12.86
  -1   8 -10   44.57   10.95
   1  -8  11    1.14    7.90
   1   8 -11   12.86    8.57
  -1  -8  11    3.62    8.19
  -1   8 -11    2.76    8.28
   1   8 -12  182.84   22.85
  -1  -8  12  156.46   20.19
  -1   8 -12  133.89   18.47
   1  -8  13    6.29    6.19
   1   8 -13    5.71    6.57
  -1  -8 -13    8.76    7.62
  -1  -8  13   -0.67    6.00
   1  -8 -13   -1.43    6.29
  -1   8 -13    3.05    6.09
   1  -8  14    2.29    5.90
   1   8 -14   -3.71    5.90
  -1  -8 -14   25.81    8.76
   1   8  14    4.19    6.95
  -1  -8  14   12.19    6.48
  -1   8 -14   -4.38    5.81
   1  -8  15    3.90    5.62
  -1   8  15    8.57    7.24
   1   8 -15   12.57    7.05
  -1  -8 -15    3.43    6.57
   1   8  15    5.24    6.95
  -1  -8  15    3.62    5.71
   1  -8 -15    6.95    7.24
  -1   8 -15    8.95    6.86
   1  -8  16   28.47    8.57
  -1   8  16   26.28    8.67
   1   8 -16   31.71    9.24
  -1  -8 -16   16.66    7.81
   1   8  16   11.33    7.52
  -1  -8  16   35.14    9.14
   1  -8 -16   12.76    7.24
  -1   8 -16   16.38    7.52
   1  -8  17    6.48    6.00
  -1   8  17    3.90    6.67
   1   8 -17    5.14    6.19
  -1  -8 -17    5.33    6.67
   1   8  17    0.76    6.48
  -1  -8  17    2.95    5.52
   1  -8 -17    4.09    6.38
  -1   8 -17    2.57    6.67
   1  -9   9    4.19    8.48
  -1   9  -9   14.38    8.76
   1  -9  10   -0.95    8.76
   1   9 -10   10.48    8.67
  -1  -9  10    0.76    8.48
  -1   9 -10    0.10    8.28
   1  -9  11    5.24    8.57
   1   9 -11    6.09    8.48
  -1  -9  11    3.90    8.57
  -1   9 -11    0.57    8.28
   1  -9  12    8.00    7.24
   1   9 -12    1.81    7.24
  -1  -9  12   10.57    7.52
  -1   9 -12    1.43    7.71
   1  -9  13    1.90    5.62
   1   9 -13   -2.48    6.38
  -1  -9  13    5.14    5.90
  -1   9 -13    9.71    6.57
   1  -9  14    3.05    5.52
   1   9 -14    0.86    6.38
  -1  -9  14    0.95    5.71
  -1   9 -14   -0.57    6.19
   1  -9  15   11.05    6.48
   1   9 -15   -4.38    5.62
  -1  -9 -15    2.57    7.05
  -1  -9  15   -5.43    5.14
   1  -9 -15    0.38    6.38
  -1   9 -15   -0.67    6.19
   1  -9  16    1.14    5.71
  -1   9  16    6.00    6.67
   1   9 -16    5.14    6.19
  -1  -9 -16   -2.48    6.09
   1   9  16   -3.71    6.38
  -1  -9  16   -2.29  203.41
   1  -9 -16    3.43    6.76
  -1   9 -16   -2.95    6.38
   1  -9  17   -2.57    5.90
  -1   9  17   -0.10    7.62
   1   9 -17   -1.05    6.09
  -1  -9 -17    6.76    8.28
   1   9  17   -2.38   67.90
  -1  -9  17   -3.81    5.90
   1  -9 -17   -0.38    6.95
  -1   9 -17    3.05   11.24
   1 -10  10   39.81   10.67
  -1  10 -10   38.76   10.19
   1 -10  11    1.62    8.28
   1  10 -11    6.09    8.48
  -1 -10  11    4.95    8.00
  -1  10 -11   14.28    8.48
   1 -10  12   28.19    9.24
   1  10 -12    5.62    7.33
  -1 -10  12   16.38    7.52
  -1  10 -12   -4.76    7.14
   1 -10  13    4.38    6.76
   1  10 -13    1.52    6.95
  -1 -10  13    7.52    6.67
  -1  10 -13    3.81    7.24
   1 -10  14    3.43    5.71
   1  10 -14    0.10    5.90
  -1 -10  14   -3.62    6.09
  -1  10 -14    1.52    6.76
   1 -10  15    4.09    5.90
   1  10 -15    7.14    6.67
  -1 -10  15   -0.86    5.71
  -1  10 -15    9.71    6.76
   1 -10  16    0.10    5.33
   1  10 -16   -3.52    5.71
  -1 -10 -16   -0.57    6.38
  -1 -10  16    9.05    6.38
  -1  10 -16    9.14    6.95
   1 -11  11   30.38    9.81
  -1  11 -11   17.33    8.38
   1 -11  12   10.57    7.33
   1  11 -12   14.47    7.71
  -1 -11  12   13.81    7.33
  -1  11 -12   24.09    8.57
   1 -11  13    8.38   23.52
   1  11 -13    4.86    7.24
  -1 -11  13    5.14    6.86
  -1  11 -13   11.24    7.33
   1 -11  14   -2.57    6.09
   1  11 -14    8.09    6.67
  -1 -11  14    4.38    6.29
  -1  11 -14    4.57    6.48
   1 -11  15    0.95    5.81
   1  11 -15    1.71    6.95
  -1 -11  15    1.52    6.29
  -1  11 -15   -4.57    6.67
   1 -11  16   -0.19  478.71
   1  11 -16   -2.67    6.00
  -1 -11  16   -1.14    5.05
  -1  11 -16   -1.43    6.57
   1 -12  12   42.00   10.00
  -1  12 -12   35.62    9.71
   1 -12  13   -2.67    6.76
   1  12 -13    2.76    6.86
  -1 -12  13   -2.00    6.19
  -1  12 -13   10.19    6.67
   1 -12  14    2.29    6.48
   1  12 -14   -2.48    6.67
  -1 -12  14    3.52    6.48
  -1  12 -14    0.48    8.76
   1 -12  15   -1.52    6.09
   1  12 -15   -0.76    6.48
  -1 -12  15   -3.14    6.19
  -1  12 -15    4.76    7.33
   1 -12  16   21.43    7.90
   1  12 -16    0.95  437.67
  -1 -12  16   -1.62    6.09
  -1  12 -16    0.19    6.57
   1 -13  13    9.62    7.24
  -1 -13  13   11.52    7.52
  -1  13 -13   13.52    7.62
   1 -13  14    4.48    6.29
   1  13 -14    8.86    7.33
  -1 -13  14    4.09    6.57
  -1  13 -14    3.90    6.76
   1 -13  15   -0.10    6.67
   1  13 -15   -3.43    6.76
  -1 -13  15    5.24    6.86
  -1  13 -15   -1.14    7.52
   1 -14  13    7.71    7.05
   1 -14  14   -3.33    6.38
  -1 -14  14    6.29    6.95
  -1  14 -14    2.00    6.57
   1 -14  15   -3.24    6.57
   1  14 -15    6.67    6.67
  -1 -14  15    4.19    6.48
  -1  14 -15    9.05 2103.60
   1 -15  14   -3.90    6.86
   1 -15  15    3.43    7.14
  -1 -15  15    9.05    7.52
  -1  15 -15    7.43   36.95
   2   0   0 1646.50  157.22
  -2   0   0 1456.04  139.03
   2   0   1   29.62    8.09
  -2   0   1   24.28    3.71
   2   0  -1   22.95    3.71
  -2   0  -1   19.52    7.90
   2   0   2 2601.64  248.93
  -2   0   2 2598.79  248.07
   2   0  -2 3207.30  305.97
  -2   0  -2 3299.67  315.40
   2   0   3 1122.74  108.66
  -2   0   3 1245.59  119.61
   2   0  -3 1222.73  117.32
  -2   0  -3 1073.23  103.80
   2   0   4 1434.14  138.27
  -2   0   4 1251.30  120.46
   2   0  -4 1371.29  131.80
  -2   0  -4 1463.66  141.13
   2   0   5  204.55   22.95
  -2   0  -5  243.59   26.47
   2   0   6   90.75   13.62
  -2   0   6   69.42   12.76
  -2   0  -6   85.71   13.71
   2   0   7 1283.68  124.65
  -2   0   7 1249.40  121.13
   2   0  -7 1016.09   99.04
  -2   0  -7 1404.62  136.37
   2   0   8   91.04   13.71
  -2   0   8  149.32   17.81
  -2   0  -8  103.70   14.95
   2   0   9   89.99   13.52
  -2   0   9   70.18   11.33
   2   0  -9   94.18   13.24
  -2   0  -9   77.80   12.57
   2   0  10   91.71   14.57
  -2   0  10   54.28   10.48
  -2   0 -10   91.61   14.19
   2   0  11  108.66   16.66
  -2   0  11   77.80   13.14
  -2   0 -11   63.71   13.05
   2   0  12   30.19   10.57
  -2   0  12   50.57   11.43
  -2   0 -12   51.99   12.67
   2   0  13   36.00   10.00
  -2   0  13   20.28    8.28
   2   0 -13   39.23    9.62
  -2   0 -13   17.05    8.57
   2   0  14   19.71    8.67
  -2   0  14   17.05    7.71
   2   0 -14   32.85    9.43
  -2   0 -14    2.19    7.33
   2   0  15   30.28    8.86
  -2   0  15    7.43    6.48
   2   0 -15    4.67    6.48
  -2   0 -15    6.38    7.33
   2   0  16   16.19    7.81
  -2   0  16   17.62    7.43
   2   0 -16   12.57    7.05
  -2   0 -16   10.00    7.14
   2   0  17    2.57    6.48
  -2   0  17    4.38    6.29
   2   0 -17    1.90    6.38
  -2   0 -17    6.86    7.33
   2   0  18    6.38    6.67
  -2   0  18   -3.43    5.52
   2   0 -18    8.67    7.14
  -2   0 -18    7.05    7.24
   2  -1   2  173.51   19.33
   2   1  -2  127.32   14.09
  -2  -1  -2  159.98   18.66
   2   1   2  137.13   16.86
  -2  -1   2  167.51   17.62
  -2   1   3  128.84   14.67
   2   1  -3  100.09   12.00
  -2  -1  -3  119.70   15.14
   2   1   3  140.46   17.33
  -2  -1   3   96.94   11.81
   2  -1  -3  127.13   14.47
  -2   1  -3  101.42   13.71
   2  -1   4   11.81    8.48
  -2   1   4   48.76    8.76
   2   1  -4   27.62    6.95
  -2  -1  -4   46.09    9.90
   2   1   4   51.52   10.28
  -2  -1   4   44.66    8.09
   2  -1  -4   36.95    8.00
  -2   1  -4   52.66   10.19
   2  -1   5   26.19    8.95
  -2   1   5   20.76    7.81
   2   1  -5   10.28    6.29
  -2  -1  -5   16.19    8.48
   2   1   5   24.57    8.76
  -2  -1   5   13.24    6.86
  -2   1  -5   17.62    8.09
   2  -1   6    9.81    9.05
  -2   1   6   19.90    8.67
   2   1  -6   -3.14    7.05
  -2  -1  -6   -0.76    8.67
   2   1   6   -0.10    8.48
  -2  -1   6   25.14    8.76
   2  -1  -6    2.86    7.90
  -2   1  -6   10.19    9.05
   2  -1   7   40.09    9.90
  -2   1   7   20.38    7.81
  -2  -1  -7   26.95    9.71
   2   1   7   35.33    9.71
   2  -1  -7   54.47   10.67
  -2   1  -7   50.47   11.14
   2  -1   8   -0.29    7.52
  -2   1   8    0.19    6.57
   2   1  -8    2.00    6.67
  -2  -1  -8   -7.24    7.71
   2   1   8    2.76    7.52
  -2  -1   8   17.81    7.33
   2  -1  -8    6.76    6.86
  -2   1  -8   -6.29    7.81
   2  -1   9   25.81    8.86
  -2   1   9   29.52    8.19
   2   1  -9   17.24    7.05
  -2  -1  -9   22.38    8.28
   2   1   9   51.80   10.38
  -2  -1   9   36.09    8.95
   2  -1  -9   23.81    7.81
  -2   1  -9   27.24    8.67
   2  -1  10    9.14    8.76
  -2   1  10   -1.33    7.14
   2   1 -10   -2.76    6.86
  -2  -1 -10    6.19    8.28
   2   1  10    1.52    8.19
  -2  -1  10   -0.67    7.24
   2  -1 -10   -0.48    7.62
  -2   1 -10    4.48    7.81
   2  -1  11   24.76   10.48
  -2   1  11   14.47    8.48
   2   1 -11    5.81    8.28
  -2  -1 -11   -5.90    8.76
   2   1  11   12.38    9.05
  -2  -1  11    6.48    8.67
   2  -1 -11   19.90    9.05
  -2   1 -11   14.47    9.43
   2  -1  12    5.14    9.43
  -2   1  12   10.48    8.67
   2   1 -12   12.86    8.76
  -2  -1 -12   13.33    9.52
   2   1  12    7.52    9.43
  -2  -1  12    1.52    8.76
   2  -1 -12    2.48    8.76
  -2   1 -12    4.57    8.76
   2  -1  13   13.05    8.19
  -2   1  13    8.00    7.05
   2   1 -13   -4.38    6.57
  -2  -1 -13    7.33    7.71
   2   1  13    3.24    7.71
  -2  -1  13   -0.95    6.86
   2  -1 -13   17.33    8.00
  -2   1 -13   12.86    8.28
   2  -1  14    8.48    7.52
  -2   1  14   10.57    6.95
   2   1 -14   -2.95    6.67
  -2  -1 -14   13.81    8.00
   2   1  14   -9.33    6.86
  -2  -1  14   11.14    7.24
   2  -1 -14    6.38    7.05
  -2   1 -14   -1.33    6.76
   2  -1  15   10.95    7.24
  -2   1  15    8.48    6.38
   2   1 -15   20.28    7.81
  -2  -1 -15   -0.57    6.29
   2   1  15    4.09    6.76
  -2  -1  15   -2.48    5.81
   2  -1 -15   -3.14    6.09
  -2   1 -15   -1.52    6.19
   2  -1  16    4.29    8.00
  -2   1  16   -1.05    5.62
   2   1 -16    4.00    6.09
  -2  -1 -16   -0.38    6.29
   2   1  16    1.24    6.09
  -2  -1  16    1.24    5.90
   2  -1 -16   17.62    7.05
  -2   1 -16    0.29    6.19
   2  -1  17   -0.29    5.52
  -2   1  17    2.57    5.71
   2   1 -17    1.81    6.19
  -2  -1 -17   -1.62    6.09
   2   1  17   -3.33    5.81
  -2  -1  17    0.67   89.42
   2  -1 -17    8.76    6.09
  -2   1 -17    2.00    6.76
   2  -1  18    0.67   33.23
  -2   1  18    8.09    6.48
   2   1 -18    7.24   60.28
  -2  -1 -18   -5.24   58.57
   2   1  18   -3.14   11.24
  -2  -1  18   -0.29    8.09
   2  -1 -18    1.43    9.62
  -2   1 -18    0.95    7.05
   2  -2   2   51.61    9.90
  -2   2  -2   79.23   11.90
   2  -2   3   10.09    8.28
   2   2  -3   14.95    7.43
  -2  -2  -3   21.62    9.14
   2   2   3   22.28    9.71
  -2  -2   3   20.95    7.71
  -2   2  -3   -1.33    7.62
   2  -2   4   26.57    8.28
   2   2  -4   22.85    6.76
  -2  -2  -4   10.57    8.38
   2   2   4    6.95    8.28
  -2  -2   4   13.14    6.67
  -2   2  -4   28.38    8.09
   2  -2   5   22.47    7.90
  -2   2   5    4.95    7.81
   2   2  -5   10.00    6.57
  -2  -2  -5   27.33    8.86
   2   2   5    2.67    8.38
  -2  -2   5   36.57    8.38
   2  -2  -5   26.85    8.09
  -2   2  -5   17.24    7.33
   2  -2   6    2.95    8.19
  -2   2   6    4.48    8.19
   2   2  -6   16.38    7.52
  -2  -2  -6    4.95    8.67
   2   2   6   -4.67    8.57
   2  -2  -6    8.76    7.90
  -2   2  -6    5.81    8.00
   2  -2   7   18.66    8.19
  -2   2   7   16.47    7.43
   2   2  -7   13.24    7.14
  -2  -2  -7   46.09   10.76
   2   2   7   16.09    8.57
  -2  -2   7   12.86    6.86
   2  -2  -7   38.76    9.14
  -2   2  -7   22.00    8.38
   2  -2   8   13.81    8.00
   2   2  -8   12.76    6.57
  -2  -2   8    3.90    6.38
   2  -2  -8   32.76    8.19
  -2   2  -8   11.52    8.28
   2  -2   9   11.71    7.71
  -2   2   9   14.28    7.14
   2   2  -9   29.90    7.43
  -2  -2  -9    7.14    7.24
   2   2   9   20.28    8.38
  -2  -2   9   19.14    7.24
   2  -2  -9    9.43    7.05
  -2   2  -9   51.90   10.19
   2  -2  10    0.10    7.81
  -2   2  10    8.57    7.62
   2   2 -10   -4.48    6.09
  -2  -2 -10    5.33    7.90
   2   2  10   -6.48    8.19
  -2  -2  10   13.90    7.62
   2  -2 -10   -3.05    7.52
  -2   2 -10    9.71    7.71
   2  -2  11   12.67    9.33
  -2   2  11   -3.33    8.38
   2   2 -11   -0.10    8.57
  -2  -2 -11   -2.38    8.76
   2   2  11   10.67    9.81
  -2  -2  11   -0.38    8.19
   2  -2 -11   -3.24    7.81
  -2   2 -11    6.29    8.67
   2  -2  12    3.62    8.86
  -2   2  12   -8.09    8.09
   2   2 -12   15.52    8.57
  -2  -2 -12   14.19    9.33
   2   2  12   -0.86    9.05
  -2  -2  12    0.10    8.19
   2  -2 -12   15.71    9.05
  -2   2 -12    1.62    8.57
   2  -2  13   -4.86    7.71
  -2   2  13    1.62    6.48
   2   2 -13    8.57    7.43
  -2  -2 -13   -3.43    7.43
   2   2  13   -5.33    7.90
  -2  -2  13   13.24    7.62
   2  -2 -13   -3.33    6.86
  -2   2 -13   -0.38    6.86
   2  -2  14   30.66    9.05
  -2   2  14   -1.81    6.76
   2   2 -14   10.57    6.95
  -2  -2 -14    4.19    7.05
   2   2  14    2.86    7.05
  -2  -2  14   15.05    7.62
   2  -2 -14    6.19    7.05
  -2   2 -14   15.62    7.90
   2  -2  15   -0.67    6.38
  -2   2  15    2.86    5.81
   2   2 -15    2.38    6.19
  -2  -2 -15   -0.29    6.67
   2   2  15    1.62    6.19
  -2  -2  15    3.62    6.00
   2  -2 -15    1.71    6.19
  -2   2 -15    4.67    6.76
   2  -2  16    4.86    6.38
  -2   2  16   -2.48    5.24
   2   2 -16   10.57    6.67
  -2  -2 -16    0.19    6.57
   2   2  16   -4.38    5.71
  -2  -2  16    6.38    6.09
   2  -2 -16   -1.62    5.52
  -2   2 -16    2.57    6.29
   2  -2  17    4.48    6.76
  -2   2  17    6.09    5.90
   2   2 -17    0.29    6.38
  -2  -2 -17    6.38    6.95
   2   2  17   -0.76    5.71
  -2  -2  17   -3.33    6.19
   2  -2 -17    2.95    6.19
  -2   2 -17   -0.38    5.90
   2  -2  18    5.62   20.66
  -2   2  18    9.71    6.29
   2   2 -18   -6.48    6.09
  -2  -2 -18    3.43    6.48
   2   2  18   -0.57    6.48
  -2  -2  18    0.76    5.71
   2  -2 -18   -1.90   19.33
  -2   2 -18    6.29    9.33
   2  -3   2  365.20   37.42
   2  -3   3  266.07   28.28
  -2   3  -3  284.64   29.62
   2  -3   4  151.03   17.62
   2   3  -4  140.75   16.38
  -2  -3   4  125.13   15.05
  -2   3  -4  203.88   22.19
   2  -3   5  127.61   15.71
   2   3  -5  155.51   17.81
  -2  -3  -5  140.84   17.71
   2   3   5  133.03   16.86
  -2   3  -5  171.03   19.43
   2  -3   6   33.04    8.76
  -2   3   6    5.24    8.28
  -2  -3  -6   11.90    8.95
   2   3   6    7.71    8.28
  -2  -3   6    9.05    7.62
   2  -3  -6   23.33    8.86
  -2   3  -6   31.90    9.14
   2  -3   7  199.22   22.38
   2   3  -7  118.56   14.95
  -2  -3  -7  214.17   24.57
   2   3   7  159.32   19.62
  -2  -3   7  144.37   17.14
   2  -3  -7  155.32   18.76
  -2   3  -7  139.22   17.33
   2  -3   8    9.14    6.95
  -2   3   8   10.86    7.24
   2   3  -8   16.28    7.43
  -2  -3  -8    8.19    7.24
   2   3   8   11.24    7.90
  -2  -3   8   17.33    6.86
   2  -3  -8   20.86    7.52
  -2   3  -8   20.57    7.90
   2  -3   9   12.00    7.14
  -2   3   9   10.76    7.05
   2   3  -9   16.00    6.67
  -2  -3  -9   -1.71    7.14
   2   3   9   -0.29    7.43
  -2  -3   9   15.90    7.05
   2  -3  -9    1.81    6.86
  -2   3  -9    8.48    6.86
   2  -3  10   29.14    8.48
  -2   3  10    8.38    7.81
   2   3 -10   11.90    6.76
  -2  -3 -10    9.90    8.57
   2   3  10   12.95    9.05
  -2  -3  10   14.00    6.76
   2  -3 -10   15.05    8.00
  -2   3 -10    1.24    6.95
   2  -3  11   26.28   10.09
  -2   3  11    0.10    8.76
   2   3 -11   12.19    8.19
  -2  -3 -11   41.23   11.14
   2   3  11   22.19   10.19
  -2  -3  11   17.14    8.38
   2  -3 -11   34.57   10.19
  -2   3 -11   19.43    8.57
   2  -3  12   24.00   10.19
  -2   3  12   -0.86    8.00
   2   3 -12   29.04    8.67
  -2  -3 -12   -2.29    8.48
   2   3  12    9.24    9.14
  -2  -3  12    4.57    7.81
   2  -3 -12   13.14    8.67
  -2   3 -12   19.05    8.57
   2  -3  13    2.76    7.62
  -2   3  13    9.33    6.95
   2   3 -13    2.95    6.29
  -2  -3 -13   -3.24    6.67
   2   3  13   -3.05    7.24
  -2  -3  13   -2.67    6.57
   2  -3 -13    3.43    6.86
  -2   3 -13    7.33    7.90
   2  -3  14   13.71    7.05
  -2   3  14    4.57    6.67
   2   3 -14   -5.71    5.14
  -2  -3 -14    2.67    7.24
   2   3  14   -4.38    6.67
  -2  -3  14   -0.29    6.29
   2  -3 -14    3.62    6.76
  -2   3 -14    7.14    6.76
   2  -3  15    5.43    6.76
  -2   3  15   -2.76    5.62
   2   3 -15   -0.29    5.33
  -2  -3 -15   -0.29    6.09
   2   3  15    4.95    6.57
  -2  -3  15   14.38    6.76
   2  -3 -15   -2.00    6.00
  -2   3 -15    9.81    7.05
   2  -3  16   -2.95    6.29
  -2   3  16    1.24    5.81
   2   3 -16   -8.76    5.14
  -2  -3 -16    8.67    6.86
   2   3  16    0.10    6.19
  -2  -3  16   -2.76   19.24
   2  -3 -16    4.67    6.29
  -2   3 -16   12.28    6.67
   2  -3  17    6.67    6.95
  -2   3  17    1.05    5.90
   2   3 -17    1.14    6.38
  -2  -3 -17    4.48    6.48
   2   3  17   -3.05    6.00
  -2  -3  17    7.71    6.57
   2  -3 -17   -1.90    6.00
  -2   3 -17    2.38   13.14
   2  -3  18   -1.24  114.46
   2   3 -18   -0.29   12.86
  -2  -3 -18    0.95    7.81
   2   3  18   -3.24   11.90
  -2  -3  18    4.86    7.43
   2  -3 -18   -0.86   93.13
  -2   3 -18    2.00   14.86
   2  -4   3  113.80   15.24
   2  -4   4    8.57    8.00
  -2   4  -4   22.09    8.19
   2  -4   5  112.18   14.67
  -2   4  -5   99.89   13.81
   2  -4   6   -4.86    7.14
   2   4  -6    3.52    7.90
  -2  -4   6    4.95    8.19
  -2   4  -6   12.67    8.09
   2  -4   7   24.19    7.71
   2   4  -7   20.95    7.52
  -2  -4  -7    4.29    8.48
   2   4   7   14.09    8.38
  -2  -4   7   22.28    7.43
   2  -4  -7   13.05    7.52
  -2   4  -7   23.81    8.28
   2  -4   8    2.19    6.57
  -2   4   8    0.86    7.05
   2   4  -8    8.76    6.67
  -2  -4  -8    3.14    7.43
   2   4   8    5.52    7.33
  -2  -4   8    4.29    6.48
   2  -4  -8   -0.10    6.67
  -2   4  -8    3.43    6.38
   2  -4   9    0.76    6.76
  -2   4   9    4.38    7.05
   2   4  -9    8.28    6.57
  -2  -4  -9   17.71    8.38
   2   4   9    8.76    7.90
  -2  -4   9    8.19    6.48
   2  -4  -9    9.43    7.43
  -2   4  -9    7.90    6.67
   2  -4  10    6.48    7.05
  -2   4  10   12.86    8.28
   2   4 -10    1.14    6.48
  -2  -4 -10    5.71    8.48
   2   4  10    5.81    9.05
  -2  -4  10    0.10    6.48
   2  -4 -10    8.76    8.19
  -2   4 -10    3.43    6.76
   2  -4  11    2.86    7.90
  -2   4  11    2.10    8.86
   2   4 -11    5.05    7.43
  -2  -4 -11    0.10    8.67
   2   4  11    2.76    8.95
  -2  -4  11    4.57    7.71
   2  -4 -11    6.76    8.86
  -2   4 -11   12.57    8.28
   2  -4  12    2.19    7.81
  -2   4  12   -0.19    7.52
   2   4 -12    5.05    7.52
  -2  -4 -12   -8.38    7.81
   2   4  12  -10.00    8.28
  -2  -4  12   -1.24    7.43
   2  -4 -12    0.10    7.71
  -2   4 -12    4.57    7.71
   2  -4  13   -0.76    6.76
  -2   4  13    6.09    6.67
   2   4 -13    2.76    6.48
  -2  -4 -13   -3.43    6.86
   2   4  13   -5.62    7.14
  -2  -4  13   -0.10    6.57
   2  -4 -13    6.76    6.67
  -2   4 -13   14.57    7.24
   2  -4  14    2.76    6.00
  -2   4  14    0.86    6.95
   2   4 -14   -4.86    5.33
  -2  -4 -14    2.29    7.05
   2   4  14   11.24    7.43
  -2  -4  14    9.62    6.19
   2  -4 -14    0.29    6.19
  -2   4 -14   12.38    6.19
   2  -4  15   -0.29    6.19
  -2   4  15    0.57    5.90
   2   4 -15   -0.48    5.52
  -2  -4 -15    4.29    6.38
   2   4  15   -8.19    5.33
  -2  -4  15    4.86    5.52
   2  -4 -15   -5.05    5.81
  -2   4 -15    0.38    5.52
   2  -4  16    2.67    6.48
  -2   4  16    0.29    5.52
   2   4 -16    0.38    5.62
  -2  -4 -16   -1.90   12.67
   2   4  16    1.52    6.48
  -2  -4  16   -5.33    5.52
   2  -4 -16    5.52    6.19
  -2   4 -16    0.19    5.05
   2  -4  17    6.67    6.76
  -2   4  17   -4.29    5.43
   2   4 -17    3.24    5.71
  -2  -4 -17   -4.00    5.62
   2   4  17    8.57    6.38
  -2  -4  17    6.09    7.33
   2  -4 -17    2.19    5.90
  -2   4 -17   -0.57    5.81
   2  -5   4  238.55   26.19
   2  -5   5  114.56   15.33
  -2   5  -5  115.13   15.52
   2  -5   6   17.81    7.81
  -2  -5   6   15.05    8.00
  -2   5  -6   17.71    8.76
   2  -5   7  567.09   56.85
  -2  -5   7  413.39   42.19
  -2   5  -7  537.95   54.19
   2  -5   8   18.09    7.71
   2   5  -8   16.47    7.71
  -2  -5  -8    1.43    7.43
  -2  -5   8    3.43    6.95
  -2   5  -8   15.52    7.43
   2  -5   9   95.42   13.90
  -2   5   9   73.90   12.19
   2   5  -9   85.99   12.67
   2   5   9   51.99   10.95
  -2  -5   9   98.85   13.62
  -2   5  -9   83.99   12.76
   2  -5  10   37.52    9.33
  -2   5  10   23.43    9.43
  -2  -5 -10   51.14   11.62
   2   5  10   38.28   11.05
  -2  -5  10   44.57    9.43
   2  -5 -10   49.71   11.05
  -2   5 -10   44.85   10.00
  -2   5  11  108.37   16.47
   2   5 -11  150.75   19.05
  -2  -5 -11  145.99   20.28
   2   5  11  202.74   25.33
  -2  -5  11  172.74   20.95
  -2   5 -11  134.94   18.00
   2  -5  12   24.47    9.05
  -2   5  12   10.76    7.81
   2   5 -12   17.33    8.09
  -2  -5 -12   17.90    9.24
   2   5  12    8.76    8.57
  -2  -5  12   14.57    8.28
   2  -5 -12   14.28    8.95
  -2   5 -12   17.24    8.67
   2  -5  13    1.33    6.38
  -2   5  13   10.19    7.24
   2   5 -13   -0.19    6.00
  -2  -5 -13    7.62    7.62
   2   5  13    4.29    7.81
  -2  -5  13    1.33    6.29
   2  -5 -13    1.81    6.67
  -2   5 -13    2.19    6.67
   2  -5  14   15.71    6.67
  -2   5  14    5.33    7.05
   2   5 -14    2.57    5.62
  -2  -5 -14    6.00    7.43
   2   5  14   19.14    8.09
  -2  -5  14   12.09    5.90
   2  -5 -14   -2.29    6.57
  -2   5 -14   -1.90    5.81
   2  -5  15    3.24    6.00
  -2   5  15    0.10    5.90
   2   5 -15   -0.10    5.33
  -2  -5 -15    1.81   62.47
   2   5  15    3.05    6.29
  -2  -5  15    8.28    6.00
   2  -5 -15    6.48  172.65
  -2   5 -15   20.09    8.00
   2  -5  16   15.05    6.76
  -2   5  16    3.24    5.81
   2   5 -16    5.14    6.00
  -2  -5 -16    5.71    6.76
   2   5  16    2.67    6.48
  -2  -5  16   12.00    6.48
   2  -5 -16    7.81    6.48
  -2   5 -16   13.81  271.40
   2  -5  17    8.09    6.38
  -2   5  17    4.86    6.29
   2   5 -17   15.62    7.24
  -2  -5 -17    9.90    6.76
   2   5  17   14.76    7.52
  -2  -5  17   11.81    6.38
   2  -5 -17    2.00    6.19
  -2   5 -17   -0.95    6.00
   2  -6   5  124.08   16.19
   2  -6   6  132.94   16.66
  -2   6  -6  123.89   16.95
   2  -6   7   34.09    9.14
  -2   6  -7   16.38    8.38
   2  -6   8   33.04    8.95
   2   6  -8   38.28    9.14
  -2  -6   8   15.33    7.81
  -2   6  -8   11.05    7.14
   2  -6   9   10.48    6.95
   2   6  -9    3.05    7.24
  -2  -6   9    9.71    7.62
  -2   6  -9   10.00    6.86
   2  -6  10    5.90    7.62
   2   6 -10   15.33    8.00
  -2  -6 -10   23.05   10.19
   2   6  10    6.38    8.95
  -2  -6  10    6.00    7.52
  -2   6 -10  -11.14    7.33
   2  -6  11    1.43    7.81
  -2   6  11    3.81    9.62
   2   6 -11    1.81    7.71
  -2  -6 -11    5.52    9.81
   2   6  11   -4.76    9.33
  -2  -6  11    2.76    7.43
   2  -6 -11   15.71    9.52
  -2   6 -11   10.57    9.52
   2  -6  12    6.09    7.33
  -2   6  12    6.19    8.00
   2   6 -12    0.95    7.33
  -2  -6 -12    8.09    8.19
   2   6  12    8.67    8.38
  -2  -6  12   20.76    8.28
   2  -6 -12   -2.67    7.52
  -2   6 -12    3.43    7.90
   2  -6  13   -1.71    6.09
  -2   6  13   -2.57    6.86
   2   6 -13    8.28    6.19
  -2  -6 -13    8.86    7.90
   2   6  13   -2.57    7.81
  -2  -6  13    6.67    6.09
   2  -6 -13   -2.67    7.05
  -2   6 -13    7.33    6.48
   2  -6  14    0.29    5.71
  -2   6  14   -0.19    6.76
   2   6 -14   -1.14    5.62
  -2  -6 -14   -2.57    6.95
   2   6  14   -1.05    7.33
  -2  -6  14    7.90    6.00
   2  -6 -14   -2.00    6.48
  -2   6 -14    3.62    5.62
   2  -6  15    3.62    5.62
  -2   6  15    1.24    6.19
   2   6 -15   -2.48    5.71
  -2  -6 -15   -0.48    5.81
   2   6  15    0.00    6.76
  -2  -6  15    5.05    6.00
   2  -6 -15    0.95    6.76
  -2   6 -15    1.62    6.19
   2  -6  16    2.76    5.52
  -2   6  16    1.14    6.19
   2   6 -16    4.48    5.62
  -2  -6 -16   -6.19    6.09
   2   6  16    6.00    6.67
  -2  -6  16   -2.67    7.90
   2  -6 -16    0.38    6.00
  -2   6 -16    5.14    6.19
   2  -6  17    0.57    5.62
  -2   6  17   -0.29  182.74
   2   6 -17    2.00    5.81
  -2  -6 -17   -4.09  143.41
   2   6  17   -6.86    6.00
  -2  -6  17    0.48    7.81
   2  -6 -17   10.09    6.76
  -2   6 -17   -2.29    5.52
   2  -7   6   38.09    9.43
   2  -7   7   20.38    8.48
  -2   7  -7   48.57   10.48
   2  -7   8   10.28    7.71
  -2  -7   8   12.95    7.71
  -2   7  -8   17.43    8.00
   2  -7   9   12.00    7.24
   2   7  -9    4.38    7.24
  -2  -7   9    8.09    7.43
  -2   7  -9   17.33    7.71
   2  -7  10    9.43    8.28
   2   7 -10  -10.09    8.28
  -2  -7  10    7.43    8.28
  -2   7 -10   15.43    8.38
   2  -7  11    2.19    7.33
   2   7 -11    5.81    8.19
  -2  -7 -11   -2.19    9.14
  -2  -7  11   10.38    7.90
  -2   7 -11   14.67    8.19
   2  -7  12   15.43    7.33
   2   7 -12   -3.33    7.14
  -2  -7 -12   10.19    8.57
   2   7  12   11.81    8.48
  -2  -7  12   -4.86    6.67
   2  -7 -12   14.76    7.81
  -2   7 -12    1.90    7.81
   2  -7  13    6.09    6.67
   2   7 -13    7.62    6.48
  -2  -7 -13    8.48    8.09
   2   7  13    1.71    7.43
  -2  -7  13    8.19    6.38
   2  -7 -13    9.71    7.33
  -2   7 -13   18.09    7.52
   2  -7  14   -0.57    5.62
  -2   7  14   -9.05    6.19
   2   7 -14    8.38    6.29
  -2  -7 -14    1.81    7.14
   2   7  14   15.71    8.09
  -2  -7  14    0.00    5.52
   2  -7 -14    9.52    6.67
  -2   7 -14   -2.19    6.09
   2  -7  15    1.24    7.24
  -2   7  15   -0.10    6.09
   2   7 -15    0.38    5.90
  -2  -7 -15    3.62    7.33
   2   7  15    7.81    6.76
  -2  -7  15   -2.00    4.95
   2  -7 -15   -0.10    6.29
  -2   7 -15   -1.90    6.48
   2  -7  16    7.43    6.09
  -2   7  16   -0.57    5.81
   2   7 -16   -2.86    5.71
  -2  -7 -16   -0.38    6.86
   2   7  16    1.52    6.67
  -2  -7  16    1.24    5.71
   2  -7 -16    3.52  114.94
  -2   7 -16   -3.71    5.24
   2  -7  17    4.48    5.81
  -2   7  17    1.81    5.71
   2   7 -17    6.86    6.29
  -2  -7 -17   -4.38    6.09
   2   7  17   -3.52    6.29
  -2  -7  17   -1.62    5.71
   2  -7 -17    0.76    6.38
  -2   7 -17   -0.95    6.19
   2  -8   7   51.42   10.48
   2  -8   8   19.81    9.05
  -2   8  -8   33.62    9.24
   2  -8   9  173.51   21.33
  -2  -8   9  108.27   15.43
  -2   8  -9  133.61   17.52
   2  -8  10    3.62    8.95
  -2  -8  10   11.62    8.76
  -2   8 -10   12.57    8.76
   2  -8  11   20.28    8.57
   2   8 -11   13.24    9.14
  -2   8 -11   30.19    9.52
   2  -8  12   20.86    8.38
   2   8 -12    5.14    7.71
  -2  -8  12    7.33    7.81
  -2   8 -12    3.43    7.24
   2  -8  13    4.29    6.29
   2   8 -13    3.14    6.09
  -2  -8 -13    4.38    7.81
  -2  -8  13   15.43    6.67
  -2   8 -13   15.24    7.05
   2  -8  14   12.38    6.57
   2   8 -14    8.86    6.76
  -2  -8 -14    7.33    7.05
   2   8  14   23.90    8.67
  -2  -8  14   23.81    7.52
   2  -8 -14    9.33    6.95
  -2   8 -14   13.05    7.14
   2  -8  15   -1.33    5.62
  -2   8  15    4.09    6.38
   2   8 -15    2.67    5.90
  -2  -8 -15   -1.62    6.48
   2   8  15    0.57    6.48
  -2  -8  15    2.86    5.52
   2  -8 -15    0.19    6.57
  -2   8 -15   -2.29    5.81
   2  -8  16    4.86    5.81
  -2   8  16    8.28    6.76
   2   8 -16    7.14    6.38
  -2  -8 -16    0.95    6.67
   2   8  16    7.81    7.14
  -2  -8  16    3.43    6.57
   2  -8 -16    2.38    6.38
  -2   8 -16   12.19    7.24
   2  -8  17    3.14    5.52
  -2   8  17    4.19    6.29
   2   8 -17   -0.76    5.90
  -2  -8 -17    0.76    7.05
   2   8  17   13.71    7.62
  -2  -8  17    1.14    5.33
   2  -8 -17    9.33    6.67
  -2   8 -17   -2.38    6.09
   2  -9   8    2.57    7.62
   2  -9   9   14.09    8.86
  -2   9  -9    8.00    8.00
   2  -9  10    1.90    8.57
  -2  -9  10   21.62    8.86
  -2   9 -10    8.95    8.38
   2  -9  11    6.00    8.38
   2   9 -11   18.86    8.76
  -2  -9  11   19.14    9.33
  -2   9 -11   -1.81    7.71
   2  -9  12   -0.76    6.86
   2   9 -12    0.57    7.24
  -2  -9  12   -6.67    6.57
  -2   9 -12   -0.67    6.57
   2  -9  13   -1.62    5.62
   2   9 -13    1.33    6.57
  -2  -9  13    5.24    6.29
  -2   9 -13    4.67    6.09
   2  -9  14   -0.67    6.19
   2   9 -14   -2.57    6.29
  -2  -9 -14    6.29    6.48
  -2  -9  14   -6.67    5.24
  -2   9 -14   -6.19    6.09
   2  -9  15    3.43    6.09
   2   9 -15   -4.09   86.18
  -2  -9 -15   -4.86    6.67
  -2  -9  15    0.19    5.33
   2  -9 -15    2.38    6.67
  -2   9 -15    0.76    5.81
   2  -9  16    7.05    6.19
   2   9 -16   -4.95    5.81
  -2  -9 -16   -0.67  552.99
   2   9  16   -2.19  317.21
  -2  -9  16    1.43    5.43
   2  -9 -16   -1.33    6.38
  -2   9 -16   -1.05    6.09
   2  -9  17    4.09    6.19
  -2   9  17    4.95    6.76
   2   9 -17    2.95    6.76
  -2  -9 -17    2.95    7.81
   2   9  17   -2.29    7.81
  -2  -9  17    0.86    6.09
   2  -9 -17    4.57    7.33
  -2   9 -17    6.38   10.76
   2 -10   9   36.38   10.76
   2 -10  10   31.04   10.38
  -2  10 -10   40.95   10.67
   2 -10  11    0.57    8.19
  -2 -10  11    6.76    8.19
  -2  10 -11   -6.57    7.33
   2 -10  12   18.28    8.00
   2  10 -12    4.29    7.24
  -2 -10  12    1.81    6.86
  -2  10 -12    2.48    7.05
   2 -10  13   -8.76    6.09
   2  10 -13    8.95    7.24
  -2 -10  13   -6.00    6.09
  -2  10 -13   -3.33    5.90
   2 -10  14    8.28    6.00
   2  10 -14   -2.19    6.86
  -2 -10  14    0.67    6.09
  -2  10 -14    2.67    6.67
   2 -10  15   -0.48    5.71
   2  10 -15    2.38    6.29
  -2 -10  15    9.14    5.71
  -2  10 -15    1.14    6.19
   2 -10  16    5.05    5.90
   2  10 -16   17.71    8.38
  -2 -10 -16    8.19    7.14
  -2 -10  16   -0.95    5.24
  -2  10 -16    3.71    6.38
   2 -11  10    6.86    9.33
   2 -11  11   -1.81    7.52
  -2  11 -11   13.71    8.19
   2 -11  12    5.71    7.05
  -2 -11  12   -6.95    6.38
  -2  11 -12   -1.33    7.33
   2 -11  13    0.19    6.76
   2  11 -13    0.29    6.38
  -2 -11  13    3.62    6.29
  -2  11 -13   20.76    8.28
   2 -11  14    4.00    6.19
   2  11 -14   -3.24    6.29
  -2 -11  14   -4.38    5.90
  -2  11 -14   -4.48    6.00
   2 -11  15    6.67    6.00
   2  11 -15   -8.38    6.57
  -2 -11  15   -6.00    6.09
  -2  11 -15    7.62    6.76
   2 -11  16    1.43    5.52
   2  11 -16   -1.62    6.29
  -2 -11  16    7.33    6.67
  -2  11 -16    3.52    6.48
   2 -12  11   -1.90    7.24
   2 -12  12   15.71    7.71
  -2  12 -12   17.90    7.90
   2 -12  13    1.52    6.48
  -2 -12  13    1.90    6.48
  -2  12 -13    6.00    6.67
   2 -12  14   -4.48    6.19
   2  12 -14   -3.62    6.38
  -2 -12  14   -6.19    5.90
  -2  12 -14    1.24    6.48
   2 -12  15    8.38    7.05
   2  12 -15    8.19    6.67
  -2 -12  15    3.14    6.57
  -2  12 -15   -4.19    6.48
   2 -12  16    4.86    6.00
   2  12 -16   -3.24    6.76
  -2 -12  16    4.67    6.76
  -2  12 -16   -0.10    6.57
   2 -13  12    3.24    6.67
   2 -13  13   17.81    8.00
  -2  13 -13    3.71    6.86
   2 -13  14    2.00    6.86
  -2 -13  14    0.19    6.29
  -2  13 -14   -6.48    5.90
   2 -13  15    0.67    6.57
   2  13 -15   -2.57    6.09
  -2 -13  15    6.48    6.67
  -2  13 -15    5.05    6.86
   2 -14  13   -3.52    6.00
   2 -14  14   -3.52    6.29
  -2  14 -14    3.05    6.95
   2 -14  15   -2.48    6.48
  -2 -14  15   -2.10    6.09
  -2  14 -15    1.33    6.86
   2 -15  14    5.24  659.74
   2 -15  15    3.14    8.38
   3   0   0    3.14    5.43
  -3   0   0   10.38    6.09
   3   0   1 2144.55  205.12
  -3   0  -1 2084.55  199.50
  -3   0   2    0.76    4.09
   3   0  -2   -2.95    4.38
  -3   0  -2   11.90    8.48
   3   0   3 3532.03  337.78
  -3   0   3 3996.74  381.39
   3   0  -3 4061.50  387.39
  -3   0  -3 3930.08  375.77
  -3   0   4   64.95    9.52
   3   0  -4   86.66   10.86
  -3   0  -4  111.13   14.67
   3   0   5 1968.37  189.50
  -3   0   5 1963.61  188.36
   3   0  -5 2136.93  204.84
  -3   0  -5 2082.65  200.27
   3   0   6   80.09   12.67
  -3   0   6   90.47   12.95
   3   0  -6   79.61   11.90
  -3   0  -6   77.14   12.95
   3   0   7  774.30   76.47
  -3   0   7  786.21   77.04
   3   0  -7  686.12   67.71
  -3   0  -7  791.35   78.28
   3   0   8   22.85    8.28
  -3   0   8   34.19    8.38
   3   0  -8   50.57    9.33
  -3   0  -8   26.28   10.38
  -3   0   9   33.90    8.28
   3   0  -9   29.62    8.09
  -3   0  -9   71.99   12.28
   3   0  10   14.86    8.95
  -3   0  10   17.24    7.81
   3   0 -10   15.52    7.90
  -3   0 -10   20.86    8.86
   3   0  11  176.08   22.85
  -3   0  11  105.89   15.33
   3   0 -11  113.70   16.09
  -3   0 -11  129.32   18.47
   3   0  12   32.57   10.86
  -3   0  12   30.85    9.71
   3   0 -12    9.90    8.67
  -3   0 -12   25.52   10.67
   3   0  13   27.71    9.62
  -3   0  13   16.86    7.62
   3   0 -13   15.81    7.71
  -3   0 -13    1.33    7.71
   3   0  14   13.14    7.71
  -3   0  14   11.81    7.14
   3   0 -14   13.62    7.24
  -3   0 -14   21.62    8.57
   3   0  15   16.38    7.62
  -3   0  15    9.52    6.57
   3   0 -15   12.47    7.14
  -3   0 -15    7.24    7.33
   3   0  16   14.09    7.33
  -3   0  16   -1.43    5.33
   3   0 -16    6.29    6.19
  -3   0 -16   14.28    7.33
   3   0  17   20.47    8.19
  -3   0  17   38.95    9.05
   3   0 -17   20.09    8.19
  -3   0 -17   28.09    9.43
   3   0  18    2.00    6.57
  -3   0  18   -5.14    5.90
   3   0 -18    1.71  248.07
  -3   0 -18   -0.48    8.28
   3  -1   0    5.90    5.14
  -3   1   0   17.14    5.90
   3  -1   1   13.62    7.05
  -3  -1  -1   27.62    8.67
   3   1   1   16.95    8.19
  -3   1  -1   18.66    7.43
   3  -1   2 1525.56  146.56
  -3  -1  -2 1516.04  145.79
   3   1   2 1627.46  156.37
  -3   1  -2 1557.94  149.70
  -3   1   3    8.09    6.00
   3   1  -3   -6.95    5.81
  -3  -1  -3   25.24    8.95
   3   1   3    1.24    8.00
  -3  -1   3    7.43    5.62
   3  -1  -3    6.76    5.71
   3  -1   4  383.49   39.14
   3   1  -4  555.66   54.09
  -3  -1  -4  467.29   46.95
   3   1   4  469.57   47.33
  -3  -1   4  570.32   55.52
  -3   1  -4  400.15   40.57
   3  -1   5    5.33    8.76
  -3   1   5    8.48    6.76
   3   1  -5    9.71    6.00
  -3  -1  -5   12.57    8.38
   3   1   5    5.52    8.57
  -3  -1   5   15.14    6.38
   3  -1  -5   -0.95    7.05
  -3   1  -5   15.24    8.57
   3  -1   6  365.87   38.00
  -3   1   6  489.57   48.85
  -3  -1  -6  388.44   40.19
   3  -1  -6  467.86   46.85
  -3   1  -6  358.54   37.42
   3  -1   7   14.76    8.48
  -3   1   7    4.19    6.76
   3   1  -7    2.29    6.95
  -3  -1  -7   -2.00    8.38
   3   1   7    3.24    7.90
  -3  -1   7   -0.29    6.95
   3  -1  -7    4.00    7.33
  -3   1  -7   43.14   10.57
   3  -1   8    7.24    7.81
  -3   1   8   -4.86    6.29
   3   1  -8   20.09    7.24
  -3  -1  -8   12.00    8.19
   3   1   8    5.52    7.33
  -3  -1   8    9.05    6.95
   3  -1  -8   -3.05    6.38
  -3   1  -8   31.14    9.81
   3  -1   9   -6.86    7.90
  -3   1   9    6.38    6.48
   3   1  -9    4.38    6.48
  -3  -1  -9   -0.29    7.14
   3   1   9   -9.71    7.14
  -3  -1   9   -0.10    6.76
   3  -1  -9   19.81    7.43
  -3   1  -9   -1.14    7.52
   3  -1  10   38.00   10.76
  -3   1  10   22.47    8.28
   3   1 -10   29.24    8.38
  -3  -1 -10   26.19    9.14
   3   1  10   26.85    9.90
  -3  -1  10   26.38    8.09
   3  -1 -10   28.66    8.76
  -3   1 -10   14.38    8.76
   3  -1  11    0.67    9.52
  -3   1  11    6.29    8.09
   3   1 -11    3.24    7.81
  -3  -1 -11    3.52    8.95
   3   1  11   -5.62    9.24
  -3  -1  11   11.90    8.48
   3  -1 -11    3.71    8.28
  -3   1 -11    1.52    8.95
   3  -1  12    6.67    9.24
  -3   1  12   36.76   10.28
   3   1 -12   16.76    8.48
  -3  -1 -12   -3.90    8.67
   3   1  12    4.95    8.95
   3  -1 -12   10.38    8.28
  -3   1 -12    4.09    9.05
   3  -1  13   -2.19    8.09
  -3   1  13   -1.24    6.38
   3   1 -13   -5.43    6.48
  -3  -1 -13    4.19    7.90
   3   1  13   -1.90    7.33
  -3  -1  13    4.09    6.76
   3  -1 -13    7.43    6.67
  -3   1 -13    9.52    7.81
   3  -1  14    3.14    8.28
  -3   1  14   -0.95    6.29
   3   1 -14   10.19    6.57
  -3  -1 -14   36.57   10.28
   3   1  14    8.48    7.81
  -3  -1  14   11.33    6.76
   3  -1 -14    7.05    6.76
  -3   1 -14   -4.00    6.86
   3  -1  15   -3.52    6.19
  -3   1  15   10.76    6.48
   3   1 -15    3.14    5.62
  -3  -1 -15    1.33    6.57
   3   1  15   -3.90    6.48
  -3  -1  15    2.86    6.09
   3  -1 -15    1.14    6.09
  -3   1 -15   -0.38    6.38
   3  -1  16   -4.00    6.19
  -3   1  16    2.19    5.43
   3   1 -16   -1.14    5.90
  -3  -1 -16   -0.19    6.29
   3   1  16    5.71    7.05
  -3  -1  16   -0.29    5.90
   3  -1 -16    7.90    6.76
  -3   1 -16    8.09    6.86
   3  -1  17   -3.71    6.38
  -3   1  17    7.33    6.19
   3   1 -17   -1.33    5.62
  -3  -1 -17    8.28    6.76
   3   1  17    6.00    6.48
  -3  -1  17   -1.52    5.33
   3  -1 -17    8.57    6.57
  -3   1 -17   -3.81    5.90
   3  -1  18    0.86    7.33
  -3   1  18    1.14    6.38
   3   1 -18    0.19   12.76
  -3  -1 -18   13.43    8.00
   3   1  18    2.19    6.57
  -3  -1  18    0.19    6.57
   3  -1 -18    2.38    5.81
  -3   1 -18    4.00    6.67
   3  -2   1  362.34   36.38
  -3   2  -1  320.83   32.47
   3  -2   2   33.81    9.05
  -3   2  -2   41.23    9.14
   3  -2   3 1034.18  100.09
  -3  -2  -3  824.20   80.37
  -3   2  -3 1087.51  105.13
   3  -2   4   40.38    9.14
   3   2  -4   64.37    9.43
  -3  -2  -4   66.85   11.62
   3   2   4   65.52   11.90
  -3  -2   4   47.04    8.38
  -3   2  -4   51.33    9.52
   3  -2   5  123.23   15.90
  -3  -2  -5  187.89   21.52
   3   2   5  193.89   22.28
  -3  -2   5  173.70   19.05
   3  -2  -5  163.79   18.47
  -3   2  -5  151.22   17.90
   3  -2   6    5.33    8.19
  -3   2   6    3.33    7.24
   3   2  -6   14.00    7.52
  -3  -2  -6   22.00    9.33
   3   2   6   19.52    8.95
  -3  -2   6    9.05    7.05
   3  -2  -6   25.90    8.28
  -3   2  -6   13.62    8.38
   3  -2   7   78.94   12.38
  -3   2   7   94.66   13.05
   3   2  -7   63.99   10.19
  -3  -2  -7   53.42   11.43
   3   2   7   92.28   13.81
  -3  -2   7   72.47   10.86
   3  -2  -7   63.52   10.86
  -3   2  -7   95.80   14.00
  -3   2   8   14.28    7.05
   3   2  -8   33.14    7.71
  -3  -2  -8    8.57    8.00
   3   2   8   46.95   10.00
  -3  -2   8   26.28    7.52
   3  -2  -8   18.28    7.05
  -3   2  -8   28.85    8.95
   3  -2   9    4.38    7.90
  -3   2   9   16.47    7.24
   3   2  -9   23.14    6.76
  -3  -2  -9    0.48    7.14
   3   2   9    8.57    8.00
  -3  -2   9    2.38    6.38
   3  -2  -9    1.90    6.38
  -3   2  -9   17.81    8.09
   3  -2  10   12.86    8.48
  -3   2  10   18.00    8.00
   3   2 -10   17.43    6.95
  -3  -2 -10   14.86    8.86
   3   2  10   21.62    9.81
  -3  -2  10   22.19    7.43
   3  -2 -10    8.38    7.71
  -3   2 -10   19.24    8.38
   3  -2  11   35.43   11.05
  -3   2  11   21.24    9.05
   3   2 -11   60.37   11.14
  -3  -2 -11   27.81   10.76
   3   2  11   29.62   10.86
  -3  -2  11   30.19    9.62
   3  -2 -11   31.14    9.62
  -3   2 -11   27.81   10.48
   3  -2  12   -3.52    9.05
  -3   2  12  -10.67    7.52
   3   2 -12    5.71    7.90
  -3  -2 -12   13.71    9.52
   3   2  12    5.71    8.86
  -3  -2  12    8.28    8.19
   3  -2 -12    2.48    7.81
  -3   2 -12   -6.57    8.09
   3  -2  13    9.43    8.00
  -3   2  13   14.28    7.14
  -3  -2 -13   34.66    9.90
   3   2  13    3.24    7.52
  -3  -2  13    5.71    7.05
   3  -2 -13    8.19    7.05
  -3   2 -13   -3.43    7.52
   3  -2  14    8.38    7.71
  -3   2  14    2.48    6.38
   3   2 -14    2.00    5.90
  -3  -2 -14    6.29    7.33
   3   2  14    3.81    6.76
  -3  -2  14   13.52    6.95
   3  -2 -14    3.24    6.57
  -3   2 -14   10.76    7.52
   3  -2  15    1.24    6.57
  -3   2  15    1.90    5.81
   3   2 -15    3.81    5.81
  -3  -2 -15   -5.14    6.67
   3   2  15    5.14   40.47
  -3  -2  15    7.81    6.38
   3  -2 -15    1.62    6.29
  -3   2 -15    7.43    6.76
   3  -2  16    0.67    5.90
  -3   2  16   -3.90    5.33
   3   2 -16   -0.48    5.62
  -3  -2 -16   -1.81    6.29
   3   2  16   -4.29    6.19
  -3  -2  16    4.57    5.52
   3  -2 -16    0.67    5.81
  -3   2 -16    1.05    6.29
   3  -2  17    3.43    6.76
  -3   2  17   -3.43    5.14
   3   2 -17   -2.48    5.71
  -3  -2 -17    2.00    6.67
   3   2  17    0.67    6.38
  -3  -2  17    2.67    6.00
   3  -2 -17   -1.62    5.52
  -3   2 -17    0.10    6.38
   3  -2  18    1.33    7.90
   3   2 -18   -1.52    7.33
  -3  -2 -18    7.81    8.00
   3   2  18    2.19    9.52
  -3  -2  18    0.57   15.05
   3  -2 -18   -3.05    6.48
  -3   2 -18    2.95    8.95
   3  -3   2  377.87   38.28
  -3   3  -2  450.05   44.95
   3  -3   3  215.03   23.24
  -3   3  -3  309.30   31.90
   3  -3   4  150.27   17.52
  -3   3  -4  175.32   19.71
   3  -3   5   68.95   11.62
  -3  -3  -5   57.80   11.43
   3   3   5   79.42   12.95
  -3  -3   5  114.18   14.28
  -3   3  -5   69.04   11.14
   3  -3   6   27.62    8.38
  -3   3   6   30.00    8.86
   3   3  -6   66.56   10.67
  -3  -3  -6   41.71   11.24
   3   3   6   61.04   11.71
  -3  -3   6   40.00    9.14
  -3   3  -6   59.61   10.86
   3  -3   7   34.85    8.57
  -3   3   7   13.24    7.33
   3   3  -7   31.43    7.71
  -3  -3  -7   38.95   10.38
   3   3   7   46.66   10.38
  -3  -3   7   21.33    6.86
  -3   3  -7   52.66   10.38
   3  -3   8   -3.81    6.48
  -3   3   8    2.19    6.38
   3   3  -8    4.19    6.29
  -3  -3  -8   -0.19    6.76
   3   3   8   13.71    7.62
  -3  -3   8   19.62    7.14
   3  -3  -8    0.95    7.05
  -3   3  -8    3.90    7.05
   3  -3   9    1.24    7.14
  -3   3   9   13.43    6.76
   3   3  -9   11.81    6.29
  -3  -3  -9    8.09    7.43
   3   3   9   14.86    8.28
  -3  -3   9   20.09    6.95
   3  -3  -9    5.14    6.48
  -3   3  -9   -1.62    6.57
   3  -3  10   15.62    8.48
  -3   3  10    2.19    7.43
   3   3 -10    9.33    6.67
  -3  -3 -10   11.43    8.76
   3   3  10    2.95    8.38
  -3  -3  10   -2.86    6.38
   3  -3 -10   -2.48    7.24
  -3   3 -10   -2.48    6.86
   3  -3  11    2.48    9.24
  -3   3  11   13.62    8.67
   3   3 -11   10.57    7.71
  -3  -3 -11   15.43    9.90
   3   3  11    5.05    9.81
  -3  -3  11   15.90    8.28
   3  -3 -11    3.81    8.57
  -3   3 -11    3.24    7.81
   3  -3  12   -6.48    8.86
  -3   3  12   -0.38    7.43
   3   3 -12   12.95    7.81
  -3  -3 -12   -0.95    8.38
   3   3  12    1.33    9.05
  -3  -3  12    6.86    7.24
   3  -3 -12    1.62    7.43
  -3   3 -12    3.05    8.28
   3  -3  13    6.76    7.52
  -3   3  13   14.57    6.95
   3   3 -13    7.05    6.38
  -3  -3 -13    4.19    7.43
   3   3  13    1.14    7.33
  -3  -3  13   -0.67    6.19
   3  -3 -13    7.24    6.57
  -3   3 -13    0.29    7.43
   3  -3  14    2.86    6.67
  -3   3  14    6.29    6.48
   3   3 -14    3.71    5.43
  -3  -3 -14   -3.81    7.24
   3   3  14    2.57    7.33
  -3  -3  14   -1.33   10.86
   3  -3 -14    1.14    6.09
  -3   3 -14   13.81    7.62
   3  -3  15    4.48    6.86
  -3   3  15    5.05    5.81
   3   3 -15    2.57    5.52
  -3  -3 -15    5.33    6.76
   3   3  15    2.67    6.48
  -3  -3  15    2.76    6.09
   3  -3 -15    2.48    5.90
  -3   3 -15    6.09    6.67
   3  -3  16   -8.48    6.19
  -3   3  16   -3.05    5.81
   3   3 -16    2.38   11.90
  -3  -3 -16    0.76    6.57
   3   3  16   -0.19    6.09
  -3  -3  16    4.86    6.00
   3  -3 -16    4.19    6.38
  -3   3 -16   -6.29    6.67
   3  -3  17    0.19    6.48
  -3   3  17    2.48    5.71
   3   3 -17    7.14    6.00
  -3  -3 -17    4.38    6.67
   3   3  17    5.05    6.38
  -3  -3  17    0.00    5.52
   3  -3 -17    6.09    6.29
  -3   3 -17   -1.24    6.48
   3  -4   3  213.41   23.24
  -3   4  -3  260.16   27.62
   3  -4   4  -14.47    7.90
  -3   4  -4   -1.81    8.00
   3  -4   5   24.00    9.33
  -3   4  -5   11.05    8.09
   3  -4   6    2.48    6.86
   3   4  -6    1.43    7.71
  -3  -4  -6    3.81    8.86
  -3  -4   6    7.90    7.71
  -3   4  -6   10.38    7.71
   3  -4   7   41.42    8.76
   3   4  -7   73.52   11.14
  -3  -4  -7   36.09   10.28
   3   4   7   34.95    9.62
  -3  -4   7   38.00    8.95
  -3   4  -7   36.57    9.24
   3  -4   8   10.38    6.95
  -3   4   8   -1.05    6.38
   3   4  -8    4.76    6.38
  -3  -4  -8   -0.10    7.52
   3   4   8    8.48    7.81
  -3  -4   8   11.52    6.48
   3  -4  -8   10.00    6.95
  -3   4  -8   30.57    8.57
   3  -4   9    6.29    6.86
  -3   4   9    0.57    7.05
   3   4  -9    2.86    6.29
  -3  -4  -9    4.00    7.62
   3   4   9    1.05    8.00
  -3  -4   9   -4.57    5.90
   3  -4  -9    6.38    6.95
  -3   4  -9   11.52    6.76
   3  -4  10   -9.05    7.05
  -3   4  10    2.57    7.71
   3   4 -10   -9.90    6.19
  -3  -4 -10   11.71    8.86
   3   4  10    2.29    9.05
  -3  -4  10   -1.05    6.38
   3  -4 -10    1.14    7.71
  -3   4 -10    0.95    6.86
   3  -4  11    0.57    7.90
  -3   4  11    7.05    8.95
   3   4 -11    5.52    8.09
  -3  -4 -11   -4.48    9.24
   3   4  11    9.81    9.71
  -3  -4  11   11.52    7.90
   3  -4 -11    0.29    8.38
  -3   4 -11    5.05    7.90
   3  -4  12   -5.71    7.33
  -3   4  12    4.29    7.43
   3   4 -12   -6.95    6.86
  -3  -4 -12   -3.90    8.00
   3   4  12   -1.05    8.38
  -3  -4  12    8.76    7.43
   3  -4 -12    6.67    7.33
  -3   4 -12   -3.43    6.95
   3  -4  13   -0.86    6.76
  -3   4  13   -0.86    6.48
   3   4 -13    2.57    6.38
  -3  -4 -13    4.38    7.52
   3   4  13   -1.14   68.47
  -3  -4  13    9.90    6.57
   3  -4 -13    0.38    6.19
  -3   4 -13    4.29    6.67
   3  -4  14    4.95    6.48
  -3   4  14    7.14    6.95
   3   4 -14    3.14    5.05
  -3  -4 -14   -2.67    7.05
   3   4  14    1.52    7.33
  -3  -4  14    2.86    5.43
   3  -4 -14   -2.00    5.90
  -3   4 -14   -0.48    5.71
   3  -4  15    3.33    6.38
  -3   4  15   -3.52    5.81
   3   4 -15   -2.67    5.52
  -3  -4 -15   -0.38    6.67
   3   4  15   -0.10    6.57
  -3  -4  15    1.33    5.14
   3  -4 -15    2.00    5.81
  -3   4 -15   -2.67    5.62
   3  -4  16    6.00    6.76
  -3   4  16    1.05    5.43
   3   4 -16    1.71    5.33
  -3  -4 -16    3.62    6.29
   3   4  16    0.19    6.00
  -3  -4  16    2.38    5.33
   3  -4 -16   -2.57    5.71
  -3   4 -16    0.67    5.43
   3  -4  17    5.14    6.76
  -3   4  17   -1.52    5.52
   3   4 -17    8.09    6.38
  -3  -4 -17    5.62    6.67
   3   4  17    2.10    6.57
  -3  -4  17    3.43    5.71
   3  -4 -17   -0.10    5.71
  -3   4 -17    4.48    6.29
   3  -5   4 1009.42   98.28
  -3   5  -4  903.53   88.28
   3  -5   5  233.50   26.09
  -3   5  -5  203.12   23.05
   3  -5   6 2197.88  211.50
  -3   5  -6 2331.20  224.26
   3  -5   7   10.95    6.95
  -3  -5   7   -3.71    6.76
  -3   5  -7    1.52    7.24
   3  -5   8   21.43    7.62
   3   5  -8   12.57    7.24
   3   5   8   11.43    8.28
  -3  -5   8   23.43    8.28
  -3   5  -8   16.47    7.81
   3  -5   9   17.43    7.62
   3   5  -9   28.38    8.00
  -3  -5  -9   26.38    9.05
   3   5   9   41.23   10.76
  -3  -5   9    9.81    6.38
   3  -5  -9   29.14    8.28
  -3   5  10   44.28   10.38
   3   5 -10   37.90    8.95
  -3  -5 -10   61.61   12.86
   3   5  10   88.09   15.14
  -3  -5  10   37.81    8.95
   3  -5 -10   36.76   10.00
  -3   5 -10   37.52    9.33
   3  -5  11   44.38   10.67
  -3   5  11   20.19    9.62
   3   5 -11   20.86    8.57
  -3  -5 -11   43.52   12.28
   3   5  11   61.33   14.00
  -3  -5  11   46.85   10.09
   3  -5 -11   48.76   11.71
  -3   5 -11   39.62   10.00
   3  -5  12    5.05    8.19
   3   5 -12   30.47    9.90
  -3  -5 -12   28.85   10.09
   3   5  12   13.43    9.24
  -3  -5  12   17.62    8.38
   3  -5 -12   17.52    8.48
  -3   5 -12   22.85    8.76
   3  -5  13    8.00    6.95
  -3   5  13   11.90    7.52
   3   5 -13   21.62    7.52
  -3  -5 -13   17.33    8.38
   3   5  13    1.52    8.00
  -3  -5  13    3.52    6.19
   3  -5 -13   11.05    7.05
  -3   5 -13   13.52    7.24
   3  -5  14    4.09    6.00
  -3   5  14    4.57    6.86
   3   5 -14   -2.67    4.95
  -3  -5 -14    1.43    6.95
   3   5  14    4.29    6.76
  -3  -5  14   -0.29    5.43
   3  -5 -14   -4.09    5.90
  -3   5 -14    3.05    5.62
   3  -5  15    5.52    6.00
  -3   5  15   -0.95    5.81
   3   5 -15    4.95    5.81
  -3  -5 -15    9.81    6.76
   3   5  15    5.05    7.05
  -3  -5  15    3.05    5.71
   3  -5 -15    2.29    5.90
  -3   5 -15    0.38    6.29
   3  -5  16   10.00    6.57
  -3   5  16   -0.38    5.90
   3   5 -16    5.05    8.57
  -3  -5 -16    2.95    6.38
   3   5  16   -0.67    6.48
  -3  -5  16    5.52    5.71
   3  -5 -16    9.90    6.38
  -3   5 -16    9.62    6.19
   3  -5  17   -0.10    6.38
  -3   5  17    4.00    6.29
   3   5 -17   -5.24    5.43
  -3  -5 -17    4.76   13.33
   3   5  17   -1.71   77.80
  -3  -5  17    2.57    5.52
   3  -5 -17    1.05    6.09
  -3   5 -17    0.76    5.62
   3  -6   5   35.33   10.09
  -3   6  -5   35.33   10.09
   3  -6   6    7.14    7.52
  -3   6  -6   -1.71    8.09
   3  -6   7  124.08   15.81
  -3   6  -7  138.75   17.62
   3  -6   8   14.47    7.24
   3   6  -8   15.14    7.43
  -3  -6   8   10.09    7.14
  -3   6  -8   27.04    8.38
   3  -6   9    8.95    6.67
   3   6  -9    5.81    7.24
  -3  -6   9   -0.86    6.86
  -3   6  -9    5.62    6.86
   3  -6  10   14.67    8.48
   3   6 -10    3.43    8.00
  -3  -6 -10   18.66   10.00
   3   6  10    0.86    9.33
  -3  -6  10    8.48    7.62
  -3   6 -10    7.90    7.71
   3  -6  11    7.24    8.38
  -3   6  11   40.95   11.05
   3   6 -11    8.19    7.90
  -3  -6 -11    3.24    9.90
   3   6  11    6.19   10.28
  -3  -6  11   18.86    8.38
   3  -6 -11   28.09   10.09
  -3   6 -11   15.43    8.76
   3  -6  12   10.48    7.62
  -3   6  12    6.38    7.52
   3   6 -12    5.81    7.24
  -3  -6 -12    1.43    8.00
   3   6  12    6.38    8.09
  -3  -6  12   -1.33    6.57
   3  -6 -12    5.62    7.24
  -3   6 -12   -7.43    7.24
   3  -6  13   21.33    7.62
  -3   6  13   -1.24    7.05
   3   6 -13    3.14    6.29
  -3  -6 -13    2.67    7.90
   3   6  13   -2.29    7.43
  -3  -6  13    4.95    6.00
   3  -6 -13    4.57    6.95
  -3   6 -13    2.10    5.90
   3  -6  14   -0.10    5.71
  -3   6  14   -1.24   19.90
   3   6 -14    3.43    5.62
  -3  -6 -14    2.86    6.86
   3   6  14    1.52    6.86
  -3  -6  14    2.00    5.43
   3  -6 -14    9.14    8.09
  -3   6 -14   -5.71  177.41
   3  -6  15    3.24    5.52
  -3   6  15   -0.86    6.00
   3   6 -15    0.95    5.62
  -3  -6 -15   -2.10    6.38
   3   6  15   -3.24    6.48
  -3  -6  15    8.00    6.29
   3  -6 -15   -0.19    6.09
  -3   6 -15   -1.52    5.81
   3  -6  16    4.48    6.09
  -3   6  16    2.38    6.19
   3   6 -16   -4.29    5.71
  -3  -6 -16    2.48    6.38
   3   6  16    3.81    6.86
  -3  -6  16   -5.05    5.62
   3  -6 -16   -4.29    6.00
  -3   6 -16   -6.38    5.33
   3  -6  17    3.14    5.90
  -3   6  17    0.00    5.81
   3   6 -17   -2.57    5.33
  -3  -6 -17    2.86    6.29
   3   6  17    5.71    7.90
  -3  -6  17    1.52    5.71
   3  -6 -17    2.76    6.09
  -3   6 -17    5.43    6.38
   3  -7   6   38.38    9.62
  -3   7  -6   40.66   10.00
   3  -7   7   11.05    7.71
  -3   7  -7   10.48    7.52
   3  -7   8   -2.76    7.24
  -3   7  -8   -2.95    6.86
   3  -7   9   -4.19    6.67
   3   7  -9   13.33    7.52
  -3  -7   9    7.62    7.52
  -3   7  -9    4.19    7.05
   3  -7  10   25.62    9.43
   3   7 -10   34.66    9.90
  -3  -7  10   39.71   10.38
  -3   7 -10   23.14    8.86
   3  -7  11    7.33    8.28
   3   7 -11   23.05    8.95
  -3  -7 -11    4.09    9.14
  -3  -7  11   22.00    8.95
  -3   7 -11   14.76    8.95
   3  -7  12   -1.33    6.95
   3   7 -12    7.33    7.14
  -3  -7 -12   23.43    9.14
   3   7  12    5.62    8.00
  -3  -7  12   -0.19    7.24
   3  -7 -12   -1.14    7.24
  -3   7 -12    5.43    7.62
   3  -7  13    9.81    7.05
  -3   7  13    9.90    7.24
   3   7 -13   -0.86    5.71
  -3  -7 -13   12.09    8.09
   3   7  13    4.29    7.81
  -3  -7  13    0.00    5.62
   3  -7 -13    3.52    6.86
  -3   7 -13    4.48    6.29
   3  -7  14    3.14    6.00
  -3   7  14    0.19    6.29
   3   7 -14    3.33    5.90
  -3  -7 -14    4.86    7.24
   3   7  14   -4.76    6.57
  -3  -7  14    7.14    6.00
   3  -7 -14    5.90    6.29
  -3   7 -14    0.57    6.00
   3  -7  15    4.09    5.71
  -3   7  15    0.00    5.62
   3   7 -15   -2.86    5.52
  -3  -7 -15    4.09    7.05
   3   7  15   -2.48    6.00
  -3  -7  15    1.05    5.62
   3  -7 -15   -0.10    5.90
  -3   7 -15    4.19    6.00
   3  -7  16    6.00    5.90
  -3   7  16    3.81    6.48
   3   7 -16   -0.10    5.52
  -3  -7 -16   -5.52    6.38
   3   7  16   -5.24    5.71
  -3  -7  16    1.52    5.43
   3  -7 -16   10.48    7.05
  -3   7 -16    5.24    5.90
   3  -7  17    9.43    6.95
  -3   7  17    2.48   18.76
   3   7 -17    0.48    6.00
  -3  -7 -17    7.52    6.95
   3   7  17    8.19    6.76
  -3  -7  17    5.81    6.19
   3  -7 -17   -2.95    6.00
  -3   7 -17   -6.29   28.57
   3  -8   7   60.18   11.14
  -3   8  -7   53.23   10.48
   3  -8   8   45.61   10.09
  -3   8  -8   45.80    9.90
   3  -8   9   24.38    9.14
  -3   8  -9   19.52    8.19
   3  -8  10    4.38    8.28
   3   8 -10    6.29    8.48
  -3  -8  10    1.43    8.28
  -3   8 -10   -0.57    8.48
   3  -8  11   -7.90    7.52
   3   8 -11   -6.95    8.19
  -3  -8  11    7.71    8.19
  -3   8 -11    2.19    8.19
   3  -8  12   -4.38    6.67
   3   8 -12    4.95    7.24
  -3  -8  12    4.95    7.52
  -3   8 -12    0.57    7.14
   3  -8  13    0.38    5.71
   3   8 -13    4.00    6.29
  -3  -8 -13   12.76    8.57
  -3  -8  13    9.43    6.09
  -3   8 -13    0.10    6.09
   3  -8  14   -4.67    5.81
   3   8 -14    4.09    5.90
  -3  -8 -14    3.81    7.33
   3   8  14    6.19    7.05
  -3  -8  14    0.57    5.52
   3  -8 -14   -0.48    6.09
  -3   8 -14   -0.38    6.09
   3  -8  15   -4.00    6.00
  -3   8  15   -4.38    6.00
   3   8 -15   -0.95    5.62
  -3  -8 -15    3.71    6.86
   3   8  15    3.05   21.24
  -3  -8  15    2.19    5.43
   3  -8 -15    3.05    6.48
  -3   8 -15    6.00    6.29
   3  -8  16    5.71    6.29
  -3   8  16    4.09    6.29
   3   8 -16    4.29    6.19
  -3  -8 -16   -3.05    6.57
   3   8  16    4.29    6.38
  -3  -8  16    3.90    6.00
   3  -8 -16    8.19    6.57
  -3   8 -16   -5.62    5.43
   3  -8  17    0.19   16.19
  -3   8  17    0.86    6.00
   3   8 -17   -2.86    6.09
  -3  -8 -17   10.57    6.95
   3   8  17   -1.05  200.93
  -3  -8  17   -2.57    5.33
   3  -8 -17   -5.33    6.19
  -3   8 -17    2.67    6.09
   3  -9   8   19.52    8.38
  -3   9  -8    5.05    7.14
   3  -9   9   -0.57    8.19
  -3   9  -9   -7.33    7.62
   3  -9  10    6.09    8.76
  -3   9 -10    0.67    8.19
   3  -9  11   -3.62    7.62
   3   9 -11    5.71    8.38
  -3  -9  11    4.76    8.00
  -3   9 -11   -0.38    8.38
   3  -9  12   -0.76    6.57
   3   9 -12    1.81    6.67
  -3  -9  12   -0.10    6.29
  -3   9 -12    1.71    6.67
   3  -9  13   -2.67    5.24
   3   9 -13   -2.19    6.19
  -3  -9  13   -3.90    6.00
  -3   9 -13    1.14    6.09
   3  -9  14    8.28    6.57
   3   9 -14    5.05    6.29
  -3  -9 -14    5.52    6.57
  -3  -9  14   14.47    6.95
  -3   9 -14   12.47    7.14
   3  -9  15    2.10    5.62
   3   9 -15   -5.62    5.71
  -3  -9 -15   -9.52    6.67
   3   9  15   -0.48    6.48
  -3  -9  15    7.24    5.81
   3  -9 -15   -3.62    6.19
  -3   9 -15   -1.81    5.81
   3  -9  16    0.10    5.43
   3   9 -16    0.57    6.00
  -3  -9 -16    0.86    6.95
   3   9  16   -0.95    6.19
  -3  -9  16    4.38    5.62
   3  -9 -16    1.81    6.48
  -3   9 -16   -3.81    6.29
   3  -9  17   -3.33    6.29
   3   9 -17    0.00    8.28
  -3  -9 -17    5.71    7.90
  -3  -9  17   -1.43    6.09
   3  -9 -17    2.29   22.09
  -3   9 -17   -0.95    6.57
   3 -10   9   16.09    9.24
  -3  10  -9    9.05    8.67
   3 -10  10   15.90    9.71
  -3  10 -10   34.47   10.28
   3 -10  11    7.33    8.57
  -3  10 -11    5.62    8.09
   3 -10  12   10.76    7.71
   3  10 -12    5.14    6.95
  -3 -10  12   10.19    7.14
  -3  10 -12    6.38    7.33
   3 -10  13    5.90    6.48
   3  10 -13   20.00    8.00
  -3 -10  13   10.95    6.86
  -3  10 -13    7.33    6.67
   3 -10  14    4.38    6.09
   3  10 -14   -3.71    6.19
  -3 -10  14    4.86    6.67
  -3  10 -14   -7.81    5.52
   3 -10  15   -0.38    5.62
   3  10 -15    2.95   44.47
  -3 -10  15    2.95    6.00
  -3  10 -15   -0.95    6.00
   3 -10  16    2.29    6.09
   3  10 -16   -3.81    5.81
  -3 -10 -16    5.71    6.86
  -3 -10  16   -2.86    5.43
  -3  10 -16    3.90   69.90
   3 -11  10   10.38    9.24
  -3  11 -10   -1.33    8.38
   3 -11  11   -4.57    7.71
  -3  11 -11    9.62    8.00
   3 -11  12   -2.57    6.67
  -3  11 -12   -7.43    6.48
   3 -11  13    0.10    6.38
   3  11 -13    1.05    6.86
  -3 -11  13   -1.05    5.71
  -3  11 -13   -1.90    6.76
   3 -11  14   14.09    7.14
   3  11 -14    6.48    6.95
  -3 -11  14    3.71   39.23
  -3  11 -14    6.29    7.14
   3 -11  15   -7.71   13.24
   3  11 -15   12.95    7.14
  -3 -11  15    1.52    5.71
  -3  11 -15    4.48    6.09
   3 -11  16   -4.19    5.62
   3  11 -16    2.29    6.00
  -3 -11  16   -0.19    6.38
  -3  11 -16    0.67    6.00
   3 -12  11    5.14    7.62
  -3  12 -11    9.81    7.33
   3 -12  12   -1.33    6.86
  -3  12 -12    8.86    7.05
   3 -12  13   16.57    7.81
  -3 -12  13    5.81    6.48
  -3  12 -13    4.48    7.24
   3 -12  14    0.29    6.48
   3  12 -14   -1.43    6.76
  -3 -12  14    8.00    6.38
  -3  12 -14    2.00    6.67
   3 -12  15    2.10    5.71
   3  12 -15   -0.95    6.38
  -3 -12  15    3.33    6.76
  -3  12 -15   -0.86    6.48
   3 -12  16   -1.24    6.38
   3  12 -16    5.52    6.95
  -3 -12  16    2.10    5.90
  -3  12 -16   -2.38    6.57
   3 -13  12    0.19    6.76
  -3  13 -12   -3.43    6.86
   3 -13  13   -0.38    6.38
  -3  13 -13    5.90    6.76
   3 -13  14   10.38    7.33
  -3 -13  14    1.05    6.57
  -3  13 -14   -4.48    6.57
   3 -13  15   19.33    8.19
   3  13 -15    3.33    6.67
  -3 -13  15    5.81    6.86
  -3  13 -15    4.86    6.86
   3 -14  13    0.29    6.86
  -3  14 -13    6.57    7.24
   3 -14  14    0.67    7.33
  -3  14 -14    3.62    6.76
   3 -14  15    2.00    6.57
  -3 -14  15   -0.10    6.29
  -3  14 -15    1.90    6.67
   3 -15  13   -2.19    6.09
   3 -15  14    7.14    6.67
  -3  15 -14    1.90    6.38
   3 -16  14   -0.29    6.19
   4   0   0  736.78   71.04
  -4   0   0  702.50   67.80
   4   0   1   42.57    9.05
  -4   0  -1   54.76    9.62
   4   0   2  137.99   16.76
  -4   0  -2  156.84   18.09
  -4   0   3 1834.10  175.22
   4   0  -3 1716.02  163.98
   4   0   4 2809.24  269.31
  -4   0   4 2756.87  263.40
   4   0  -4 2694.02  257.31
  -4   0  -4 2924.47  280.35
   4   0   5   96.75   14.57
  -4   0   5   90.66   11.81
   4   0  -5   68.37   10.00
  -4   0  -5  113.99   15.71
   4   0   6   66.47   12.00
  -4   0   6   43.71    9.24
   4   0  -6   35.14    8.76
  -4   0  -6   75.42   12.95
  -4   0   7  272.26   28.66
   4   0  -7  272.35   28.76
  -4   0  -7  415.77   42.85
   4   0   8   42.28    9.52
  -4   0   8   52.28    9.52
   4   0  -8   22.85    7.43
  -4   0  -8   57.52   10.67
   4   0   9  568.51   57.80
  -4   0   9  598.13   59.71
   4   0  -9  565.56   56.47
  -4   0  -9  643.36   64.85
   4   0  10   18.09    9.43
  -4   0  10   10.19    8.19
   4   0 -10   22.95    7.90
  -4   0 -10   16.95    8.95
   4   0  11  244.93   29.04
  -4   0 -11  201.98   25.05
   4   0  12  112.94   17.24
  -4   0  12   73.90   12.67
   4   0 -12   80.85   13.33
  -4   0 -12  122.18   18.00
   4   0  13   14.86    8.28
  -4   0  13   33.14    8.86
   4   0 -13   17.05    7.14
  -4   0 -13   34.85    9.71
   4   0  14   12.76    8.00
  -4   0  14    8.38    6.57
   4   0 -14    4.19    6.48
  -4   0 -14    8.09    7.62
   4   0  15   10.67    7.05
  -4   0  15    2.76    5.52
   4   0 -15    9.62    6.00
  -4   0 -15   -2.38    6.29
   4   0  16    0.00    6.38
  -4   0  16    8.19    6.00
   4   0 -16    0.57    5.90
  -4   0 -16    5.81    6.95
  -4   0  17    6.57    6.38
   4   0 -17   22.57    8.19
  -4   0 -17    6.00    7.33
   4  -1   1   76.28   10.67
  -4   1  -1   72.18   10.38
   4  -1   2   82.75   12.19
  -4   1  -2   97.23   13.24
   4  -1   3   26.00    8.76
  -4   1   3    8.67    5.14
   4   1  -3    1.62    4.76
  -4  -1  -3   -2.19    7.81
   4   1   3   -0.95    7.81
  -4  -1   3    8.86    5.43
   4  -1  -3   -9.81    4.95
  -4   1  -3   10.57    7.90
   4  -1   4    5.52    8.09
  -4   1   4   30.38    6.76
   4   1  -4   16.66    5.24
  -4  -1  -4   34.19   10.00
   4   1   4   12.09    8.67
  -4  -1   4   12.19    5.33
   4  -1  -4    5.62    5.43
  -4   1  -4   32.47    9.62
   4  -1   5   -8.95    8.76
  -4   1   5    9.90    6.48
   4   1  -5    3.05    5.81
  -4  -1  -5   -2.48    8.48
   4   1   5   23.81    9.52
  -4  -1   5    0.57    5.90
   4  -1  -5   22.85    7.05
  -4   1  -5  -12.19    8.86
   4  -1   6   22.47    9.71
  -4   1   6   -0.57    6.86
   4   1  -6   -4.48    6.38
  -4  -1  -6    3.05    8.95
   4   1   6    4.48    8.67
  -4  -1   6   22.95    7.43
   4  -1  -6    1.14    7.14
  -4   1  -6   20.09    9.62
   4  -1   7   -1.33    7.52
  -4   1   7    2.86    6.38
   4   1  -7    8.76    6.09
  -4  -1  -7    2.10    8.09
   4   1   7   -0.29    7.62
  -4  -1   7    9.52    6.38
   4  -1  -7    5.90    6.95
  -4   1  -7   -1.05    8.28
   4  -1   8    2.76    7.14
  -4   1   8    5.52    6.00
   4   1  -8   25.62    7.33
  -4  -1  -8    9.81    7.52
   4   1   8   11.24    7.24
  -4  -1   8   15.14    6.86
   4  -1  -8   18.76    6.86
  -4   1  -8    0.00    7.43
   4  -1   9    7.81    7.81
  -4   1   9    8.28    6.29
  -4  -1  -9   -7.24    7.05
   4   1   9   -2.86    7.14
  -4  -1   9   19.90    7.05
   4  -1  -9   13.05    7.05
  -4   1  -9   -0.19    8.00
   4  -1  10   12.38    9.24
  -4   1  10   18.86    7.90
   4   1 -10   21.81    7.71
  -4  -1 -10    8.57    8.86
   4   1  10   15.33    9.43
  -4  -1  10    6.86    7.14
   4  -1 -10    4.57    7.05
  -4   1 -10    8.48    9.05
   4  -1  11    8.57   10.76
  -4   1  11   63.61   12.00
   4   1 -11   28.09    9.24
  -4  -1 -11    8.67    9.52
   4   1  11   11.14   10.19
  -4  -1  11   14.09    8.57
   4  -1 -11   26.09    9.43
  -4   1 -11   17.33   10.00
   4  -1  12    3.24    9.14
  -4   1  12   -1.90    7.24
   4   1 -12    1.90    7.52
  -4  -1 -12    8.86    8.67
   4   1  12   10.28    9.05
  -4  -1  12    5.81    8.00
   4  -1 -12   33.14    9.24
  -4   1 -12   29.90   10.48
   4  -1  13   -3.14    7.52
  -4   1  13    6.19    6.48
   4   1 -13    5.33    6.09
  -4  -1 -13    6.67    7.81
   4   1  13   -1.90    7.33
   4  -1 -13    1.81    6.57
  -4   1 -13   -5.52    7.71
  -4   1  14   12.67    6.57
   4   1 -14    2.19    5.90
  -4  -1 -14    2.86    7.33
   4   1  14   -6.00    7.05
  -4  -1  14    9.14    6.76
   4  -1 -14   11.52    6.57
  -4   1 -14    6.00    7.81
   4  -1  15    7.05    6.48
  -4   1  15   -0.19    5.71
   4   1 -15   -0.48    5.62
  -4  -1 -15    8.38    7.14
   4   1  15    4.09    6.67
  -4  -1  15    2.19    5.62
   4  -1 -15    1.24    6.29
  -4   1 -15    1.90    6.86
   4  -1  16    6.57    6.67
  -4   1  16    0.19    5.62
   4   1 -16    2.67    5.71
  -4  -1 -16   10.57    7.14
   4   1  16   -4.67    5.90
  -4  -1  16    7.62    6.19
   4  -1 -16    6.76    6.38
  -4   1 -16   -8.00    6.19
   4  -1  17   -0.10   14.95
  -4   1  17   -0.76    5.52
   4   1 -17    0.48    5.81
  -4  -1 -17    2.10    6.95
   4   1  17   -1.71    6.48
  -4  -1  17   -4.19    5.71
   4  -1 -17   -3.33    6.00
  -4   1 -17   -0.95    6.76
   4  -2   1 1962.66  188.08
  -4   2  -1 2030.27  194.36
   4  -2   2    8.48    7.43
  -4   2  -2    1.62    7.14
   4  -2   3  270.54   28.19
  -4   2  -3  232.74   24.66
   4  -2   4   20.00    7.71
   4   2  -4    7.14    5.81
  -4  -2  -4   28.28    9.62
   4   2   4   21.05    9.14
  -4  -2   4   20.86    6.67
  -4   2  -4   38.47    8.86
  -4   2   5   78.28   10.95
   4   2  -5  136.65   16.00
  -4  -2  -5  112.66   15.43
  -4  -2   5   91.23   11.71
   4  -2  -5   78.47   11.14
   4  -2   6   25.90    9.81
  -4   2   6    7.90    7.05
   4   2  -6    6.67    6.57
  -4  -2  -6   -0.19    8.57
   4   2   6    1.24    8.38
  -4  -2   6    4.67    6.76
   4  -2  -6   -2.38    6.95
  -4   2  -6    8.86    8.86
   4  -2   7  461.00   46.95
  -4  -2  -7  403.10   41.61
   4   2   7  626.60   62.57
  -4  -2   7  489.95   48.85
  -4   2  -7  433.58   44.38
   4  -2   8   -5.05    7.24
  -4   2   8   10.57    6.38
   4   2  -8    4.57    5.81
  -4  -2  -8   14.00    7.71
  -4  -2   8   -1.14    5.71
   4  -2  -8    3.33    6.19
  -4   2  -8    2.19    7.62
  -4   2   9   52.09    9.43
   4   2  -9   58.38    9.81
  -4  -2  -9   63.42   11.62
   4   2   9   32.28    9.33
  -4  -2   9   72.37   10.95
   4  -2  -9   72.85   11.14
  -4   2  -9   72.18   12.57
   4  -2  10   18.47    9.14
  -4   2  10   -3.24    7.24
   4   2 -10   -2.19    6.19
  -4  -2 -10    8.19    8.48
   4   2  10    9.81    8.86
  -4  -2  10   -0.10    6.76
   4  -2 -10    5.43    7.71
  -4   2 -10   21.24    9.05
   4  -2  11   10.57   10.00
  -4   2  11    3.43    8.00
   4   2 -11    6.86    7.14
  -4  -2 -11   -0.48    9.24
   4   2  11    2.57   10.28
  -4  -2  11   13.90    8.57
   4  -2 -11   -7.62    8.19
  -4   2 -11   10.76    9.52
   4  -2  12   29.62   10.38
  -4   2  12   14.57    7.52
   4   2 -12    2.10    6.86
  -4  -2 -12    1.62    8.48
   4   2  12   10.76    8.86
  -4  -2  12   10.28    7.90
   4  -2 -12    5.05    7.52
  -4   2 -12    3.05    8.86
   4  -2  13    2.29    7.62
  -4   2  13    0.76    6.29
   4   2 -13   -4.19    6.00
  -4  -2 -13   -3.43    7.05
   4   2  13    2.76    7.71
  -4  -2  13   -2.10    6.67
   4  -2 -13    6.95    6.19
  -4   2 -13    8.00    8.19
   4  -2  14   -2.29    7.43
  -4   2  14    8.00    6.48
   4   2 -14   20.95    7.14
  -4  -2 -14    1.90    7.33
   4   2  14    3.52    7.43
  -4  -2  14    7.81    6.29
   4  -2 -14   -1.05    6.29
  -4   2 -14    7.90    7.24
   4  -2  15    0.67    7.05
  -4   2  15    5.52    5.71
   4   2 -15    2.86    5.62
  -4  -2 -15   11.43    7.43
   4   2  15    8.76    7.24
  -4  -2  15   15.71    6.86
   4  -2 -15   10.28    6.48
  -4   2 -15    8.76    7.24
   4  -2  16   -2.48    6.19
  -4   2  16    1.14    8.76
   4   2 -16    5.62    6.29
  -4  -2 -16    3.43    6.48
   4   2  16   -8.19    5.62
  -4  -2  16    2.67    6.19
   4  -2 -16   -2.57    5.24
  -4   2 -16    0.57    6.76
   4  -2  17   11.90    7.43
  -4   2  17    3.24    5.62
   4   2 -17    2.00    6.19
  -4  -2 -17    8.86    7.52
   4   2  17    9.90    7.24
  -4  -2  17    6.00    6.48
   4  -2 -17    9.24    6.38
  -4   2 -17   -5.52    6.86
   4  -3   2 3353.95  320.63
  -4   3  -2 2395.95  229.50
   4  -3   3   17.52    7.24
  -4   3  -3    4.95    6.67
   4  -3   4  941.91   91.51
  -4   3  -4 1057.99  102.66
   4  -3   5    2.29    8.00
   4   3  -5   -7.71    7.05
  -4  -3   5   12.76    7.52
  -4   3  -5    6.67    8.57
   4  -3   6 1810.30  174.55
  -4   3   6 1954.09  187.70
   4   3  -6 1597.94  153.89
  -4  -3  -6 2063.60  198.84
   4   3   6 1684.59  162.84
  -4  -3   6 1532.23  147.60
  -4   3  -6 1580.79  152.84
   4  -3   7   12.95    6.76
   4   3  -7   17.05    6.48
  -4  -3  -7   39.04    9.81
   4   3   7   17.52    8.57
  -4  -3   7   19.33    6.86
   4  -3  -7   28.28    7.71
  -4   3  -7   18.00    7.62
   4  -3   8   11.43    7.14
  -4   3   8   11.71    6.67
   4   3  -8    2.67    6.09
  -4  -3  -8    4.76    6.95
   4   3   8    5.14    7.43
  -4  -3   8   -1.14    5.81
   4  -3  -8    3.62    6.38
   4  -3   9   23.14    8.00
  -4   3   9   -6.57    6.19
   4   3  -9   13.71    6.48
  -4  -3  -9   10.28    7.81
   4   3   9    6.48    7.90
  -4  -3   9    7.62    6.19
   4  -3  -9   -0.10    6.29
  -4   3  -9    5.90    6.57
   4  -3  10   12.67    8.57
  -4   3  10    5.62    7.52
   4   3 -10   18.19    6.86
  -4  -3 -10    9.71    8.57
   4   3  10   22.66   10.19
  -4  -3  10   22.76    7.62
   4  -3 -10   11.90    7.62
  -4   3 -10    1.05    6.86
   4  -3  11   10.67    9.52
  -4   3  11    8.09    8.57
   4   3 -11   15.33    7.43
  -4  -3 -11    4.38    9.24
   4   3  11   10.76   10.38
  -4  -3  11   23.52    8.38
   4  -3 -11    6.38    8.48
  -4   3 -11   27.33   10.48
   4  -3  12    6.48    9.05
  -4   3  12    5.90    7.14
   4   3 -12   23.52    8.09
  -4  -3 -12    1.43    7.71
   4   3  12    8.86    8.57
  -4  -3  12   40.85    9.90
   4  -3 -12   -0.67    7.24
  -4   3 -12    5.33    8.76
   4  -3  13   15.24    8.19
  -4   3  13   -5.71    6.00
   4   3 -13   -3.14    5.90
  -4  -3 -13   -2.00    7.14
   4   3  13    4.86    7.62
  -4  -3  13   -2.29    5.81
   4  -3 -13   -2.76    6.00
  -4   3 -13    5.71    8.00
   4  -3  14   12.95    7.71
  -4   3  14    5.81    6.67
  -4  -3 -14   22.09    8.57
   4   3  14    1.71    7.24
  -4  -3  14   30.66    7.81
   4  -3 -14   18.86    7.43
  -4   3 -14    4.67    7.14
   4  -3  15    2.38    6.57
  -4   3  15   -6.38    5.52
   4   3 -15    5.33    5.43
  -4  -3 -15    2.00    6.38
   4   3  15   -0.38    6.29
  -4  -3  15    4.19    5.71
   4  -3 -15    2.38    6.09
  -4   3 -15    0.95    6.86
   4  -3  16    1.62    6.38
  -4   3  16   -8.19    5.43
   4   3 -16    3.71    5.52
  -4  -3 -16   -5.71    5.90
   4   3  16    0.95    6.57
  -4  -3  16    3.14    6.00
   4  -3 -16   16.38   10.57
  -4   3 -16    2.86    6.76
   4  -3  17    0.86    6.29
  -4   3  17    2.29    5.62
   4   3 -17   -1.43    5.52
  -4  -3 -17   -1.24    6.86
   4   3  17   -3.90    5.90
  -4  -3  17    4.38    6.00
   4  -3 -17   -2.38    5.90
  -4   3 -17    2.86   19.71
   4  -4   3   47.52    9.43
  -4   4  -3   40.76    9.14
   4  -4   4   18.38    7.71
  -4   4  -4   21.81    8.38
   4  -4   5   20.95    8.09
  -4   4  -5   27.71    9.62
   4  -4   6    8.86    7.71
   4   4  -6   25.33    8.09
  -4  -4  -6    4.00    8.67
   4   4   6    3.33    8.28
  -4  -4   6   11.24    7.05
  -4   4  -6   14.76    8.00
   4  -4   7   17.62    7.24
   4   4  -7   32.28    8.00
  -4  -4  -7    8.00    8.57
   4   4   7   13.81    8.00
  -4   4  -7   13.14    7.52
   4  -4   8    6.09    6.76
  -4   4   8    5.14    6.48
   4   4  -8   -3.52    6.48
  -4  -4  -8    2.67    8.00
   4   4   8    4.19    7.43
  -4  -4   8    0.19    6.09
   4  -4  -8    4.00    6.76
  -4   4  -8    6.00    6.67
  -4   4   9    1.71    6.67
   4   4  -9   -1.14    6.00
  -4  -4  -9    9.05    8.48
   4   4   9   11.43    8.67
  -4  -4   9    6.67    6.29
   4  -4  -9   15.05    7.52
   4  -4  10    8.86    7.90
  -4   4  10   14.09    8.38
   4   4 -10   -2.48    6.48
  -4  -4 -10   11.71    8.57
   4   4  10  -12.38    9.52
  -4  -4  10    5.33    6.57
   4  -4 -10    9.14    8.19
  -4   4 -10    5.43    7.14
   4  -4  11   64.76   12.38
  -4   4  11   45.33   11.05
   4   4 -11   26.66    8.57
  -4  -4 -11   49.04   12.38
   4   4  11   81.80   15.05
  -4  -4  11   49.42   10.19
   4  -4 -11   53.99   11.33
  -4   4 -11   52.95   11.24
   4  -4  12    4.48    7.90
  -4   4  12    1.62    6.86
   4   4 -12    7.71    7.05
  -4  -4 -12   -6.29    7.71
   4   4  12    2.10    8.38
  -4  -4  12    3.90    7.05
   4  -4 -12   -7.43    6.95
  -4   4 -12  -10.28    7.33
   4  -4  13   -0.95    7.33
  -4   4  13   -1.24    5.90
   4   4 -13    5.05    5.81
  -4  -4 -13   -3.24    7.05
   4   4  13    7.24    7.24
  -4  -4  13   -1.52    5.71
   4  -4 -13    0.86    6.09
  -4   4 -13    2.57    6.86
   4  -4  14    4.29    6.38
  -4   4  14   -1.62    6.00
   4   4 -14    0.95    4.95
  -4  -4 -14   -4.09    6.38
   4   4  14   -0.19    6.95
  -4  -4  14    4.67    5.43
   4  -4 -14    4.67    6.19
  -4   4 -14    1.05    5.71
   4  -4  15   -4.48    6.29
  -4   4  15    1.33    5.33
   4   4 -15    5.62    5.71
  -4  -4 -15    3.24    6.48
   4   4  15   -3.33    6.48
  -4  -4  15   14.47    6.29
   4  -4 -15   -2.29    5.43
  -4   4 -15   -2.95    5.71
   4  -4  16   -1.90   48.66
  -4   4  16   -0.76    5.43
   4   4 -16   -2.86    5.05
  -4  -4 -16    1.62    6.19
   4   4  16   -0.76    6.38
  -4  -4  16    1.71    5.24
   4  -4 -16   -4.57    5.33
  -4   4 -16    0.29    6.67
   4  -4  17    2.67    6.48
  -4   4  17   -3.14    5.81
   4   4 -17   -5.14    5.14
  -4  -4 -17    1.81    6.57
   4   4  17    4.86    6.67
  -4  -4  17   -2.86    5.24
   4  -4 -17   -1.33    5.90
  -4   4 -17   -3.81    6.38
   4  -5   3   40.38    9.14
   4  -5   4   12.86    8.38
  -4   5  -4   -6.19    8.67
   4  -5   5   58.57   10.38
  -4   5  -5   81.61   13.62
   4  -5   6  326.35   34.19
  -4   5  -6  289.02   30.85
   4  -5   7   12.38    7.24
  -4  -5   7   -0.38    6.95
  -4   5  -7   15.33    7.43
   4  -5   8    2.48    6.76
   4   5  -8    8.19    6.86
  -4  -5  -8   33.14    9.62
   4   5   8   -0.76    7.71
  -4  -5   8   -6.67    6.48
  -4   5  -8   10.57    7.05
   4  -5   9    2.00    6.29
   4   5  -9   19.43    7.24
  -4  -5   9    0.57    6.48
   4  -5  -9   24.09    8.00
  -4   5  -9   16.47    7.33
   4  -5  10   22.57    8.57
  -4   5  10    6.19    8.19
   4   5 -10   -2.86    7.14
  -4  -5 -10   26.57   10.57
   4   5  10   29.24   10.95
  -4  -5  10    0.38    6.86
   4  -5 -10   30.28    9.43
  -4   5 -10    9.43    7.52
   4  -5  11   84.28   14.09
   4   5 -11   73.33   12.09
  -4  -5 -11  130.75   19.62
   4   5  11   99.99   16.66
  -4  -5  11   80.18   12.67
  -4   5 -11   88.47   14.28
   4  -5  12   40.76   10.57
  -4   5  12   33.04    9.43
   4   5 -12   18.86    8.09
  -4  -5 -12   19.43    9.90
   4   5  12   29.90   10.38
  -4  -5  12    9.62    7.33
   4  -5 -12   24.85    8.48
  -4   5 -12   22.85    9.24
   4  -5  13   -3.90    6.09
  -4   5  13   13.43    7.52
   4   5 -13    5.90    6.38
  -4  -5 -13    0.38    7.14
   4   5  13    0.38    8.09
  -4  -5  13    2.29    6.09
   4  -5 -13    2.48    6.67
  -4   5 -13    4.09    6.19
   4  -5  14    0.10    5.62
  -4   5  14   -2.48    6.38
   4   5 -14    3.43    5.52
  -4  -5 -14    4.09    7.33
   4   5  14   -2.67    6.76
  -4  -5  14   22.66    6.86
   4  -5 -14   -2.48    5.71
  -4   5 -14    1.62    5.62
   4  -5  15   -2.48    5.81
  -4   5  15   -3.33  191.12
   4   5 -15   -1.24    4.95
  -4  -5 -15  -12.38    6.09
   4   5  15   -0.86    6.19
  -4  -5  15    0.95    5.43
   4  -5 -15    4.48    6.09
  -4   5 -15   -0.48    5.52
   4  -5  16    6.57    6.29
  -4   5  16    2.57    5.62
   4   5 -16    5.14    5.62
  -4  -5 -16    5.24    6.67
   4   5  16    1.24    6.67
  -4  -5  16    2.29    5.24
   4  -5 -16   -6.09    5.14
  -4   5 -16    4.29   11.24
   4  -5  17   -1.81    6.57
  -4   5  17    2.10    5.90
   4   5 -17   -3.43    5.43
  -4  -5 -17   -0.38    6.19
   4   5  17    2.86    6.29
  -4  -5  17    1.71    5.14
   4  -5 -17    1.05    5.62
  -4   5 -17   -1.52    5.81
   4  -6   4   10.38    8.28
   4  -6   6   11.43    8.48
  -4   6  -6    0.48    8.00
   4  -6   7   21.05    8.19
  -4   6  -7   42.57    9.33
   4  -6   8    2.95    6.48
  -4  -6   8    0.38    6.67
  -4   6  -8   -3.43    6.29
   4  -6   9   27.71    8.19
   4   6  -9   24.09    8.19
  -4  -6  -9   46.85   11.43
  -4  -6   9   61.33   10.95
  -4   6  -9   22.66    7.62
   4  -6  10   -8.86    7.52
   4   6 -10    6.67    7.81
  -4  -6 -10   -2.67    9.43
   4   6  10    0.67    9.43
  -4  -6  10    7.62    8.00
  -4   6 -10   10.57    8.38
   4  -6  11   37.81   10.09
   4   6 -11   26.28    8.95
  -4  -6 -11   15.14    9.81
   4   6  11   31.71   11.81
   4  -6 -11   53.71   11.62
  -4   6 -11   20.95    8.86
   4  -6  12   -2.76    7.14
  -4   6  12    8.38    7.24
   4   6 -12    3.33    6.95
  -4  -6 -12   -3.81    7.81
   4   6  12   14.67    8.86
  -4  -6  12    6.09    7.05
   4  -6 -12   -1.24    6.95
  -4   6 -12    2.29    7.05
   4  -6  13    5.33    6.38
  -4   6  13   21.71    8.00
   4   6 -13    0.10    6.09
  -4  -6 -13   17.33    8.38
   4   6  13   22.47    9.52
  -4  -6  13    3.24    5.62
   4  -6 -13   -4.76    6.29
  -4   6 -13   12.76    6.95
   4  -6  14    4.00    5.52
  -4   6  14    3.52    6.48
   4   6 -14   -7.81    5.62
  -4  -6 -14   -0.86    6.86
   4   6  14   -2.95    6.76
  -4  -6  14   -0.67    5.14
   4  -6 -14    0.57    6.29
  -4   6 -14    3.71    6.19
   4  -6  15    4.29    6.00
  -4   6  15   -1.90    6.00
   4   6 -15   -4.09    5.24
  -4  -6 -15    1.71    6.48
   4   6  15    0.29    6.29
  -4  -6  15    3.05    5.14
   4  -6 -15    4.19    6.19
  -4   6 -15   -1.81    5.33
   4  -6  16    0.00    5.90
  -4   6  16    1.43    5.52
   4   6 -16   -2.86    5.90
  -4  -6 -16   -2.10    6.38
   4   6  16   -2.29    6.38
  -4  -6  16    1.24    9.33
   4  -6 -16    2.00    5.52
  -4   6 -16    1.33    6.00
   4  -6  17    2.95    5.71
  -4   6  17    0.86    6.09
   4   6 -17   -1.14    5.05
  -4  -6 -17    2.48    7.05
   4   6  17    3.71    6.38
  -4  -6  17   -3.81    5.24
   4  -6 -17   -1.43    5.62
  -4   6 -17   -2.19    5.52
   4  -7   5   -3.24    7.71
   4  -7   6  145.13   18.38
  -4   7  -6  181.98   21.14
   4  -7   7    0.19    7.62
  -4   7  -7    1.05    7.05
   4  -7   8  261.12   28.47
  -4   7  -8  301.40   32.28
   4  -7   9   -2.19    6.76
  -4  -7   9   -1.24    6.86
  -4   7  -9    6.76    6.95
   4  -7  10  103.13   15.24
   4   7 -10   77.33   13.14
  -4  -7  10   66.95   12.19
  -4   7 -10  105.32   15.71
   4  -7  11    7.81    8.38
   4   7 -11   -6.00    8.09
  -4  -7 -11   -0.38    9.24
  -4  -7  11  -12.57    8.00
  -4   7 -11    1.05    8.19
   4  -7  12    1.33    6.95
   4   7 -12   -0.38    7.05
  -4  -7 -12   14.86    8.76
   4   7  12    8.67    8.09
  -4  -7  12    4.67    6.67
  -4   7 -12    6.00    7.24
   4  -7  13    4.86    5.81
  -4   7  13   -0.76    6.19
   4   7 -13   -2.67    5.43
  -4  -7 -13   -0.29    7.33
   4   7  13    4.38    7.71
  -4  -7  13    3.52    5.33
   4  -7 -13    3.24    6.29
  -4   7 -13   -0.38    6.19
   4  -7  14    9.14    6.67
  -4   7  14   19.52    7.43
   4   7 -14   30.38    8.38
  -4  -7 -14   35.43    9.81
   4   7  14   28.00    9.33
  -4  -7  14   17.24    7.05
   4  -7 -14   25.33    8.09
  -4   7 -14   29.71    8.76
   4  -7  15   -4.48    5.71
  -4   7  15    4.86    5.90
   4   7 -15    0.76    5.52
  -4  -7 -15   -2.38    6.29
   4   7  15    3.62    6.76
  -4  -7  15   -1.33    5.52
   4  -7 -15    2.00    5.81
  -4   7 -15   -4.76    5.33
   4  -7  16   48.47   10.67
  -4   7  16   27.43    8.00
   4   7 -16   36.38    9.33
  -4  -7 -16   34.47   10.19
   4   7  16   41.52   10.57
  -4  -7  16   45.61    9.52
   4  -7 -16   37.90    9.52
  -4   7 -16   50.38   11.24
   4  -7  17    2.57    6.29
  -4   7  17    2.57  178.74
   4   7 -17   -2.86    7.24
  -4  -7 -17    4.95    6.76
   4   7  17    1.52    6.76
  -4  -7  17    6.86    6.00
   4  -7 -17    2.86    5.90
  -4   7 -17   -7.62    5.43
   4  -8   6   14.00    8.76
   4  -8  10   12.47    8.00
  -4  -8  10    5.62    8.38
  -4   8 -10    1.90    8.38
   4  -8  11    7.62    8.28
  -4  -8  11    8.09    8.19
  -4   8 -11   11.62    8.76
   4  -8  12   14.95    7.71
   4   8 -12    4.48    6.76
  -4  -8 -12    4.76    8.19
  -4  -8  12    7.90    7.14
  -4   8 -12   -0.48    7.14
   4  -8  13   63.99   11.62
   4   8 -13   50.76   10.28
  -4  -8 -13   25.62    9.43
  -4  -8  13   58.95   10.76
  -4   8 -13   57.99   11.14
   4  -8  14    0.19    6.09
   4   8 -14    8.95    6.95
  -4  -8 -14    5.24    7.43
   4   8  14   12.76    7.43
  -4  -8  14    2.38    5.52
   4  -8 -14    6.19    6.29
  -4   8 -14   -5.62    6.29
   4   8 -15   55.80   11.05
  -4  -8 -15   29.90    9.90
   4   8  15   38.28   10.38
   4  -8 -15   35.62    9.05
  -4   8 -15   78.56   13.81
   4  -8  16    6.76    6.48
  -4   8  16    2.29    6.09
   4   8 -16    6.19    6.48
  -4  -8 -16    1.71    7.05
   4   8  16   -0.76    6.38
  -4  -8  16    6.00    6.29
   4  -8 -16   -5.81    6.19
  -4   8 -16    0.38    6.00
   4  -8  17    3.71    5.90
  -4   8  17    5.71    6.76
   4   8 -17    6.19    7.71
  -4  -8 -17    1.05    9.81
   4   8  17   -0.95   14.47
  -4  -8  17    4.67 1578.89
   4  -8 -17    5.90    6.38
  -4   8 -17   -0.29   60.95
   4  -9   7    1.52    8.09
   4  -9   8    1.62    7.05
  -4   9  -8    5.81    7.43
   4  -9   9    1.43    8.67
  -4   9  -9    1.05    8.28
   4  -9  10   14.09    8.86
  -4   9 -10   20.19    9.05
   4  -9  11    4.38    7.52
  -4  -9  11   17.62    8.57
  -4   9 -11    5.81    8.00
   4  -9  12    7.05    6.76
   4   9 -12    2.67    6.57
  -4  -9  12   -1.14    6.57
  -4   9 -12   -4.48    6.86
   4  -9  13    3.81    6.00
   4   9 -13   -2.48    6.00
  -4  -9  13    2.00    6.00
  -4   9 -13    8.19    6.38
   4  -9  14    1.43    6.00
   4   9 -14   -4.86    6.09
  -4  -9 -14   -0.19    6.67
  -4  -9  14   -1.33    5.90
  -4   9 -14    6.00    6.57
   4  -9  15   -5.62    5.71
   4   9 -15    1.81    6.29
  -4  -9 -15    6.95    7.05
   4   9  15    4.86    7.14
  -4  -9  15   -1.24    5.33
  -4   9 -15   -4.86    5.71
   4  -9  16    5.71    5.90
   4   9 -16   -6.48    5.52
  -4  -9 -16    0.86    6.86
   4   9  16    5.71    6.86
  -4  -9  16    7.52    6.29
   4  -9 -16   -1.05    5.62
  -4   9 -16   -1.14    6.09
   4 -10   8   -9.24    7.62
   4 -10   9   66.09   12.38
  -4  10  -9   97.80   15.33
   4 -10  10   24.09    9.81
  -4  10 -10    0.38    8.76
   4 -10  11   29.24    9.71
  -4  10 -11   -1.43    8.00
   4 -10  12   11.52    6.76
  -4 -10  12   17.33    7.43
  -4  10 -12   -0.10    6.95
   4 -10  13    8.67    6.38
   4  10 -13   18.57    7.90
  -4 -10  13    9.33    6.86
  -4  10 -13   -1.81    6.19
   4 -10  14    7.14    6.00
   4  10 -14   -3.81    6.29
  -4 -10  14   -2.29    6.38
  -4  10 -14   -2.95    5.90
   4 -10  15   12.19    6.57
   4  10 -15   -0.19    6.19
  -4 -10 -15    2.67    6.48
  -4 -10  15    3.33    6.38
  -4  10 -15   -4.48    6.09
   4 -10  16    2.76    5.62
   4  10 -16   -2.29    6.29
  -4 -10 -16   -3.52    6.57
  -4 -10  16   -1.62    5.24
  -4  10 -16    6.95    6.29
   4 -11   9   -1.33    8.67
   4 -11  10   -4.67    7.90
  -4  11 -10  -18.47    8.09
   4 -11  11    0.95    7.90
  -4  11 -11    1.62    8.00
   4 -11  12    9.43    6.86
  -4  11 -12   10.00    7.14
   4 -11  13   -0.19    6.95
  -4 -11  13    5.33    6.29
  -4  11 -13    5.81    6.95
   4 -11  14   -1.43    5.71
   4  11 -14   -1.71    6.29
  -4 -11  14   -3.05    6.00
  -4  11 -14    9.14    6.95
   4 -11  15    0.29    6.19
   4  11 -15   -0.86    6.19
  -4 -11  15   -4.95    5.52
  -4  11 -15    6.95    6.57
   4 -11  16    1.81    5.62
   4  11 -16    0.86    6.67
  -4 -11  16    9.81    6.95
  -4  11 -16    0.29    6.09
   4 -12  10    1.90    7.52
   4 -12  11    5.05    7.05
  -4  12 -11   -0.95    7.05
   4 -12  12    5.52    6.86
  -4  12 -12   -0.95    6.57
   4 -12  13   29.33    9.24
  -4  12 -13   18.66    8.00
   4 -12  14   -2.19    6.57
  -4 -12  14    2.38    6.38
  -4  12 -14   -4.19    5.90
   4 -12  15   46.95   10.48
   4  12 -15   21.33    8.48
  -4 -12  15   25.52    8.38
  -4  12 -15   31.04    9.62
   4 -12  16   -4.38    5.24
  -4 -12  16   -4.76   25.71
  -4  12 -16    2.57    7.05
   4 -13  11    1.52    6.67
   4 -13  12   37.52   10.38
  -4  13 -12   62.18   12.19
   4 -13  13   -3.24    6.00
  -4  13 -13    0.00    6.67
   4 -13  14   59.14   12.19
  -4  13 -14   64.95   13.14
   4 -13  15    0.67    6.48
  -4 -13  15    1.52    6.00
  -4  13 -15   -7.71    6.38
   4 -14  12   -4.76    6.57
   4 -14  13    7.33    7.14
  -4  14 -13    1.14    6.76
   4 -14  14    2.76    6.57
  -4  14 -14   -3.43    6.76
   4 -14  15    8.57    6.76
  -4  14 -15   -5.81    6.09
   4 -15  13   -0.38    6.29
   4 -15  14    5.90    6.86
  -4  15 -14    2.10    6.67
   4 -16  14   -6.00    6.86
   5   0   0    2.19    6.38
  -5   0   0   -0.86    6.19
   5   0   1 6335.56  604.42
   5   0  -1 8717.22  830.68
  -5   0  -1 6058.44  578.04
   5   0   2    6.86    7.81
  -5   0  -2   12.57    8.00
   5   0   3 4516.69  431.77
  -5   0   3 4939.51  470.91
   5   0  -3 5362.32  511.09
  -5   0  -3 4701.43  449.29
   5   0   4  248.93   26.95
  -5   0   4  168.75   17.52
   5   0  -4  167.98   17.24
  -5   0  -4  234.83   25.52
   5   0   5 2821.62  270.73
  -5   0   5 2998.75  286.64
   5   0  -5 2766.39  264.45
  -5   0  -5 3277.77  314.25
  -5   0   6   64.95   10.19
   5   0  -6   54.66    9.14
   5   0   7   45.52   10.67
  -5   0   7   54.95    9.43
   5   0  -7   42.66    8.09
  -5   0  -7   64.66   11.52
   5   0   8   22.28    8.19
  -5   0   8   28.47    7.33
   5   0  -8   42.57    8.48
  -5   0  -8    7.81    7.52
   5   0   9 2377.86  229.50
  -5   0   9 3000.65  287.97
   5   0  -9 2519.75  242.17
  -5   0  -9 2422.61  233.98
   5   0  10   28.09   10.19
  -5   0  10    6.86    7.71
   5   0 -10   -2.95    6.76
  -5   0 -10    7.90    8.95
   5   0  11 1359.86  133.99
  -5   0  11 1267.49  123.89
   5   0 -11 1555.08  151.03
  -5   0 -11 1308.44  129.03
   5   0  12    8.57    8.57
  -5   0  12    7.24    8.57
   5   0 -12    5.24    7.62
  -5   0 -12    1.14    8.76
   5   0  13   27.43    9.24
  -5   0 -13   48.09   11.33
   5   0  14   21.43    8.48
  -5   0  14   47.71    9.71
   5   0 -14   28.00    8.19
  -5   0 -14   35.43   10.00
   5   0  15   32.00    9.62
  -5   0  15   10.57    6.29
   5   0 -15   18.76    7.05
  -5   0 -15    8.76    7.62
   5   0  16    5.71    6.57
  -5   0  16   -1.43    5.14
   5   0 -16   -3.14    5.43
  -5   0 -16    7.43    6.57
   5   0  17    9.81    7.05
  -5   0  17   13.52    6.48
   5   0 -17   -5.71    5.62
  -5   0 -17    6.76    6.76
   5  -1   0   14.00    6.19
  -5   1   0    6.76    5.81
  -5   1   1   50.66    6.57
   5   1   1   35.33    8.86
   5  -1  -1   32.57    5.05
  -5   1  -1   55.23    9.71
   5  -1   2  642.60   63.04
  -5  -1  -2  820.97   79.90
   5   1   2  833.25   81.13
   5  -1   3   20.57    8.38
  -5   1   3    6.76    4.00
  -5  -1  -3    2.00    7.43
   5   1   3    0.38    7.81
   5  -1  -3   12.19    4.48
  -5   1  -3   -1.52    7.62
   5  -1   4  594.89   58.95
   5   1  -4  674.98   65.14
  -5  -1   4  672.60   64.95
   5  -1  -4  821.82   79.04
  -5   1  -4  766.02   75.14
   5  -1   5    9.71    8.95
  -5   1   5   -2.67    5.90
   5   1  -5    7.52    5.62
  -5  -1  -5   15.33    9.62
   5   1   5   15.14    8.86
  -5  -1   5   -3.24    5.71
   5  -1  -5    1.05    6.00
  -5   1  -5    3.90    9.71
   5  -1   6    4.95    8.57
  -5   1   6   18.19    7.05
   5   1  -6    7.81    6.00
  -5  -1  -6    1.24    8.95
   5   1   6    0.67    8.67
  -5  -1   6   29.52    7.05
   5  -1  -6   13.33    6.67
  -5   1  -6    1.52    9.43
   5  -1   7   13.52    8.76
  -5   1   7   -1.14    5.81
   5   1  -7   21.81    6.09
  -5  -1  -7    1.81    8.00
   5   1   7   -3.14    7.81
  -5  -1   7   14.57    6.09
   5  -1  -7    5.90    6.00
  -5   1  -7    1.05    8.28
   5  -1   8    6.86    8.00
  -5   1   8   15.81    6.29
   5   1  -8    8.67    6.00
  -5  -1  -8   25.81    8.28
  -5  -1   8   15.90    6.76
   5  -1  -8   20.66    7.05
  -5   1  -8   24.00    8.09
   5  -1   9    2.10    8.00
  -5   1   9   -3.52    6.00
   5   1  -9    9.14    6.29
  -5  -1  -9    1.33    7.33
   5   1   9   15.90    7.81
  -5  -1   9    5.81    6.57
   5  -1  -9    2.19    6.48
  -5   1  -9   -1.52    7.52
   5  -1  10  346.35   37.62
  -5   1  10  313.68   33.52
   5   1 -10  305.68   32.28
  -5  -1 -10  304.83   34.19
   5   1  10  366.63   39.71
   5  -1 -10  335.30   35.43
  -5   1 -10  344.35   37.62
   5  -1  11   15.33    9.90
  -5   1  11    5.05    7.81
   5   1 -11   -0.76    7.52
  -5  -1 -11    4.48    9.52
   5   1  11   21.33   10.95
  -5  -1  11   13.81    8.19
   5  -1 -11   10.28    8.38
  -5   1 -11    4.09    9.90
   5  -1  12   20.57    9.43
  -5   1  12   44.76    9.52
   5   1 -12   25.52    8.67
  -5  -1 -12   32.28   10.19
   5   1  12   42.19   11.24
  -5  -1  12    9.52    7.90
   5  -1 -12   46.66   10.19
  -5   1 -12   22.38   10.00
   5  -1  13   -0.10    7.05
  -5   1  13   -0.57    5.90
   5   1 -13   -1.71    6.29
  -5  -1 -13    6.19    7.43
   5   1  13    6.29    7.52
  -5  -1  13    8.76    6.67
   5  -1 -13    7.14    6.76
  -5   1 -13    6.95    8.09
   5  -1  14   -7.05    6.95
  -5   1  14    7.81    6.09
   5   1 -14   -2.57    5.62
  -5  -1 -14   10.00    8.00
   5   1  14    2.48    7.24
  -5  -1  14   29.52    8.19
   5  -1 -14    2.57    6.29
  -5   1 -14   -1.43    7.05
   5  -1  15   -2.57    6.00
  -5   1  15    3.43    5.71
   5   1 -15    3.43    5.71
  -5  -1 -15   10.86    7.14
   5   1  15   -1.52    6.09
  -5  -1  15    8.95    6.00
   5  -1 -15   -2.19    5.43
  -5   1 -15   12.38    7.05
   5  -1  16    4.57    6.38
  -5   1  16    0.19    5.33
   5   1 -16   -0.67    5.62
  -5  -1 -16    8.86    7.33
   5   1  16    7.90    6.67
  -5  -1  16    2.86    5.90
   5  -1 -16    1.14    5.33
  -5   1 -16   -2.86    6.29
   5  -1  17    0.95    6.29
  -5   1  17    3.52    5.33
   5   1 -17   -3.90    5.81
  -5  -1 -17   -2.48   16.28
   5   1  17    5.81    6.48
  -5  -1  17   -0.95    5.52
   5  -1 -17   -5.52   26.85
  -5   1 -17   -0.10    7.14
   5  -2   0    7.14    6.57
  -5   2   0   24.47    7.24
   5  -2   1  657.84   64.09
  -5   2  -1  888.96   85.99
   5  -2   2   65.14   10.19
  -5   2  -2   45.04    8.76
   5  -2   3  488.90   48.57
  -5  -2  -3  456.43   45.80
   5   2   3  365.20   37.52
   5  -2   4   97.61   13.24
  -5  -2  -4   68.95   12.19
   5   2   4   81.42   12.38
  -5   2  -4   73.52   11.05
   5  -2   5   10.19    8.76
   5   2  -5   20.09    7.05
  -5  -2  -5   24.66   10.38
   5   2   5    6.09    8.38
   5  -2  -5   35.04    7.43
  -5   2  -5    3.14    9.43
   5  -2   6   14.95    8.57
  -5   2   6   22.28    7.05
   5   2  -6   27.52    7.05
  -5  -2  -6   20.38    9.14
   5   2   6   30.95    9.71
  -5  -2   6   25.05    6.76
   5  -2  -6   16.38    6.95
  -5   2  -6   12.86    9.52
   5  -2   7    2.67    8.19
  -5   2   7    1.90    6.09
   5   2  -7    7.24    5.90
  -5  -2  -7   18.00    8.67
   5   2   7    8.57    8.86
  -5  -2   7   -5.14    5.52
   5  -2  -7   27.52    7.14
  -5   2  -7   14.09    8.19
  -5   2   8    3.05    5.90
   5   2  -8    7.05    5.71
  -5  -2  -8   12.38    7.14
   5   2   8   28.09    8.95
  -5  -2   8    2.76    5.90
   5  -2  -8   -6.29    5.81
  -5   2  -8   21.71    8.57
   5  -2   9   22.66    8.57
  -5   2   9   10.76    6.57
   5   2  -9   26.19    6.76
  -5  -2  -9   20.66    8.76
   5   2   9    8.48    7.81
  -5  -2   9   24.47    7.05
   5  -2  -9   12.67    6.67
  -5   2  -9   32.28    9.24
   5  -2  10   -0.29    8.48
  -5   2  10    2.76    7.43
   5   2 -10    5.71    5.71
  -5  -2 -10   -2.29    8.28
   5   2  10    9.71    9.52
  -5  -2  10    8.76    6.38
   5  -2 -10   -8.67    7.43
  -5   2 -10    7.33    8.76
  -5   2  11  154.18   19.43
   5   2 -11  221.12   24.66
  -5  -2 -11  153.79   21.14
   5   2  11  184.74   24.19
  -5  -2  11  213.22   24.28
   5  -2 -11  137.99   18.09
  -5   2 -11  157.60   21.24
   5  -2  12   10.86    8.86
  -5   2  12    2.38    6.76
   5   2 -12    9.05    6.95
  -5  -2 -12    7.43    8.28
   5   2  12    4.09    8.95
  -5  -2  12   -6.67    7.14
   5  -2 -12    5.81    7.33
  -5   2 -12   15.33    9.14
   5  -2  13    9.33    8.00
  -5   2  13   15.33    6.76
   5   2 -13    2.48    5.62
  -5  -2 -13   25.52    9.33
   5   2  13   28.66    9.52
  -5  -2  13   -1.71    6.09
   5  -2 -13    0.29    6.00
  -5   2 -13   -2.67    7.52
   5  -2  14   -3.52    6.57
  -5   2  14    2.38    6.00
   5   2 -14    0.48    5.33
  -5  -2 -14   -0.76    6.86
   5   2  14    3.62    7.33
  -5  -2  14    4.38    5.71
   5  -2 -14    4.57    5.90
  -5   2 -14    3.52    6.95
   5  -2  15   12.19    7.52
  -5   2  15    6.19    5.43
   5   2 -15    7.24    5.81
  -5  -2 -15    0.86    6.67
   5   2  15    9.05    6.95
  -5  -2  15    7.43    5.90
   5  -2 -15   11.81    6.09
  -5   2 -15    9.24    7.90
   5  -2  16   -4.38    6.38
  -5   2  16    3.52    5.71
   5   2 -16   -0.95    5.43
  -5  -2 -16   -2.48    6.48
   5   2  16   -2.86    6.19
  -5  -2  16   -1.05    5.43
   5  -2 -16    1.52    5.62
  -5   2 -16    5.43    6.38
   5  -2  17    0.57    6.29
  -5   2  17    2.00    5.62
   5   2 -17    0.29    5.62
  -5  -2 -17   -2.86    6.38
   5   2  17    4.57    6.95
  -5  -2  17    6.76    6.29
   5  -2 -17    4.00    6.00
  -5   2 -17    2.95    6.67
   5  -3   1   78.85   11.43
  -5   3  -1   50.47    9.52
   5  -3   2  100.28   12.95
  -5   3  -2   86.85   11.81
   5  -3   3   45.71    8.95
  -5   3  -3   62.37   10.19
   5  -3   4  684.31   67.33
  -5  -3  -4  623.84   61.99
   5  -3   5   -1.24    7.05
  -5  -3  -5   21.81   10.28
   5   3   5    3.52    8.38
  -5   3  -5    0.19    8.38
   5  -3   6  778.21   76.56
   5   3  -6  773.64   75.52
  -5  -3  -6  771.73   76.37
   5   3   6  970.38   95.13
  -5  -3   6  795.25   77.61
  -5   3  -6  869.63   85.42
   5  -3   7    8.00    7.05
  -5   3   7    9.71    6.48
   5   3  -7   12.86    6.57
  -5  -3  -7   18.28    8.86
   5   3   7    8.28    8.28
  -5  -3   7   22.76    6.76
   5  -3  -7   27.24    7.52
  -5   3  -7   11.05    7.52
   5  -3   8    0.76    6.67
  -5   3   8    2.86    6.38
   5   3  -8    2.57    6.00
  -5  -3  -8    7.43    6.95
   5   3   8   -7.14    7.14
  -5  -3   8   28.19    7.14
   5  -3  -8    4.67    6.38
   5  -3   9   11.62    7.90
  -5   3   9    1.14    6.48
   5   3  -9   11.33    6.38
  -5  -3  -9    4.09    7.62
   5   3   9    9.90    8.19
  -5  -3   9    8.09    6.19
   5  -3  -9   10.38    6.48
  -5   3  -9   -1.81    6.57
   5  -3  10   86.18   14.19
  -5   3  10   72.47   11.90
   5   3 -10  101.70   13.81
  -5  -3 -10  131.32   18.38
   5   3  10  120.65   17.43
   5  -3 -10  101.89   14.67
  -5   3 -10   83.90   14.00
   5  -3  11    7.90    9.71
  -5   3  11   13.05    8.38
   5   3 -11    4.19    6.67
  -5  -3 -11   -0.86    9.52
   5   3  11   13.24   10.48
  -5  -3  11    9.52    7.43
   5  -3 -11    6.86    8.19
  -5   3 -11    6.19    8.95
   5  -3  12   -4.38    8.09
  -5   3  12    8.76    7.05
   5   3 -12   -3.43    6.48
  -5  -3 -12   -2.95    7.81
   5   3  12    3.05    8.19
  -5  -3  12    1.81    6.86
   5  -3 -12    2.48    6.38
  -5   3 -12   -1.43    8.57
   5  -3  13    4.48    7.62
  -5   3  13    0.86    6.00
   5   3 -13    0.67    5.14
  -5  -3 -13   11.90    7.90
   5   3  13    7.81    8.09
  -5  -3  13   -0.19    5.71
   5  -3 -13   -0.76    5.90
  -5   3 -13    2.29    7.43
   5  -3  14    5.43    6.95
  -5   3  14    4.29    6.00
   5   3 -14   -0.86    4.95
  -5  -3 -14   -1.14    7.24
   5   3  14   -3.52    6.48
  -5  -3  14    3.43    5.33
   5  -3 -14    0.95    6.00
  -5   3 -14   -5.52    6.57
   5  -3  15    0.19    6.38
  -5   3  15   -3.71    4.86
   5   3 -15    2.38    5.43
  -5  -3 -15    6.95    6.38
   5   3  15   -3.52    6.48
  -5  -3  15   -6.57    4.86
   5  -3 -15    1.33    5.43
  -5   3 -15   -3.43    6.67
   5  -3  16    1.52    7.05
  -5   3  16   -4.76    5.33
   5   3 -16   -4.29    5.33
  -5  -3 -16    0.29    6.09
   5   3  16   -1.81    6.09
  -5  -3  16   -5.24   22.28
   5  -3 -16    0.38    5.62
  -5   3 -16   -0.48    6.86
   5  -3  17   -3.24    6.38
  -5   3  17   -0.95    5.52
   5   3 -17    1.24    5.52
  -5  -3 -17   -1.24    6.09
   5   3  17    5.52    6.19
  -5  -3  17    2.76    5.71
   5  -3 -17   -2.19    5.71
  -5   3 -17   -4.38    7.43
   5  -4   2    2.67    7.62
  -5   4  -2    1.52    7.33
   5  -4   3    1.81    7.71
  -5   4  -3    1.43    7.52
   5  -4   4   11.43    7.62
  -5   4  -4    6.57    7.71
   5  -4   5   81.61   12.19
  -5   4  -5   84.47   13.14
   5  -4   6    2.00    6.67
  -5  -4  -6    6.29    8.76
   5   4   6   22.00    9.43
  -5   4  -6   10.76    8.86
   5  -4   7   24.95    8.19
   5   4  -7    0.29    6.38
  -5  -4  -7   -2.95    7.33
   5   4   7   -1.33    7.62
  -5  -4   7   12.00    7.14
  -5   4  -7   10.19    6.86
   5  -4   8    0.76    6.57
  -5   4   8    3.14    6.38
   5   4  -8    3.05    6.19
  -5  -4  -8   23.05    8.67
   5   4   8   34.38    9.43
  -5  -4   8    4.57    6.48
   5  -4  -8    6.29    6.67
  -5   4  -8    3.14    6.29
   5  -4   9   43.33    9.33
  -5   4   9    2.95    6.95
   5   4  -9   16.00    6.57
  -5  -4  -9    7.62    8.48
   5   4   9    0.38    8.19
  -5  -4   9    9.71    6.19
   5  -4  -9   12.19    7.14
  -5   4  -9   15.62    7.05
   5  -4  10    0.00    7.52
  -5   4  10   -1.43    7.62
   5   4 -10    1.62    6.57
  -5  -4 -10    7.14    8.86
   5   4  10    0.10    9.43
  -5  -4  10   11.62    7.05
   5  -4 -10    2.95    8.00
  -5   4 -10    1.90    7.52
   5  -4  11    8.86    8.28
  -5   4  11   30.76    9.90
   5   4 -11   17.90    7.62
  -5  -4 -11   23.14   10.48
   5   4  11   17.33   11.05
  -5  -4  11   23.33    7.71
   5  -4 -11   13.05    8.57
  -5   4 -11   11.33    8.28
   5  -4  12   -1.05    7.62
  -5   4  12    4.67    6.67
   5   4 -12    1.52    6.76
  -5  -4 -12   -9.71    7.90
   5   4  12   -1.71    8.28
  -5  -4  12    3.52    6.76
   5  -4 -12   -4.00    6.38
  -5   4 -12    4.38    7.90
   5  -4  13   13.62    7.90
  -5   4  13   12.47    6.86
   5   4 -13   27.90    7.62
  -5  -4 -13   -2.67    7.43
   5   4  13   19.24    8.76
  -5  -4  13    5.52    6.00
   5  -4 -13    0.86    6.29
  -5   4 -13   22.85    7.90
   5  -4  14   -0.10    6.57
  -5   4  14   -4.19    5.71
   5   4 -14    3.90    5.05
  -5  -4 -14    6.86    7.05
   5   4  14    0.10    6.38
  -5  -4  14    2.48    5.43
   5  -4 -14    2.76    5.90
  -5   4 -14    8.09    6.38
   5  -4  15   -9.33    6.00
  -5   4  15    4.19    5.33
   5   4 -15    3.43    5.43
  -5  -4 -15    5.33    7.05
   5   4  15   -7.43    6.00
  -5  -4  15    0.00   51.52
   5  -4 -15   -4.29    5.52
  -5   4 -15    0.19    6.29
   5  -4  16    0.38    6.38
  -5   4  16    0.48    5.43
   5   4 -16    9.33    5.71
  -5  -4 -16    4.09    6.48
   5   4  16   -1.14    6.38
  -5  -4  16    1.14    5.24
   5  -4 -16    5.43    5.90
  -5   4 -16   -0.19    6.29
   5  -4  17   -2.29    6.95
  -5   4  17    1.24    5.52
   5   4 -17    2.00    6.48
  -5  -4 -17    4.86    6.57
   5   4  17   -1.52    6.57
  -5  -4  17   -0.29    5.24
   5  -4 -17    2.29    6.09
  -5   4 -17    2.95    6.76
   5  -5   3   22.57    8.76
  -5   5  -3   18.76    8.67
   5  -5   5   20.66    7.81
  -5   5  -5    5.05    8.09
   5  -5   6   -3.90    6.48
  -5   5  -6   12.67    8.28
   5  -5   7   34.76    8.86
  -5  -5  -7    4.29    7.90
  -5   5  -7   19.43    7.71
   5  -5   8    3.71    6.95
  -5  -5   8    5.90    6.48
  -5   5  -8   13.24    7.24
   5  -5   9    4.00    6.57
   5   5  -9   12.28    7.05
  -5  -5  -9    7.52    8.57
   5   5   9   12.67    9.33
  -5  -5   9   18.19    7.43
  -5   5  -9    0.00    6.48
   5  -5  11    0.29    7.52
  -5   5  11    3.14    8.38
   5   5 -11    9.90    7.43
  -5  -5 -11  -14.47   10.00
   5   5  11    4.76   10.09
  -5  -5  11    2.76    6.95
   5  -5 -11   22.57    9.33
  -5   5 -11    1.90    7.81
   5  -5  12   21.14    8.76
  -5  -5 -12   31.62    9.90
   5   5  12   41.71   11.24
  -5  -5  12   52.76   10.48
   5  -5 -12   22.00    8.09
  -5   5 -12   42.38   10.57
   5  -5  13    1.24    5.90
  -5   5  13    7.14    6.48
   5   5 -13   -0.95    5.62
  -5  -5 -13    2.38    6.95
   5   5  13    0.19    7.52
  -5  -5  13   -2.10    5.52
   5  -5 -13    1.62    6.95
  -5   5 -13   -0.95    5.90
   5  -5  14    2.95    6.00
  -5   5  14    2.38    6.09
  -5  -5 -14    1.52    6.86
   5   5  14    3.90    6.57
   5  -5 -14   -0.10    5.43
  -5   5 -14    5.05    6.29
   5  -5  15   -0.10    5.62
  -5   5  15    2.19    5.52
   5   5 -15   -7.05    5.24
  -5  -5 -15   -5.14    6.19
   5   5  15    5.71    6.86
  -5  -5  15    6.19    5.71
   5  -5 -15    2.67    5.62
  -5   5 -15    8.19    5.71
   5  -5  16    1.81    6.48
  -5   5  16    7.43    6.09
   5   5 -16    3.43    5.43
  -5  -5 -16   -1.62    6.29
   5   5  16   -1.52   19.81
  -5  -5  16    0.19    5.14
   5  -5 -16   -0.76    5.81
  -5   5 -16    5.52    6.00
   5  -5  17    6.67    6.95
  -5   5  17    6.86    5.90
   5   5 -17    4.19    5.62
  -5  -5 -17    5.05    6.38
   5   5  17    6.09    6.29
  -5  -5  17    3.05    5.43
   5  -5 -17   -0.10    5.81
  -5   5 -17   -0.76    5.71
   5  -6   4    5.43    8.28
  -5   6  -4   10.38    8.67
   5  -6   5    7.05    7.90
  -5   6  -5    7.90    8.95
   5  -6   6    7.33    6.57
  -5   6  -6   10.00    8.76
   5  -6   7   20.57    8.38
  -5   6  -7   39.62    9.43
   5  -6   8    9.14    7.33
  -5   6  -8   16.19    7.14
   5  -6   9    1.52    6.48
   5   6  -9   -5.71    6.95
  -5  -6  -9   14.86    9.33
  -5  -6   9    8.57    7.05
  -5   6  -9    2.38    6.57
   5  -6  10    9.14    7.81
   5   6 -10    0.19    8.00
  -5  -6 -10    0.95    9.71
   5   6  10   11.62    9.71
  -5  -6  10    6.57    7.90
  -5   6 -10    3.90    8.19
   5  -6  11  107.99   15.90
   5   6 -11  104.94   15.24
  -5  -6 -11   67.80   14.19
   5   6  11   73.90   14.38
  -5  -6  11  118.27   16.09
  -5   6 -11  118.46   17.14
   5  -6  12   -2.38    6.95
  -5   6  12    0.10    6.48
   5   6 -12    4.00    6.67
  -5  -6 -12    1.24    8.19
   5   6  12   -0.57    8.09
  -5  -6  12    8.48    6.76
   5  -6 -12   -4.57    6.29
  -5   6 -12    5.62    7.33
   5  -6  13   19.14    7.52
  -5   6  13    7.71    6.76
   5   6 -13   25.05    7.24
  -5  -6 -13   40.19   11.14
   5   6  13   30.19   10.00
  -5  -6  13   35.14    8.00
   5  -6 -13   12.47    7.14
  -5   6 -13   40.76    9.33
   5  -6  14    8.28    6.29
  -5   6  14    0.76    6.09
   5   6 -14   -1.52    5.52
  -5  -6 -14    1.71    6.48
   5   6  14    3.05    7.52
  -5  -6  14   -4.00    5.43
   5  -6 -14    9.81    6.38
  -5   6 -14   -2.48    6.86
   5  -6  15    3.33    6.38
  -5   6  15   -3.52    5.90
   5   6 -15    0.76    5.71
  -5  -6 -15   -1.71    6.86
   5   6  15   -1.81    6.86
  -5  -6  15   -4.86    5.14
   5  -6 -15    2.10    5.71
  -5   6 -15   -3.90    5.52
   5  -6  16    0.38    5.62
  -5   6  16    1.62    5.71
   5   6 -16   -3.14    5.52
  -5  -6 -16   -3.14   33.14
   5   6  16    7.52    6.95
  -5  -6  16   -0.19    5.33
   5  -6 -16    1.71    5.81
  -5   6 -16    2.48    6.09
   5  -6  17   -1.90    5.90
  -5   6  17    1.33    6.09
   5   6 -17    7.33    6.00
  -5  -6 -17    1.05    6.57
   5   6  17    4.09    6.29
  -5  -6  17   -3.62    5.62
   5  -6 -17   -4.09    5.62
  -5   6 -17   -2.10    5.62
   5  -7   5   11.71    7.62
  -5   7  -5   26.76    9.43
   5  -7   6   14.76    7.90
  -5   7  -6   20.38    8.76
   5  -7   7  -15.33    7.71
  -5   7  -7    3.90    7.14
   5  -7   8  139.22   17.81
  -5   7  -8  170.55   20.28
   5  -7   9    5.81    7.05
  -5   7  -9    0.10    7.14
   5  -7  10   36.19    9.52
   5   7 -10   18.66    8.76
  -5  -7  10   18.57    8.67
  -5   7 -10   16.00    8.86
   5  -7  11   20.86    8.76
   5   7 -11    5.33    8.28
  -5  -7 -11    3.52    9.14
   5   7  11    7.90    9.43
  -5  -7  11   14.76    8.57
  -5   7 -11    3.24    8.28
   5  -7  12   15.71    8.19
   5   7 -12    8.00    7.14
  -5  -7 -12   46.66   11.81
   5   7  12    9.62    8.09
  -5  -7  12   15.05    7.71
  -5   7 -12    9.81    7.81
   5  -7  13    2.57    6.09
   5   7 -13   -7.14    5.62
  -5  -7 -13    2.00    8.09
   5   7  13   -1.43    7.24
  -5  -7  13    6.67    5.52
   5  -7 -13   -0.86    6.29
  -5   7 -13    6.57    6.48
   5  -7  14    4.57    6.19
  -5   7  14   12.67    6.76
   5   7 -14    5.24    6.00
  -5  -7 -14   -1.71    7.14
   5   7  14    8.67    7.43
  -5  -7  14    7.24    5.62
   5  -7 -14    6.48    6.29
  -5   7 -14    5.71    7.05
   5  -7  15   -0.48    5.24
  -5   7  15    0.57    5.62
   5   7 -15    2.67    5.71
  -5  -7 -15   -5.24    6.57
   5   7  15   -5.43    6.38
  -5  -7  15    5.52    5.62
   5  -7 -15    0.00    5.62
  -5   7 -15    1.05    5.71
   5  -7  16   -2.86    5.71
  -5   7  16    2.19    6.09
   5   7 -16   -2.10    6.09
  -5  -7 -16   -4.00    6.95
   5   7  16   -3.81    6.67
  -5  -7  16   -0.57    5.14
   5  -7 -16    2.19    5.90
  -5   7 -16   -3.90    5.52
   5  -7  17   -4.86    6.00
  -5   7  17    3.71    6.29
   5   7 -17   -2.10   28.95
  -5  -7 -17    6.09    7.81
   5   7  17   -2.48    6.48
  -5  -7  17    4.00    5.71
   5  -7 -17    5.05    6.09
  -5   7 -17    2.00   11.81
   5  -8   6   13.24    8.00
  -5   8  -6   13.05    8.28
   5  -8   7  110.08   15.52
  -5   8  -7  101.42   14.67
   5  -8   8   17.24    8.38
  -5   8  -8    3.24    6.95
   5  -8   9  186.36   22.28
  -5   8  -9  119.23   16.57
   5  -8  10   29.14    9.05
  -5   8 -10   13.90    8.86
   5  -8  11   -8.95    7.14
   5   8 -11    3.43    7.71
  -5  -8  11    1.33    7.62
  -5   8 -11    5.62    8.00
   5  -8  12   -1.14    6.19
   5   8 -12   -2.76    6.67
  -5  -8 -12    3.52    7.81
  -5  -8  12    5.90    6.48
  -5   8 -12    5.90    7.33
   5  -8  13   14.19    6.95
   5   8 -13   16.28    7.24
  -5  -8 -13   43.90   11.33
   5   8  13   13.43    8.38
  -5  -8  13   15.14    6.95
  -5   8 -13   24.28    7.81
   5  -8  14    5.90    5.90
   5   8 -14   -0.38    6.09
  -5  -8 -14    4.00    7.24
   5   8  14   -3.71    6.09
  -5  -8  14    7.24    5.71
   5  -8 -14   -4.95    5.62
  -5   8 -14   -0.57    6.19
   5  -8  15   30.76    9.14
  -5  -8 -15   14.38    8.38
   5   8  15   44.95   11.05
  -5  -8  15   43.81    9.24
   5  -8 -15   48.76   10.38
  -5   8 -15   54.09   11.24
   5  -8  16   10.57    6.67
  -5   8  16    3.05   13.24
   5   8 -16    7.81    6.09
  -5  -8 -16   -0.38    6.95
   5   8  16   -5.71    6.38
  -5  -8  16    5.90    5.71
   5  -8 -16   -1.43    6.19
  -5   8 -16    4.76    6.19
   5  -8  17    3.71    7.05
   5   8 -17   12.09    8.00
  -5  -8 -17    9.05    8.19
  -5  -8  17    3.52    9.05
   5  -8 -17    3.81    6.67
  -5   8 -17    7.33    7.81
   5  -9   7   -6.95    7.24
  -5   9  -7    2.00    7.71
   5  -9   8    4.00    8.76
  -5   9  -8    0.48    7.14
   5  -9   9   -4.19    8.38
  -5   9  -9    6.57    8.38
   5  -9  10   71.80   12.47
  -5   9 -10   39.04   10.76
   5  -9  11    6.76    7.33
  -5   9 -11    1.43    7.90
   5  -9  12    9.71    6.57
   5   9 -12    3.90    6.67
  -5  -9  12    0.95    6.57
  -5   9 -12   -3.90    6.29
   5  -9  13    6.48    6.48
   5   9 -13    0.00    6.19
  -5  -9  13    0.10    5.90
  -5   9 -13    4.19    6.00
   5  -9  14    8.19    7.52
   5   9 -14   -1.52    6.19
  -5  -9 -14   18.47    7.62
  -5  -9  14   14.95    6.95
  -5   9 -14   18.00    8.19
   5  -9  15   -0.95    5.71
   5   9 -15   -2.19    6.19
  -5  -9 -15   10.19    7.52
   5   9  15   -7.81    6.19
  -5  -9  15    0.57    5.24
  -5   9 -15    3.43    6.09
   5  -9  16   -4.76    5.52
   5   9 -16    4.29    6.48
  -5  -9 -16    6.29    7.33
   5   9  16   -3.62    6.09
  -5  -9  16    2.38    5.62
   5  -9 -16    2.19    6.29
  -5   9 -16    0.19    5.71
   5 -10   8   14.76    9.52
  -5  10  -8    8.86    8.00
   5 -10   9  809.63   80.85
  -5  10  -9  837.92   83.52
   5 -10  10    9.43    8.76
  -5  10 -10    3.90    8.67
   5 -10  11   40.19   10.67
  -5  10 -11   56.66   12.09
   5 -10  12    0.10    5.90
  -5 -10  12    8.38    6.38
  -5  10 -12    6.29    7.33
   5 -10  13    0.86    6.00
   5  10 -13   -6.95    5.90
  -5 -10  13    5.43    6.19
  -5  10 -13   10.48    6.95
   5 -10  14    3.71    5.90
   5  10 -14    4.67    6.09
  -5 -10  14   -2.86    5.81
  -5  10 -14    3.14    6.38
   5 -10  15    1.62    5.81
   5  10 -15    2.38    6.19
  -5 -10 -15    1.33    6.67
  -5 -10  15   -0.19    5.62
  -5  10 -15   -1.05    6.00
   5 -10  16    1.71    5.62
   5  10 -16    4.48    6.19
  -5 -10 -16   -4.86    6.76
  -5 -10  16    0.48    6.00
  -5  10 -16    6.57    6.67
   5 -11   9    7.52    8.76
  -5  11  -9    9.33    8.57
   5 -11  10   58.09   12.09
  -5  11 -10   77.14   13.90
   5 -11  11    1.71    6.95
  -5  11 -11   -2.19    7.05
   5 -11  13    3.62    5.90
  -5 -11  13    4.19    6.38
  -5  11 -13   -0.29    6.48
   5 -11  14   -0.48    6.09
   5  11 -14   -0.38    6.67
  -5 -11  14    5.24    5.90
  -5  11 -14   -0.38    6.09
   5 -11  15    2.76    5.71
   5  11 -15    1.43    6.38
  -5 -11  15   -3.24    5.81
  -5  11 -15    3.90    6.29
   5 -11  16   -3.14    5.81
   5  11 -16   -3.52    6.48
  -5 -11  16   14.67    7.24
  -5  11 -16    2.76   11.62
   5 -12  10   12.76    8.09
  -5  12 -10   -6.00    7.71
   5 -12  11   15.90    7.62
  -5  12 -11   16.86    7.71
   5 -12  12   -2.76    6.67
  -5  12 -12    5.24    7.14
   5 -12  13    0.48    6.48
  -5  12 -13    4.86    6.76
   5 -12  14   -2.19    5.62
  -5 -12  14   -6.00    6.00
  -5  12 -14   -5.71    5.90
   5 -12  15    4.09    6.57
   5  12 -15    6.19    6.57
  -5 -12  15   -3.71    6.38
  -5  12 -15    3.14    6.48
   5 -13  11   23.14    7.81
  -5  13 -11    4.76    7.14
   5 -13  13    5.62    7.24
  -5  13 -13   12.67    7.52
   5 -13  14   -0.48    7.05
  -5  13 -14    0.48    6.95
   5 -13  15    6.95    6.95
  -5 -13  15    2.19    6.19
  -5  13 -15   -1.71    6.76
   5 -14  12    7.71    9.14
  -5  14 -12   -0.10    6.48
   5 -14  13    6.38    7.14
  -5  14 -13    1.71    6.76
   5 -14  14  -12.86    6.00
  -5  14 -14   -6.86    6.19
   5 -14  15    7.71   14.76
  -5  14 -15    0.10   10.57
   5 -15  13    3.62    6.67
  -5  15 -13    1.90    6.09
   5 -15  14    8.19    7.33
  -5  15 -14   -2.48    6.86
   5 -16  13    3.43    6.86
   5 -16  14   -0.86    7.05
   6   0   0 1734.11  165.98
  -6   0   0 1508.42  144.46
   6   0   1  712.40   69.33
  -6   0   1  549.66   53.04
   6   0  -1  619.56   59.71
  -6   0  -1  681.36   66.37
   6   0   2  151.60   17.81
  -6   0  -2  145.41   17.24
   6   0   3  944.29   92.09
  -6   0   3  981.81   93.90
   6   0  -3  925.72   88.56
  -6   0  -3  955.14   93.04
  -6   0   4    4.19    4.19
   6   0  -4    1.62    3.62
   6   0   5  565.37   56.57
  -6   0   5  448.34   44.09
   6   0  -5  448.15   43.81
  -6   0  -5  613.94   61.23
   6   0   6  188.74   22.09
  -6   0   6  198.65   21.14
   6   0  -6  218.93   23.14
  -6   0  -6  149.32   19.62
   6   0   7   82.28   12.95
  -6   0   7   87.80   11.43
   6   0  -7  128.18   14.76
  -6   0  -7   83.90   13.05
  -6   0   8   12.09    6.09
   6   0  -8   -3.81    5.62
   6   0   9  152.84   19.62
  -6   0  -9  187.41   22.47
  -6   0  10   99.80   14.00
   6   0 -10   74.37   11.90
   6   0  11  123.89   18.28
  -6   0  11  201.03   23.52
   6   0 -11  193.69   22.66
  -6   0 -11  167.22   22.57
   6   0  12  128.08   18.57
  -6   0  12  230.83   26.09
   6   0 -12  170.27   20.57
  -6   0 -12  169.03   22.19
  -6   0  13   22.95    7.62
   6   0 -13   -3.81    5.90
  -6   0 -13    2.67    9.05
   6   0  14   19.24    8.48
  -6   0  14   -3.33    5.43
   6   0 -14   11.71    6.48
  -6   0 -14   11.33    7.90
   6   0  15   29.81    9.71
   6   0 -15   51.33   10.00
  -6   0  16   13.90    6.67
   6   0 -16    3.62    5.90
   6   0  17   25.33    8.48
  -6   0  17    0.48    5.71
   6   0 -17    3.14    6.19
  -6   0 -17    9.52    7.71
   6  -1   1   35.04    8.28
  -6   1   1   25.52    5.05
  -6  -1  -1   24.66    7.81
   6   1   1   35.33    8.67
   6  -1  -1   44.28    6.09
   6  -1   2  320.63   32.85
  -6  -1  -2  254.83   26.95
   6   1   2  259.31   27.43
  -6   1  -2  200.74   22.00
   6  -1   3   37.23    9.71
  -6  -1  -3   34.95    9.33
   6   1   3   36.47    9.43
  -6   1  -3   57.04   10.57
   6  -1   4   21.71    9.43
  -6   1   4   16.57    5.05
   6   1  -4   19.24    5.14
  -6  -1  -4    5.71    8.48
   6   1   4   40.47   10.38
  -6  -1   4   26.57    5.81
   6  -1  -4    7.52    4.38
  -6   1  -4    6.67    8.48
   6  -1   5   43.23   10.19
  -6   1   5   36.95    7.43
   6   1  -5   46.85    7.52
  -6  -1  -5   51.80   10.86
   6   1   5   48.19   10.28
  -6  -1   5   44.95    7.62
   6  -1  -5   67.42    9.05
   6  -1   6    4.57    8.09
  -6   1   6    2.95    5.43
   6   1  -6    4.19    5.90
  -6  -1  -6    6.38    9.05
   6   1   6    3.52    8.00
   6  -1  -6   11.43    6.29
  -6   1  -6   -2.19    9.05
   6  -1   7   -2.00    7.62
  -6   1   7    7.33    5.62
   6   1  -7    1.62    4.95
  -6  -1  -7  -11.33    7.24
   6   1   7    3.81    7.81
  -6  -1   7    1.81    5.24
  -6   1  -7    2.86    8.00
   6  -1   8   30.76    9.81
  -6   1   8   13.90    6.09
   6   1  -8   28.19    6.76
  -6  -1  -8   12.86    7.43
   6   1   8   11.24    8.19
  -6  -1   8    7.52    5.71
   6  -1  -8    4.76    5.71
  -6   1  -8    6.95    7.71
   6  -1   9    4.00    7.90
   6   1  -9    1.81    5.52
  -6  -1  -9    3.05    7.62
   6   1   9   15.43    8.00
  -6  -1   9   -4.09    5.90
   6  -1  -9   12.95    6.57
  -6   1  -9    2.57    7.90
   6  -1  10   31.52   10.09
  -6   1  10   10.00    7.43
   6   1 -10   20.00    7.62
  -6  -1 -10   17.81    9.14
   6   1  10   20.09    9.62
  -6  -1  10   45.14    9.52
   6  -1 -10   25.43    8.48
  -6   1 -10   10.86    9.33
   6  -1  11   15.24   10.00
  -6   1  11    1.43    7.90
   6   1 -11   27.62    8.67
  -6  -1 -11    9.05   10.38
   6   1  11   12.67    9.71
  -6  -1  11   45.14   10.19
   6  -1 -11   13.43    8.19
  -6   1 -11    8.48   10.76
   6  -1  12   16.47    9.33
  -6   1  12   -2.00    6.38
   6   1 -12   15.71    7.62
  -6  -1 -12   -0.48    8.19
   6   1  12   10.67    8.95
  -6  -1  12   16.57    7.62
   6  -1 -12   15.90    7.43
  -6   1 -12   11.24    9.05
   6  -1  13    3.90    7.52
  -6   1  13    6.86    6.29
   6   1 -13   16.76    6.86
  -6  -1 -13    3.24    7.62
   6   1  13   16.76    8.76
  -6  -1  13    9.05    6.67
   6  -1 -13    4.86    6.29
  -6   1 -13    0.29    7.90
   6  -1  14   -6.38    6.57
  -6   1  14   -0.48    5.33
   6   1 -14   11.05    6.00
  -6  -1 -14   -3.81    6.76
   6   1  14    4.38    7.05
  -6  -1  14   -0.38    5.62
   6  -1 -14   -1.62    5.81
  -6   1 -14    6.86   55.90
   6  -1  15    0.86    6.67
  -6   1  15   -4.09    4.76
   6   1 -15   -1.81    5.33
  -6  -1 -15    8.76    7.24
   6   1  15    0.19    6.29
  -6  -1  15    6.86    6.19
   6  -1 -15   -0.29   19.24
  -6   1 -15    3.43    6.86
   6  -1  16   -7.81    6.00
  -6   1  16    1.24    5.14
   6   1 -16    3.52    5.43
  -6  -1 -16    4.48    6.86
   6   1  16   -1.43    6.19
  -6  -1  16    1.14    5.81
   6  -1 -16    9.14    6.00
  -6   1 -16   -3.05    6.86
   6  -1  17   -1.33    6.19
  -6   1  17   -3.05    5.52
   6   1 -17   -1.33    5.62
  -6  -1 -17   -8.48    6.00
   6   1  17    6.00    6.76
  -6  -1  17    9.81    6.29
   6  -1 -17    2.76    5.90
  -6   1 -17    4.67    7.33
   6  -2   0    0.10    5.52
  -6   2   0    9.71    5.62
   6  -2   2   65.71   10.09
  -6  -2  -2   48.66   10.09
  -6   2  -2   62.85    9.90
   6  -2   3   10.00    7.33
  -6  -2  -3   22.00    8.57
   6   2   3   -1.33    8.09
  -6   2  -3    5.14    6.95
   6  -2   4    8.28    8.76
  -6  -2  -4   10.00    8.86
   6   2   4   -2.38    8.76
   6  -2   5    7.52    8.19
  -6   2   5   13.24    6.19
   6   2  -5   11.62    6.29
  -6  -2  -5    5.62    8.48
   6   2   5   -0.95    8.28
  -6  -2   5   -1.14    6.38
   6  -2  -5   15.24    6.00
  -6   2  -5    2.76    8.95
   6  -2   6   10.48    7.71
  -6   2   6   -8.57    5.90
   6   2  -6    4.19    6.00
  -6  -2  -6    9.90    9.33
   6   2   6   -6.38    7.81
  -6  -2   6    9.14    5.62
   6  -2  -6   -3.14    5.81
  -6   2  -6   -2.57    8.67
   6  -2   7   61.23   10.86
  -6   2   7   93.04   11.81
   6   2  -7  130.75   15.24
  -6  -2  -7   87.80   12.95
   6   2   7   77.71   12.67
  -6  -2   7   97.80   12.28
   6  -2  -7   78.37   10.48
  -6   2  -7   78.66   13.05
   6  -2   8   24.19    9.33
  -6   2   8   14.47    6.09
   6   2  -8    5.81    5.81
  -6  -2  -8   33.43    8.95
   6   2   8   22.09    8.95
  -6  -2   8    7.81    5.81
   6  -2  -8   12.76    6.09
  -6   2  -8   10.57    7.62
   6  -2   9   20.47    8.95
  -6   2   9   26.76    7.52
   6   2  -9   31.43    7.14
  -6  -2  -9   28.66    9.05
   6   2   9   21.14    8.86
   6  -2  -9   39.81    8.28
  -6   2  -9   28.28    9.05
   6  -2  10    6.95    9.05
  -6   2  10   -4.29    7.14
   6   2 -10   -2.48    6.19
  -6  -2 -10    1.71    8.67
   6   2  10   -0.95    8.57
  -6  -2  10   12.19    6.86
   6  -2 -10    7.52    7.43
  -6   2 -10    9.71    8.67
   6  -2  11    6.29    9.24
  -6   2  11    6.09    8.00
   6   2 -11    2.29    6.57
  -6  -2 -11   12.86   10.28
   6   2  11    0.57   10.28
  -6  -2  11    1.90    6.95
   6  -2 -11    9.24    8.38
  -6   2 -11    5.52    9.90
   6  -2  12    7.90    8.48
  -6   2  12    9.43    6.76
   6   2 -12   17.52    7.14
  -6  -2 -12   27.43    9.24
   6   2  12   18.57    9.43
  -6  -2  12   19.52    7.71
   6  -2 -12    7.81    6.95
  -6   2 -12    7.90    9.05
   6  -2  13   16.76    8.67
  -6   2  13   13.62    6.57
   6   2 -13   14.09    6.29
  -6  -2 -13   17.33    8.67
   6   2  13   13.52    8.38
  -6  -2  13    6.09    6.19
   6  -2 -13   14.28    6.67
  -6   2 -13    1.52    8.38
   6  -2  14    2.48    6.76
  -6   2  14    5.24   17.71
   6   2 -14    2.10    5.14
  -6  -2 -14   -4.29    6.95
   6   2  14   -6.86    6.86
  -6  -2  14   -0.29    5.62
   6  -2 -14    7.52    6.19
  -6   2 -14    4.00    7.33
   6  -2  15   -1.71    6.00
  -6   2  15   -1.71    4.76
   6   2 -15    2.29    5.71
  -6  -2 -15    0.86    5.90
   6   2  15    5.90    6.95
  -6  -2  15    4.19    5.71
   6  -2 -15   -3.71    5.24
  -6   2 -15   -3.52    6.38
   6  -2  16   -3.52    6.38
  -6   2  16    0.29   19.43
   6   2 -16    0.95    5.71
  -6  -2 -16   -5.71    6.29
   6   2  16    9.24    7.05
  -6  -2  16    5.24    5.33
   6  -2 -16   -0.57    5.05
  -6   2 -16    2.67    6.86
   6  -2  17   -2.48    6.19
  -6   2  17    4.57   42.38
   6   2 -17   -4.19    5.33
  -6  -2 -17    6.00    7.33
   6   2  17    0.76    6.19
  -6  -2  17    8.00    6.29
   6  -2 -17   -5.05    5.33
  -6   2 -17    6.19    6.67
   6  -3   1    4.48    6.95
  -6   3  -1   19.71    7.43
   6  -3   2 2043.61  196.08
  -6   3  -2 1932.19  185.51
   6  -3   3   10.95    7.43
  -6   3  -3   11.62    7.24
   6  -3   4  150.27   18.28
  -6  -3  -4  134.56   17.24
   6   3   4  102.75   14.86
  -6   3  -4  134.37   16.47
   6  -3   5   55.04   10.19
  -6  -3  -5   25.62    9.52
   6   3   5   37.81    9.81
  -6   3  -5   28.47    9.14
   6  -3   6  219.98   24.19
   6   3  -6  147.99   16.76
  -6  -3  -6  243.69   27.71
   6   3   6  195.69   22.57
  -6  -3   6  174.65   19.24
   6  -3   7   76.09   11.81
  -6   3   7   76.47   10.57
   6   3  -7   62.85    9.81
  -6  -3  -7   93.70   13.43
   6   3   7   94.47   14.28
   6  -3  -7   76.75   10.57
  -6   3  -7  133.61   17.05
   6  -3   8   32.19    9.43
   6   3  -8   16.57    6.38
  -6  -3  -8   22.00    8.19
   6   3   8   13.71    8.48
  -6  -3   8   28.38    7.24
   6  -3  -8   16.57    6.48
  -6   3  -8    9.14    6.95
   6  -3   9    4.00    7.81
  -6   3   9    3.33    7.33
   6   3  -9   21.24    6.67
  -6  -3  -9   11.62    8.28
   6   3   9   16.76    8.38
  -6  -3   9    6.67    5.90
   6  -3  -9    7.05    6.67
  -6   3  -9    0.29    7.43
   6  -3  10   11.71    9.05
  -6   3  10   12.67    7.81
  -6  -3 -10   -5.33    8.57
   6   3  10    2.38    8.95
  -6  -3  10    0.19    6.76
   6  -3 -10   -4.19    6.95
  -6   3 -10   -2.38    8.76
   6  -3  11   -0.86    9.05
  -6   3  11    9.33    8.28
   6   3 -11    5.90    6.57
  -6  -3 -11   17.24   10.00
   6   3  11    6.86   10.09
  -6  -3  11   10.38    7.24
   6  -3 -11    0.48    8.00
  -6   3 -11    0.67    9.52
   6  -3  12   10.95    8.48
  -6   3  12   15.24    6.95
   6   3 -12    6.38    6.38
  -6  -3 -12    2.48    7.81
   6   3  12    3.71    8.28
  -6  -3  12    7.52    6.86
   6  -3 -12    9.24    6.86
  -6   3 -12    8.09    8.67
   6  -3  13   14.38    8.19
  -6   3  13    3.81    6.00
   6   3 -13    2.57    5.62
  -6  -3 -13    7.81    7.43
   6   3  13    2.95    7.71
  -6  -3  13   -0.76    5.43
   6  -3 -13    4.95    6.19
  -6   3 -13   -6.76    6.86
   6  -3  14   10.09    7.33
  -6   3  14   12.09    5.90
   6   3 -14    1.62    4.95
  -6  -3 -14    6.29    7.24
   6   3  14   -2.57    6.48
  -6  -3  14    1.52    5.05
   6  -3 -14    9.90    5.90
  -6   3 -14   -2.76    6.57
   6  -3  15   -2.95   14.28
  -6   3  15    1.62    4.95
   6   3 -15   -0.57    4.67
  -6  -3 -15    7.71    6.76
   6   3  15   -6.29   14.19
  -6  -3  15   -0.29    5.14
   6  -3 -15   -5.33    5.24
  -6   3 -15   -2.29    6.48
   6  -3  16    4.48    7.52
  -6   3  16    9.14    6.29
   6   3 -16   21.14    6.95
  -6  -3 -16    7.33    6.95
   6   3  16    8.00    7.24
  -6  -3  16   21.33    7.14
   6  -3 -16   10.57    6.48
  -6   3 -16   18.00    8.00
   6  -3  17   -4.19    6.57
  -6   3  17   -0.95    4.95
   6   3 -17   -3.52    5.05
  -6  -3 -17    2.38    6.29
   6   3  17    0.38   12.19
  -6  -3  17   -0.38    5.62
   6  -3 -17   -1.81    5.24
  -6   3 -17   -3.33    6.48
   6  -4   2    0.10    7.43
  -6   4  -2   -0.95    7.43
   6  -4   3   12.95    7.62
  -6   4  -3   17.81    7.62
   6  -4   4   10.86    8.19
  -6   4  -4    1.90    7.71
   6  -4   5   25.81    8.19
  -6   4  -5   13.33    8.28
   6  -4   6    9.52    6.57
  -6  -4  -6   20.86   10.28
   6   4   6   13.62    8.19
  -6   4  -6    1.71    8.00
   6  -4   7  -13.71    6.57
  -6  -4  -7   -7.81    7.52
   6   4   7   14.09    8.38
  -6  -4   7    1.81    6.38
  -6   4  -7    6.29    7.24
   6  -4   8   11.81    7.43
   6   4  -8    5.71    6.19
  -6  -4  -8    1.24    8.00
   6   4   8   -8.00    8.09
  -6  -4   8    8.57    6.48
   6  -4  -8    2.29    6.19
  -6   4  -8    2.38    6.57
   6  -4   9   21.24    8.09
  -6   4   9   22.57    7.90
   6   4  -9    6.57    6.48
  -6  -4  -9   20.38    9.52
   6   4   9   23.71    9.43
  -6  -4   9   44.57    8.57
   6  -4  -9    6.67    7.05
  -6   4  -9   20.76    7.62
   6  -4  10    2.38    7.71
  -6   4  10   10.86    7.90
   6   4 -10   -1.14    7.05
  -6  -4 -10    2.00    8.76
   6   4  10   -6.76    9.81
  -6  -4  10    1.71    6.57
   6  -4 -10    1.90    7.71
  -6   4 -10    2.86    7.62
   6  -4  11   10.19    8.19
  -6   4  11    5.33    7.90
   6   4 -11   15.24    7.62
  -6  -4 -11   40.28   11.52
   6   4  11   20.76   10.48
  -6  -4  11   27.71    8.19
   6  -4 -11    4.19    8.00
  -6   4 -11   20.38    9.05
   6  -4  12   -4.00    8.00
  -6   4  12   -2.57    6.19
   6   4 -12    0.38    6.48
  -6  -4 -12    2.19    7.62
   6   4  12    0.76    7.43
  -6  -4  12   -0.76    6.29
   6  -4 -12   -1.52    6.09
  -6   4 -12   -2.48    7.33
   6  -4  13    2.86    7.14
  -6   4  13    7.05    6.29
   6   4 -13    0.67    5.52
  -6  -4 -13   -0.48    7.33
   6   4  13    2.48    7.81
  -6  -4  13    2.57    5.52
   6  -4 -13   -0.86    5.62
  -6   4 -13   -3.52    6.38
   6  -4  14    7.62    7.05
  -6   4  14    1.33    5.62
   6   4 -14   -1.33    4.95
  -6  -4 -14    2.76    6.19
   6   4  14   -0.29    6.48
  -6  -4  14    9.90    5.62
   6  -4 -14   -2.19    5.33
  -6   4 -14   -5.90    6.48
   6  -4  15   -5.81    6.19
  -6   4  15    1.05    5.24
   6   4 -15    5.05    5.14
  -6  -4 -15   -0.86    6.00
   6   4  15    4.95    6.67
  -6  -4  15   -0.76    5.24
   6  -4 -15    3.71    5.52
  -6   4 -15    6.00    6.76
   6  -4  16    2.29    6.19
  -6   4  16    4.76   41.61
   6   4 -16   -1.62   10.09
  -6  -4 -16    0.67    6.48
   6   4  16   -0.57    6.67
  -6  -4  16   -2.38    4.95
   6  -4 -16   -3.05    6.29
  -6   4 -16    4.48    7.05
   6  -4  17   -0.48    6.38
  -6   4  17    1.24    5.52
   6   4 -17    5.81    5.62
  -6  -4 -17    1.62    6.38
   6   4  17    3.33    6.38
  -6  -4  17   -2.48    5.24
   6  -4 -17   -0.29    5.52
  -6   4 -17   -2.86    6.67
   6  -5   3   90.66   13.71
  -6   5  -3   57.52   11.05
   6  -5   5  -14.57    6.76
  -6   5  -5    1.33    7.52
   6  -5   6   19.90    7.14
  -6   5  -6    0.86    7.52
   6  -5   7   37.71    8.86
  -6  -5  -7   63.90   11.71
  -6   5  -7   32.76    9.24
   6  -5   8   37.14    9.24
  -6  -5  -8   26.95    9.14
   6   5   8    9.81    8.67
  -6  -5   8    8.09    6.57
   6  -5   9    1.43    6.76
   6   5  -9    4.57    6.67
  -6  -5  -9   19.52    9.24
  -6  -5   9    1.33    6.29
  -6   5  -9   24.28    7.62
   6  -5  10   20.09    8.57
  -6   5  10   10.38    8.38
   6   5 -10   10.76    8.00
  -6  -5 -10    7.62   10.09
   6   5  10    8.67   10.09
  -6  -5  10    8.00    7.52
   6  -5 -10   43.33   10.09
  -6   5 -10    2.19    7.81
   6  -5  11  115.70   16.47
  -6   5  11  162.75   20.00
   6   5 -11  129.99   16.86
  -6  -5 -11  102.47   17.05
   6   5  11  122.56   18.19
  -6  -5  11   99.70   14.19
   6  -5 -11   85.23   13.43
  -6   5 -11   99.51   15.33
   6  -5  12   47.04   10.48
  -6   5  12   32.57    8.67
   6   5 -12   38.76    9.05
  -6  -5 -12   31.43   10.19
   6   5  12   37.62   10.57
  -6  -5  12   54.28   10.19
   6  -5 -12   45.80    9.52
  -6   5 -12   24.66    9.33
   6  -5  13    6.67    6.57
  -6   5  13    8.48    6.38
   6   5 -13    3.24    5.62
  -6  -5 -13    6.19    7.52
   6   5  13   12.57    8.57
  -6  -5  13   17.81    6.76
   6  -5 -13    4.67    6.19
  -6   5 -13    7.33    6.86
   6  -5  14    6.86    6.38
  -6   5  14    8.09    6.09
   6   5 -14    4.48    5.52
  -6  -5 -14    4.38    6.76
   6   5  14   -2.95    6.86
  -6  -5  14    8.28    5.52
   6  -5 -14    4.48    5.81
  -6   5 -14    3.33    5.71
   6  -5  15    1.14    6.29
  -6   5  15    1.52    5.33
   6   5 -15   -0.95    5.43
  -6  -5 -15   -3.05    6.38
   6   5  15    1.71    6.67
  -6  -5  15    1.05    5.05
   6  -5 -15    5.90    5.52
  -6   5 -15    0.95    5.81
   6  -5  16   21.81    8.57
  -6   5  16   28.85    7.90
   6   5 -16   10.86    6.57
  -6  -5 -16   14.95    7.90
   6   5  16   24.38    8.86
  -6  -5  16   43.04    9.24
   6  -5 -16    8.67    6.19
  -6   5 -16   19.14    8.00
   6  -5  17   -0.67    6.67
  -6   5  17   -1.62    5.33
   6   5 -17   -0.76    5.62
  -6  -5 -17   -7.71    5.81
   6   5  17    3.71    6.76
  -6  -5  17    4.86    5.62
   6  -5 -17    1.71    5.62
  -6   5 -17   -1.05    5.90
   6  -6   3   28.38   10.09
   6  -6   4   -2.76    7.90
  -6   6  -4   11.05    9.71
   6  -6   5   16.76    8.09
  -6   6  -5    9.62    8.48
   6  -6   6    7.24    6.76
  -6   6  -6   10.76    7.43
   6  -6   7   30.19    8.09
  -6   6  -7   51.52   10.48
   6  -6   8   -0.29    7.62
  -6   6  -8  -11.14    6.48
   6  -6   9   14.57    8.00
  -6  -6  -9    5.52    8.28
   6   6   9    5.24    9.14
  -6  -6   9    1.33    6.95
  -6   6  -9   16.86    7.62
   6  -6  10   -2.10    7.71
   6   6 -10   -0.29    7.90
  -6  -6 -10    3.14    9.90
   6   6  10    9.05   10.09
  -6  -6  10    1.62    7.71
  -6   6 -10   -1.90    8.28
   6  -6  11   12.95    8.00
   6   6 -11    0.57    7.71
  -6  -6 -11    5.05    8.76
   6   6  11   -3.71    8.57
  -6   6 -11   24.28    9.33
   6  -6  12   -1.52    7.05
  -6   6  12    0.00    6.67
   6   6 -12   -3.52    6.67
  -6  -6 -12   -1.81    7.62
   6   6  12    1.90    8.28
  -6  -6  12    8.00    6.48
   6  -6 -12   -0.86    6.29
  -6   6 -12    4.19    6.95
   6  -6  13   13.24    6.67
  -6   6  13   16.00    6.95
   6   6 -13    7.52    5.90
  -6  -6 -13    4.95    7.62
   6   6  13   12.67    8.86
  -6  -6  13    3.33    5.33
   6  -6 -13   -3.90    6.19
  -6   6 -13    1.24    6.19
   6  -6  14   13.62    6.95
  -6   6  14   -0.76    5.81
   6   6 -14   14.09    6.38
  -6  -6 -14    8.76    7.62
   6   6  14    3.81    6.76
  -6  -6  14    6.86    5.71
   6  -6 -14   -1.24    5.90
  -6   6 -14   11.14    7.24
   6  -6  15    1.81    5.90
  -6   6  15    2.48    5.90
   6   6 -15    2.67    5.52
  -6  -6 -15   -0.57   16.09
   6   6  15    4.95    6.48
  -6  -6  15   -0.95    5.14
   6  -6 -15    0.57    5.62
  -6   6 -15    1.81    6.00
   6  -6  16    9.05    6.29
  -6   6  16    3.33    5.62
   6   6 -16   -0.29    5.43
  -6  -6 -16    1.05   19.90
   6   6  16   -3.52    6.57
  -6  -6  16   -3.14    5.14
   6  -6 -16    2.10    5.71
  -6   6 -16    1.90    6.09
   6  -6  17    1.81    5.81
  -6   6  17   -2.10  109.61
   6   6 -17   -2.00    5.52
  -6  -6 -17    0.19   11.33
   6   6  17    7.71    9.52
  -6  -6  17   -0.38    5.43
   6  -6 -17    1.81    7.90
  -6   6 -17   -3.90    5.14
   6  -7   4   20.38    8.67
   6  -7   5    5.52    7.71
  -6   7  -5    4.38    8.19
   6  -7   6    4.57    7.62
  -6   7  -6   19.14    8.09
   6  -7   7    8.28    6.95
  -6   7  -7   25.05    9.05
   6  -7   8   28.76    8.38
  -6   7  -8   28.00    8.57
   6  -7   9   12.95    8.57
  -6   7  -9    7.71    7.81
   6  -7  10    0.29    7.14
  -6  -7 -10   24.19   11.43
  -6  -7  10    8.09    8.00
  -6   7 -10    2.38    7.90
   6  -7  11   -1.24    7.14
   6   7 -11    5.52    7.81
  -6  -7 -11   25.24   10.09
   6   7  11    7.71    8.95
  -6  -7  11    3.71    7.43
  -6   7 -11   -6.48    7.71
   6  -7  12    3.90    6.48
   6   7 -12   -0.48    6.19
  -6  -7 -12   30.28    9.90
   6   7  12   16.38    9.43
  -6  -7  12    1.81    6.38
  -6   7 -12    9.71    7.24
   6  -7  13    4.76    5.81
   6   7 -13   -6.00    5.62
  -6  -7 -13    9.71    8.76
   6   7  13    0.00    7.33
  -6  -7  13    2.10    5.33
   6  -7 -13    4.29    6.29
  -6   7 -13   -1.62    5.14
   6  -7  14    8.95    6.38
  -6   7  14   18.66    6.86
   6   7 -14   10.28    6.76
  -6  -7 -14   38.95   10.19
  -6  -7  14    8.09    6.19
   6  -7 -14   12.09    6.57
  -6   7 -14   15.90    7.90
   6  -7  15    2.29   13.33
  -6   7  15    2.38    5.52
   6   7 -15    1.52    5.90
  -6  -7 -15    2.86    6.95
   6   7  15    0.38    6.95
  -6  -7  15    0.76    5.52
   6  -7 -15    2.38    8.86
  -6   7 -15   -6.38    5.24
   6  -7  16    7.43    6.76
  -6   7  16    1.33    6.00
   6   7 -16   -0.67    6.48
  -6  -7 -16    8.28    7.24
   6   7  16    4.95    7.33
  -6  -7  16    9.43    6.29
   6  -7 -16    6.67    6.57
  -6   7 -16    4.00    6.48
   6  -7  17   -1.62    7.14
  -6   7  17    4.95   33.52
   6   7 -17   -1.14    8.76
  -6  -7 -17   -5.14    7.81
   6   7  17    3.52  105.99
  -6  -7  17    0.19    5.33
   6  -7 -17   -0.19   10.67
  -6   7 -17    2.67    6.67
   6  -8   5   96.47   14.09
   6  -8   6    6.00    7.62
  -6   8  -6   31.43    9.14
   6  -8   7 1095.13  107.23
  -6   8  -7 1161.79  113.70
   6  -8   8    3.90    7.81
  -6   8  -8   20.28    8.48
   6  -8   9  201.31   24.09
  -6   8  -9  151.32   19.52
   6  -8  10   43.33   10.19
  -6   8 -10   40.28   10.48
   6  -8  11   24.57    8.67
  -6  -8  11   46.85   10.38
  -6   8 -11   31.71    9.62
   6  -8  12    0.48    6.29
   6   8 -12    0.29    6.09
  -6  -8 -12    1.24    7.71
  -6  -8  12    5.33    6.38
  -6   8 -12    1.71    6.48
   6  -8  13   17.52    7.05
   6   8 -13   21.71    7.24
  -6  -8 -13   59.42   13.14
   6   8  13   14.28    8.57
  -6  -8  13   42.09    9.24
  -6   8 -13   24.76    8.19
   6  -8  14    2.57    5.90
   6   8 -14    3.81    6.19
  -6  -8 -14    8.28    6.86
   6   8  14   -0.29    7.14
  -6  -8  14    2.76    6.00
   6  -8 -14   -1.14    5.52
  -6   8 -14    4.86    6.76
   6  -8  15    5.71    6.09
   6   8 -15    0.76    6.29
  -6  -8 -15    2.86    7.43
   6   8  15   15.33    8.28
  -6  -8  15   11.43    7.05
   6  -8 -15   -1.62    6.00
  -6   8 -15   18.86    7.33
   6  -8  16    4.95    6.67
  -6   8  16    8.86    6.67
   6   8 -16   16.57    6.95
  -6  -8 -16   19.14    8.48
   6   8  16    7.81    7.14
  -6  -8  16   13.05    6.67
   6  -8 -16    0.48    6.19
  -6   8 -16    3.33    6.29
   6  -9   6   37.14    9.05
   6  -9   7    8.67    7.62
  -6   9  -7    6.86    7.62
   6  -9   8    3.24    8.00
  -6   9  -8    9.62    8.48
   6  -9   9    9.05    9.52
  -6   9  -9    0.19    8.19
   6  -9  10   12.76    8.38
  -6   9 -10    4.09    8.76
   6  -9  11    5.33    7.43
  -6   9 -11    3.52    7.43
   6  -9  12    3.71    6.09
  -6  -9  12   -1.24    6.29
  -6   9 -12    1.71    6.38
   6  -9  13   -1.43    5.90
   6   9 -13    9.24    6.48
  -6  -9  13    0.76    5.81
  -6   9 -13    1.62    6.76
   6  -9  14    1.24    5.90
   6   9 -14   -0.76    6.09
  -6  -9 -14    0.10    6.76
  -6  -9  14    0.76    5.71
  -6   9 -14    8.86    6.76
   6  -9  15    6.09    6.19
   6   9 -15    5.71    6.38
  -6  -9 -15    6.09    7.43
   6   9  15    0.29    7.05
  -6  -9  15    2.19    6.00
  -6   9 -15    1.81    6.86
   6  -9  16    2.95    5.90
   6   9 -16    3.05    6.48
  -6  -9 -16    0.67    6.86
   6   9  16   -7.05    6.76
  -6  -9  16    6.48    5.43
   6  -9 -16    5.24    5.81
  -6   9 -16    0.19    6.09
   6 -10   7   79.23   12.95
   6 -10   8   20.09    8.95
  -6  10  -8   15.62    9.24
   6 -10   9   36.57   10.95
  -6  10  -9   42.85   10.57
   6 -10  10   34.57   10.38
  -6  10 -10   39.42   10.48
   6 -10  11   -1.24    6.09
  -6  10 -11    0.00    7.33
   6 -10  12    7.05    6.57
  -6  10 -12    5.14    6.19
   6 -10  13   -6.19    5.43
  -6 -10  13   -0.67    6.09
  -6  10 -13    4.86    7.05
   6 -10  14   -4.57    6.09
   6  10 -14    8.48    6.29
  -6 -10  14    2.76    6.00
  -6  10 -14    2.95    6.57
   6 -10  15    1.33    6.29
   6  10 -15   -3.33    6.95
  -6 -10 -15    2.67    7.24
  -6 -10  15    6.48    6.29
  -6  10 -15    3.52    6.48
   6 -10  16    7.90    6.09
   6  10 -16   12.28    6.76
  -6 -10 -16    3.52    7.05
   6  10  16    4.67    7.33
  -6 -10  16   -5.33    5.33
  -6  10 -16    4.29    6.19
   6 -11   8   94.66   14.76
   6 -11   9   23.62   10.00
  -6  11  -9    1.05    8.57
   6 -11  10    5.05    8.28
  -6  11 -10   -0.29    8.09
   6 -11  11    6.19    6.95
  -6  11 -11   10.19    7.05
   6 -11  12    3.52    6.09
  -6  11 -12   -3.14    6.38
   6 -11  13    9.62    6.29
  -6  11 -13   15.24    7.81
   6 -11  14   10.09    6.38
  -6 -11  14   -0.19    5.43
  -6  11 -14   -2.19    6.00
   6 -11  15    5.52    6.09
   6  11 -15    4.09    6.76
  -6 -11  15   -2.00    6.00
  -6  11 -15    6.86    6.29
   6 -11  16    8.09    7.05
   6  11 -16   -1.71   20.00
  -6 -11  16   -1.90    6.48
  -6  11 -16    1.90    6.19
   6 -12   9   27.62   10.19
   6 -12  10   -9.24    7.62
  -6  12 -10    9.43    7.81
   6 -12  11   12.95    7.33
  -6  12 -11    4.48    6.95
   6 -12  12   -5.05    5.90
  -6  12 -12   -1.62    6.38
   6 -12  13   -0.95    6.00
  -6  12 -13    1.43    6.67
   6 -12  14   -1.90    5.62
  -6  12 -14    2.19    6.95
   6 -12  15   -2.86    5.90
  -6 -12  15    8.57    6.48
  -6  12 -15   -2.76    5.81
   6 -13  10   14.38    8.19
   6 -13  11   26.00    8.09
  -6  13 -11   11.33    7.43
   6 -13  12    4.67    6.86
  -6  13 -12    3.43    6.67
   6 -13  13    8.48    6.95
  -6  13 -13   10.09    7.14
   6 -13  14    5.24    6.86
  -6  13 -14    0.76    6.67
   6 -13  15    6.95    6.38
  -6  13 -15    3.52    7.05
   6 -14  11    8.67    6.76
   6 -14  12    2.48    6.19
  -6  14 -12   -5.71    6.48
   6 -14  13    6.76    6.95
  -6  14 -13    4.00    6.29
   6 -14  14    3.52    6.95
  -6  14 -14   -0.67    6.67
   6 -15  12   -1.81    6.38
   6 -15  13   -3.24    6.09
  -6  15 -13   -2.86    6.48
   6 -15  14   10.86    7.52
  -6  15 -14    9.71    7.62
   6 -16  13    9.05    6.76
  -6  16 -14    3.33    7.43
   7   0   0  -13.81    7.33
  -7   0   0   -1.05    6.57
   7   0   1  250.26   26.09
  -7   0   1  341.78   33.43
   7   0  -1  352.92   34.66
  -7   0  -1  306.73   31.33
   7   0   2  296.73   30.95
  -7   0  -2  245.59   26.19
   7   0   3 2916.85  279.69
  -7   0  -3 2956.85  283.50
   7   0   4  162.84   20.00
  -7   0  -4  137.03   17.52
  -7   0   5    1.24    4.86
   7   0  -5    6.38    4.38
   7   0   6  672.03   66.85
  -7   0   6  748.21   72.47
   7   0  -6  726.40   70.37
  -7   0  -6  710.98   70.75
   7   0   7  112.37   15.14
  -7   0   7  131.32   15.14
   7   0  -7  130.18   14.95
  -7   0  -7   92.56   14.09
   7   0   8  138.37   17.81
  -7   0   8   95.23   12.38
   7   0  -8  113.04   13.62
  -7   0  -8  155.32   19.62
   7   0   9   34.19   10.48
  -7   0   9   59.23    9.90
   7   0  -9   70.66   10.48
  -7   0  -9   63.61   12.09
   7   0  10   72.28   13.71
  -7   0 -10   60.85   12.76
   7   0  11   51.99   12.47
  -7   0  11  104.56   14.57
  -7   0 -11   60.47   13.33
   7   0  12   18.47    8.48
  -7   0  12   40.85    9.05
  -7   0 -12    7.71    8.57
   7   0  13   78.75   13.52
  -7   0  13   55.80   10.19
   7   0 -13   59.99   10.38
  -7   0 -13   65.23   13.33
   7   0  14   14.57    8.00
  -7   0  14   36.85    8.76
  -7   0 -14   13.81    8.19
   7   0  15   18.47    8.38
  -7   0  15    9.33    6.38
   7   0 -15   15.52    6.29
  -7   0 -15    7.43    7.33
   7   0  16   34.66   10.19
  -7   0  16   19.14    6.86
  -7   0 -16   51.52   12.09
   7   0  17   18.47    8.00
  -7   0  17   42.95    9.62
   7   0 -17   22.76    7.90
  -7   0 -17   14.76    8.57
   7  -1   1   54.66    9.33
  -7  -1  -1   44.76    8.95
  -7   1  -1   60.66    9.81
   7  -1   2   89.99   12.76
  -7   1   2   96.75    9.81
  -7  -1  -2  153.03   17.90
   7   1   2  124.75   15.62
   7  -1  -2  113.99   11.43
  -7   1  -2  135.70   16.38
   7  -1   3   42.38   10.19
  -7  -1  -3   57.23   10.76
   7   1   3   45.90   10.48
  -7   1  -3   87.61   13.05
   7  -1   4    7.33    9.14
  -7   1   4   11.14    4.19
   7  -1  -4   14.28    4.38
  -7   1  -4   17.33    9.05
   7  -1   5    7.81    8.38
  -7   1   5   27.52    6.19
   7   1  -5   23.24    5.81
  -7  -1  -5   22.38    8.95
   7   1   5   18.47    8.48
  -7  -1   5   17.81    5.62
   7  -1  -5   25.71    5.62
  -7   1  -5   12.95    8.95
  -7   1   6   52.85    7.90
   7   1  -6   33.04    6.29
  -7  -1  -6   41.52   10.09
   7   1   6   37.62    9.43
  -7  -1   6   37.90    6.57
   7  -1  -6   33.04    6.48
   7  -1   7   20.09    7.71
  -7   1   7    8.00    5.24
   7   1  -7   13.71    5.43
  -7  -1  -7    3.14    7.62
   7   1   7    3.90    7.24
  -7  -1   7   10.38    5.43
   7  -1  -7    2.86    5.24
  -7   1  -7   11.05    8.28
   7  -1   8   70.95   11.90
   7   1  -8   55.23    8.48
  -7  -1  -8   44.57   10.48
   7   1   8   47.90   10.38
  -7  -1   8   38.95    7.52
   7  -1  -8   52.95    8.76
  -7   1  -8   97.42   14.86
   7  -1   9    6.76    8.57
  -7   1   9    0.00    6.29
   7   1  -9   11.81    5.62
  -7  -1  -9    1.43    8.28
   7   1   9   10.00    8.86
  -7  -1   9    7.81    5.81
  -7   1  -9    2.38    8.19
   7  -1  10   17.62   10.00
  -7   1  10    7.71    7.14
   7   1 -10    4.57    6.29
  -7  -1 -10  -11.81    8.86
   7   1  10    0.19    8.67
  -7  -1  10   10.95    7.24
   7  -1 -10    8.57    7.33
  -7   1 -10   10.67    9.52
   7  -1  11    1.62    9.33
  -7   1  11    1.33    7.05
   7   1 -11   11.62    7.43
  -7  -1 -11   19.71   10.67
   7   1  11   20.00   10.38
  -7  -1  11   19.81    8.09
   7  -1 -11    8.00    8.09
  -7   1 -11    8.19    9.81
   7  -1  12    2.67    7.05
  -7   1  12   -6.48    5.62
   7   1 -12    8.00    6.48
   7   1  12   13.14    8.09
  -7  -1  12   18.28    7.52
   7  -1 -12    6.57    6.19
  -7   1 -12    4.00    8.48
   7  -1  13   -4.38    6.86
  -7   1  13    6.67    6.00
   7   1 -13    4.95    5.71
  -7  -1 -13   -6.48    7.43
   7   1  13    1.52    7.62
  -7  -1  13   -2.10    5.62
   7  -1 -13   -2.38    5.90
  -7   1 -13    3.14    8.48
   7  -1  14    5.71    7.05
  -7   1  14    8.28    5.90
   7   1 -14    4.19    5.62
  -7  -1 -14   -1.33    6.86
   7   1  14   14.67    7.62
  -7  -1  14   -0.10    5.81
   7  -1 -14    4.09    6.00
  -7   1 -14   -7.33    6.95
   7  -1  15    5.43    6.38
  -7   1  15   10.48    5.81
   7   1 -15   -2.10    5.14
  -7  -1 -15   -0.19    6.38
   7   1  15    6.86    7.24
  -7  -1  15    0.86    5.43
   7  -1 -15    0.67    5.24
  -7   1 -15    8.67    7.71
   7  -1  16    0.76   78.66
  -7   1  16    0.10    5.05
   7   1 -16   -1.24    5.52
  -7  -1 -16   -2.76    6.48
   7   1  16    2.76    6.76
  -7  -1  16    5.24    5.52
   7  -1 -16    2.38    5.90
  -7   1 -16   -1.33    6.86
   7  -1  17   15.24    9.52
  -7   1  17    4.95    5.33
   7   1 -17    7.24    5.81
  -7  -1 -17    8.86    7.62
   7   1  17    7.90    7.14
  -7  -1  17    4.57    5.81
   7  -1 -17   -1.33    5.62
  -7   1 -17   -2.86    6.76
   7  -2   0    2.67    5.33
  -7   2   0   -0.86    4.95
   7  -2   1   17.24    6.38
   7  -2  -1   22.19    5.33
  -7   2  -1   16.95    6.38
  -7  -2  -2   29.14    8.76
  -7   2  -2   34.47    8.28
   7  -2   3   47.14   10.09
  -7  -2  -3   16.95    8.76
   7   2   3   22.95    9.52
   7  -2   4  164.84   20.00
  -7  -2  -4  192.74   22.38
   7   2   4  228.07   25.71
  -7   2  -4  250.93   27.43
   7  -2   5   23.24    9.05
  -7  -2  -5    6.76    8.76
   7   2   5    0.38    7.90
   7  -2  -5   31.90    6.29
  -7   2  -5   16.47    9.14
   7  -2   6   40.00    9.43
  -7   2   6    0.57    5.24
   7   2  -6   10.00    5.71
  -7  -2  -6    9.62    8.48
   7   2   6   14.28    8.19
   7  -2  -6   14.95    5.33
   7  -2   7    9.52    7.81
  -7   2   7    3.71    5.14
   7   2  -7   -1.81    4.95
  -7  -2  -7    6.19    7.14
   7   2   7    2.19    7.24
  -7  -2   7    4.67    5.24
   7  -2  -7   -3.71    5.24
  -7   2  -7    5.62    7.71
   7  -2   8    0.29    7.33
  -7   2   8    2.95    5.62
   7   2  -8    6.67    5.43
  -7  -2  -8    4.86    7.71
   7   2   8   -1.33    7.71
  -7  -2   8   10.00    5.24
   7  -2  -8    1.90    5.43
  -7   2  -8   18.47    8.67
   7  -2   9   47.14   11.24
  -7   2   9   28.85    7.71
   7   2  -9   53.90    8.86
  -7  -2  -9   22.00    9.05
   7   2   9   45.52   11.43
  -7  -2   9   35.62    7.43
   7  -2  -9   33.14    8.00
  -7   2  -9   43.71   10.48
   7  -2  10   -5.62    9.33
  -7   2  10   -0.76    6.95
   7   2 -10   35.71    8.28
  -7  -2 -10   -0.57    8.67
   7   2  10   -4.38    8.57
  -7  -2  10    0.67    6.57
   7  -2 -10    1.90    7.24
  -7   2 -10   -0.19    9.05
   7  -2  11   -2.38    9.33
  -7   2  11    0.86    7.33
   7   2 -11    8.00    6.57
  -7  -2 -11   -3.71    9.43
   7   2  11    4.29    9.81
  -7  -2  11    2.57    6.67
   7  -2 -11    8.38    7.81
  -7   2 -11    6.38    9.43
   7  -2  12    2.67    7.81
  -7   2  12   -0.48    5.71
   7   2 -12   -2.38    5.81
  -7  -2 -12    7.14    8.19
   7   2  12    3.62    7.33
  -7  -2  12   -0.19    6.09
   7  -2 -12    4.19    5.90
  -7   2 -12    0.38    8.48
   7  -2  13   11.71    8.19
  -7   2  13   13.33    5.90
   7   2 -13   -0.10    4.95
  -7  -2 -13    9.33    7.81
   7   2  13    8.57    8.09
  -7  -2  13    2.38    5.52
   7  -2 -13    3.90    6.09
  -7   2 -13    4.19    7.71
   7  -2  14    9.52    7.43
  -7   2  14    6.67    5.43
   7   2 -14    2.19    5.43
  -7  -2 -14    1.24    6.86
   7   2  14    6.67    7.52
  -7  -2  14    1.90    5.24
   7  -2 -14   -6.76    5.14
  -7   2 -14   -2.29    6.57
   7  -2  15    7.71    6.48
  -7   2  15   -3.05    5.05
   7   2 -15   -2.57    4.76
  -7  -2 -15   -7.43    6.09
   7   2  15    0.38    6.48
  -7  -2  15   -4.48    5.33
   7  -2 -15    1.90    5.43
  -7   2 -15   -1.33    6.38
   7  -2  16    6.29    7.05
  -7   2  16    1.14    5.14
   7   2 -16    9.14    6.38
  -7  -2 -16    5.14    6.76
   7   2  16    2.19    6.29
  -7  -2  16   -2.48    5.24
   7  -2 -16    3.05    9.33
  -7   2 -16    0.48    6.48
   7  -2  17   -1.52    6.57
  -7   2  17    3.05    5.52
   7   2 -17   -0.48    5.71
  -7  -2 -17   -1.43    6.57
   7   2  17    9.71  226.74
  -7  -2  17   -0.29    6.00
   7  -2 -17    2.48    5.62
  -7   2 -17    5.24    7.14
   7  -3   1  711.55   69.33
  -7   3  -1  701.26   68.28
   7  -3   2  222.17   23.71
  -7   3  -2  222.83   23.81
   7  -3   4  184.08   21.24
  -7  -3  -4  150.46   18.86
   7   3   4  162.65   19.90
  -7   3  -4  181.60   20.95
   7  -3   5   75.42   11.62
  -7  -3  -5   68.56   12.19
   7   3   5   51.99   10.95
  -7   3  -5   65.14   11.24
  -7  -3  -6   58.18   11.33
   7   3   6   58.47   11.05
   7  -3   7    4.19    7.33
  -7   3   7   10.09    5.62
   7   3  -7    8.57    6.19
  -7  -3  -7    2.86    7.52
   7   3   7    2.10    7.14
  -7  -3   7   10.28    6.19
   7  -3  -7   22.47    6.29
  -7   3  -7   -1.52    6.67
   7  -3   8   75.14   12.28
  -7   3   8  109.89   13.71
   7   3  -8   57.14    9.33
  -7  -3  -8   71.61   12.28
   7   3   8   69.33   12.47
  -7  -3   8   66.85    9.90
   7  -3  -8   97.23   12.47
  -7   3  -8   70.37   12.76
   7  -3   9   17.05    9.24
  -7   3   9   24.09    8.00
   7   3  -9   10.48    5.81
  -7  -3  -9   19.62    8.86
   7   3   9   12.38    9.52
  -7  -3   9   20.28    6.48
   7  -3  -9   28.28    8.00
  -7   3  -9    6.09    7.71
   7  -3  10   10.67   10.00
  -7   3  10   13.43    7.71
   7   3 -10   11.90    7.24
  -7  -3 -10   10.67    9.24
   7   3  10   22.76   10.19
  -7  -3  10    5.62    6.86
   7  -3 -10   24.38    8.19
  -7   3 -10   18.38    9.71
   7  -3  11    1.71    9.05
  -7   3  11    4.00    7.05
   7   3 -11   -3.14    6.67
  -7  -3 -11    8.57    9.14
   7   3  11   19.62    9.81
  -7  -3  11   32.76    8.28
   7  -3 -11   13.71    7.62
  -7   3 -11    3.52    9.14
   7  -3  12   27.62    9.33
  -7   3  12   -4.38    5.81
   7   3 -12    1.62    5.90
  -7  -3 -12    4.00    7.24
   7   3  12    5.14    7.71
  -7  -3  12    3.52    6.09
   7  -3 -12    7.05    6.00
  -7   3 -12   34.95   10.67
   7  -3  13   -2.48    7.14
  -7   3  13   11.43    6.38
   7   3 -13    2.48    5.24
  -7  -3 -13    0.86    7.05
   7   3  13    5.52    7.33
  -7  -3  13    7.62    5.90
   7  -3 -13    1.24    5.81
  -7   3 -13    3.33    7.52
   7  -3  14    3.52    6.76
  -7   3  14   -0.57    5.33
   7   3 -14   12.09    5.62
  -7  -3 -14   13.33    7.43
   7   3  14   12.47    7.43
  -7  -3  14    2.95    5.24
   7  -3 -14   -0.95    5.62
  -7   3 -14   18.00    8.00
   7  -3  15    7.24    7.24
  -7   3  15    6.48    5.43
   7   3 -15    8.28    5.33
  -7  -3 -15    2.95    6.67
   7   3  15    2.48    6.86
  -7  -3  15   10.76    5.71
   7  -3 -15   -1.33    5.05
  -7   3 -15    9.33    7.71
   7  -3  16   -5.24    6.00
  -7   3  16   -2.00    5.14
   7   3 -16    5.52    5.33
  -7  -3 -16    2.76    6.76
   7   3  16    2.19    6.29
  -7  -3  16    1.71    5.43
   7  -3 -16   -2.19  107.51
  -7   3 -16   -1.90    6.29
   7  -3  17    2.29    6.76
  -7   3  17    2.10    5.52
   7   3 -17    1.14    5.24
  -7  -3 -17   -0.19    6.67
   7   3  17   -1.52    6.38
  -7  -3  17    3.33    5.62
   7  -3 -17   -1.62  205.12
  -7   3 -17   -1.71    6.95
   7  -4   1   17.05    7.62
  -7   4  -1    4.29    7.14
   7  -4   2   -4.48    7.05
  -7   4  -2    1.81    7.52
   7  -4   3   10.57    7.81
  -7   4  -3    5.52    8.00
   7  -4   4    4.29    6.95
  -7   4  -4   -0.29    7.90
   7  -4   5    6.86    6.86
  -7  -4  -5    2.29    8.57
  -7   4  -5   20.28    8.19
   7  -4   6    4.57    6.57
  -7  -4  -6   -0.76    7.62
   7   4   6   -4.29    7.62
  -7   4  -6   17.81    8.00
   7  -4   7   30.57    8.28
  -7  -4  -7    0.76    8.19
   7   4   7    3.14    7.52
  -7   4  -7   16.38    7.81
   7  -4   8   19.05    7.33
   7   4  -8   39.14    8.09
  -7  -4  -8   34.76    9.81
   7   4   8   28.57    9.81
  -7  -4   8   63.04   10.09
   7  -4  -8   30.85    7.33
  -7   4  -8   20.47    8.28
   7  -4   9   -3.71    7.52
  -7   4   9    1.14    6.95
   7   4  -9    4.09    6.29
  -7  -4  -9    1.71    8.48
   7   4   9   -5.43    9.05
  -7  -4   9    3.14    6.67
   7  -4  -9    1.14    6.86
  -7   4  -9    0.00    6.57
   7  -4  10    4.67    8.57
  -7   4  10    5.33    7.52
   7   4 -10   -0.38    6.76
  -7  -4 -10    7.81    9.24
   7   4  10    6.29    9.43
  -7  -4  10    4.76    6.95
   7  -4 -10   10.48    7.90
  -7   4 -10   17.14    8.57
   7  -4  11    6.00    8.57
  -7   4  11   10.67    7.33
   7   4 -11    0.10    6.57
  -7  -4 -11   13.90    9.43
   7   4  11   -3.52    8.57
  -7  -4  11    0.95    6.86
   7  -4 -11    7.33    7.05
  -7   4 -11  -10.86    7.52
   7  -4  12    7.62    7.81
  -7   4  12   -2.67    6.48
   7   4 -12    2.29    6.09
  -7  -4 -12    1.05    7.62
   7   4  12   -2.67    7.43
  -7  -4  12    2.67    5.71
   7  -4 -12    3.14    5.90
  -7   4 -12    7.24    7.43
   7  -4  13    7.24    7.33
  -7   4  13    5.43    6.09
   7   4 -13    3.71    5.52
  -7  -4 -13   -0.19    7.14
   7   4  13   -4.09    6.95
  -7  -4  13    9.24    6.00
   7  -4 -13   -2.67    5.81
  -7   4 -13   -2.86    7.05
   7  -4  14    8.28    7.14
  -7   4  14   -4.95    5.24
   7   4 -14   -3.62    4.86
  -7  -4 -14   -2.86    6.29
   7   4  14   -3.33    6.29
  -7  -4  14    7.52    9.81
   7  -4 -14    1.62    5.14
  -7   4 -14    5.52    6.95
   7  -4  15    0.57    6.76
  -7   4  15   -3.71    4.86
   7   4 -15    7.81    5.05
  -7  -4 -15    3.71    6.48
   7   4  15    0.38    6.29
  -7  -4  15    0.10    5.05
   7  -4 -15   -1.43    5.24
  -7   4 -15    5.43    6.57
   7  -4  16    3.62    7.05
  -7   4  16   -3.05    4.86
   7   4 -16   -0.19    5.14
  -7  -4 -16   -2.67    6.19
   7   4  16   -6.38    6.38
  -7  -4  16    1.52    5.43
   7  -4 -16   -2.95    5.14
  -7   4 -16    1.90    6.95
   7  -4  17    0.67    6.86
  -7   4  17   -0.19    5.43
   7   4 -17   -2.95    4.86
  -7  -4 -17    4.00    6.76
   7   4  17    2.00    6.67
  -7  -4  17    4.57    5.33
   7  -4 -17   -0.19    5.14
  -7   4 -17   -5.14    6.57
   7  -5   2  130.46   16.47
  -7   5  -2  154.56   18.57
   7  -5   3   55.14   10.48
  -7   5  -3   50.09   10.95
   7  -5   4   -1.05    6.86
  -7   5  -4   -1.43    7.90
   7  -5   7   12.76    6.95
  -7  -5  -7   17.52    8.95
   7   5   7    6.86    7.71
  -7   5  -7    5.43    6.86
   7  -5   8  394.63   40.85
  -7  -5  -8  553.47   56.57
   7   5   8  537.28   55.14
  -7   5  -8  482.71   49.52
   7  -5   9   -4.67    7.33
   7   5  -9   32.19    8.48
  -7  -5  -9    7.14    9.33
   7   5   9    0.57    9.05
  -7  -5   9   21.33    8.09
  -7   5  -9    7.05    7.33
   7  -5  10   11.33    8.95
   7   5 -10   29.33    8.76
  -7  -5 -10   12.76   10.09
   7   5  10   18.38   10.48
  -7  -5  10   34.09    9.14
   7  -5 -10   34.28    9.43
  -7   5 -10    6.86    8.09
   7  -5  11   11.62    8.00
  -7   5  11    1.24    6.86
   7   5 -11    9.14    7.71
  -7  -5 -11    7.43    8.95
   7   5  11    2.67    8.48
  -7  -5  11    4.38    7.14
   7  -5 -11    4.19    7.14
  -7   5 -11   14.38    8.38
   7  -5  12    4.76    6.76
  -7   5  12   23.81    7.52
   7   5 -12    7.81    6.29
  -7  -5 -12    7.43    7.62
   7   5  12    6.86    8.00
  -7  -5  12   16.28    6.76
   7  -5 -12    0.10    6.00
  -7   5 -12    2.48    6.95
   7  -5  13   12.67    6.86
  -7   5  13   19.14    7.52
   7   5 -13    7.05    5.71
  -7  -5 -13    1.90    7.90
   7   5  13   10.19    8.38
  -7  -5  13    8.38    5.62
   7  -5 -13    8.86    6.38
  -7   5 -13   14.86    7.33
   7  -5  14   12.28    6.67
  -7   5  14    6.09    5.81
   7   5 -14   10.00    6.29
  -7  -5 -14   10.09    7.43
   7   5  14   21.43    8.38
  -7  -5  14   10.67    5.71
   7  -5 -14   12.76    6.19
  -7   5 -14   22.47    7.81
   7  -5  15   13.81    7.71
  -7   5  15   21.90    7.52
   7   5 -15   38.38    8.95
  -7  -5 -15   22.19    8.67
   7   5  15   31.23    9.43
  -7  -5  15   23.43    7.05
   7  -5 -15   15.71    6.76
  -7   5 -15   23.71    8.19
   7  -5  16   18.66    8.38
  -7   5  16   13.43    6.38
   7   5 -16    8.09    6.19
  -7  -5 -16   -0.76    6.67
   7   5  16   11.24    7.62
  -7  -5  16   11.62    6.38
   7  -5 -16    7.52    5.71
  -7   5 -16   23.43    8.57
   7  -5  17    2.76    6.95
  -7   5  17    5.33    5.81
   7   5 -17   -2.38    4.86
  -7  -5 -17    3.52    7.24
   7   5  17   -4.86    6.57
   7  -5 -17    6.57    6.00
  -7   5 -17   -1.33    5.90
   7  -6   3   -4.00    8.00
  -7   6  -3   -2.67    8.86
   7  -6   5   22.00    7.71
  -7   6  -5   10.86    8.57
   7  -6   6    3.90    6.67
  -7   6  -6    1.71    6.86
   7  -6   7   18.00    7.24
  -7   6  -7   20.47    7.71
   7  -6   8   20.47    7.14
  -7   6  -8   24.57    9.33
   7  -6   9    7.90    7.90
  -7  -6  -9   26.09   10.09
   7   6   9   14.95    9.90
  -7   6  -9    1.43    8.09
   7  -6  10   25.81    9.81
   7   6 -10   -0.67    7.43
  -7  -6 -10    6.00   10.28
   7   6  10   12.67   10.48
  -7  -6  10   12.76    7.81
  -7   6 -10   27.24    9.33
   7  -6  11    1.62    7.24
   7   6 -11   12.47    7.81
  -7  -6 -11    9.43    8.67
   7   6  11    6.09    7.90
  -7  -6  11   15.81    7.71
  -7   6 -11   -1.43    7.52
   7  -6  12    1.52    6.19
  -7   6  12    5.33    6.38
   7   6 -12   12.86    6.76
  -7  -6 -12    3.62    8.38
   7   6  12   -3.62    7.43
  -7  -6  12   10.28    6.00
   7  -6 -12   10.19    6.76
  -7   6 -12   -9.05    6.57
   7  -6  13   -5.71    5.43
  -7   6  13    0.57    5.81
   7   6 -13    4.29    5.33
  -7  -6 -13   11.62    8.28
   7   6  13   -2.48    7.24
  -7  -6  13    2.38    5.05
   7  -6 -13   16.57    6.95
  -7   6 -13    4.48    6.00
   7  -6  14   -6.76    5.81
  -7   6  14    1.52    5.52
   7   6 -14    1.81    5.52
  -7  -6 -14    1.33    6.95
   7   6  14    5.24    6.76
  -7  -6  14    5.24    5.33
   7  -6 -14    1.14    5.81
  -7   6 -14    3.52    6.19
   7  -6  15    5.71    6.09
  -7   6  15    5.14   94.75
   7   6 -15   -1.24    5.43
  -7  -6 -15   -1.62    6.48
   7   6  15   -0.67    6.95
  -7  -6  15    2.29    5.52
   7  -6 -15    4.67    5.52
  -7   6 -15    7.81    6.48
   7  -6  16    0.95    6.00
  -7   6  16   -3.81    5.33
   7   6 -16    1.62    5.24
  -7  -6 -16   -1.62    6.57
   7   6  16    1.71    8.19
  -7  -6  16    3.05    5.71
   7  -6 -16    3.24    5.71
  -7   6 -16   -2.29    5.62
   7  -6  17    6.19    6.67
  -7   6  17    9.43    6.38
   7   6 -17    1.05    6.09
  -7  -6 -17    7.52    7.24
   7   6  17    7.52    7.14
  -7  -6  17    1.90    6.00
   7  -6 -17    1.14    5.81
  -7   6 -17    1.33    6.67
   7  -7   4   18.00    8.28
  -7   7  -4   30.38    9.71
   7  -7   5  205.88   23.71
  -7   7  -5  236.17   26.38
   7  -7   6   12.57    8.00
  -7   7  -6   13.52    7.52
   7  -7   7   10.09    6.86
  -7   7  -7   28.95    8.28
   7  -7   8   11.81    6.86
  -7   7  -8    2.76    7.24
   7  -7   9   -2.95    7.81
  -7   7  -9   -3.24    8.28
   7  -7  10   14.47    8.48
  -7  -7 -10   11.81   10.00
  -7   7 -10   -3.71    7.62
   7  -7  11    6.38    7.33
   7   7 -11   -1.05    6.86
  -7  -7 -11    8.57    8.57
   7   7  11   33.71   10.09
  -7  -7  11   10.48    7.52
  -7   7 -11   35.71   10.00
   7  -7  12   -0.10    6.29
   7   7 -12    9.24    6.48
  -7  -7 -12    2.48    7.90
   7   7  12   19.05    9.05
  -7  -7  12   17.33    6.95
  -7   7 -12   -0.29    6.38
   7  -7  13   20.76    7.14
   7   7 -13   15.43    6.67
  -7  -7 -13   13.43    8.76
   7   7  13   15.14    8.57
  -7  -7  13   12.76    6.57
   7  -7 -13   24.38    7.62
  -7   7 -13   35.62    9.05
   7  -7  14    2.57    6.09
  -7   7  14    1.90    5.33
   7   7 -14   -0.29    5.62
  -7  -7 -14    3.33    7.24
   7   7  14   10.28    7.52
  -7  -7  14   12.38    6.19
   7  -7 -14    2.38    5.81
  -7   7 -14    0.48    6.38
   7  -7  15    9.05    6.19
  -7   7  15    9.43    6.29
   7   7 -15    7.62    5.81
  -7  -7 -15    4.09    6.95
   7   7  15   -2.86    6.76
  -7  -7  15    2.38    5.24
   7  -7 -15   10.76   17.24
  -7   7 -15    3.14    5.90
   7  -7  16   -8.19   37.90
  -7   7  16    0.67    5.71
   7   7 -16   -1.05    5.71
  -7  -7 -16    0.38    7.24
   7   7  16    0.57    7.43
  -7  -7  16    0.67    5.24
   7  -7 -16   -6.57    5.05
  -7   7 -16   -3.33    5.52
   7  -8   5   56.57   10.95
  -7   8  -5   53.33   10.76
   7  -8   6   18.09    7.81
  -7   8  -6   14.67    7.71
   7  -8   7    9.14    7.43
  -7   8  -7   14.76    7.71
   7  -8   8   50.38   10.28
  -7   8  -8   57.14   11.33
   7  -8   9    8.95    7.81
  -7   8  -9   11.14    8.57
   7  -8  10  229.79   27.43
  -7   8 -10  221.50   26.19
   7  -8  11    3.05    6.86
  -7   8 -11    6.76    7.43
   7  -8  12    1.33    5.71
  -7  -8 -12   20.47    9.24
  -7  -8  12    4.86    5.81
  -7   8 -12  -10.38    6.09
   7  -8  13   27.33    8.19
   7   8 -13   21.90    7.43
  -7  -8 -13   50.95   11.71
   7   8  13   29.71    9.14
  -7  -8  13   58.76   10.48
  -7   8 -13   34.95    9.24
   7  -8  14   18.47    7.33
   7   8 -14   -4.57    5.71
  -7  -8 -14    0.86    7.43
   7   8  14   -2.00    6.67
  -7  -8  14    5.52    5.90
  -7   8 -14   -3.05    5.81
   7  -8  15    5.43    6.00
   7   8 -15    2.38    5.90
  -7  -8 -15    0.67    7.14
   7   8  15    2.48    7.14
  -7  -8  15   -0.76    5.24
   7  -8 -15    4.76   10.76
  -7   8 -15   -3.33    5.81
   7  -8  16   -4.76    5.81
  -7   8  16    3.05    5.81
   7   8 -16    3.43    5.81
  -7  -8 -16    5.14    7.52
   7   8  16   17.43    8.28
  -7  -8  16   24.47    7.52
   7  -8 -16   10.09    6.38
  -7   8 -16    6.38    6.29
   7  -9   6   12.38    7.71
  -7   9  -6   16.95    8.19
   7  -9   7   -5.24    7.14
  -7   9  -7    8.95    7.71
   7  -9   8   -7.81    7.90
  -7   9  -8    5.90    8.48
   7  -9   9   -7.71    7.24
  -7   9  -9    6.76    9.05
   7  -9  10   16.95    8.76
  -7   9 -10    0.57    8.09
   7  -9  11   -1.81    6.67
  -7   9 -11   -4.48    6.95
   7  -9  12    0.48    5.62
  -7  -9  12   18.66    6.95
  -7   9 -12    1.14    6.38
   7  -9  13    2.38    5.52
   7   9 -13   17.33    6.95
  -7  -9 -13    0.86    7.24
  -7  -9  13   -1.24    5.52
  -7   9 -13    0.86    6.29
   7  -9  14   -0.48    5.62
   7   9 -14    6.48    6.38
  -7  -9 -14    3.81    8.09
   7   9  14    3.33    7.14
  -7  -9  14   -0.76    5.52
  -7   9 -14    2.57    6.00
   7  -9  15   -0.10    5.81
   7   9 -15    0.38    6.29
  -7  -9 -15    2.76    7.43
   7   9  15    3.62    6.19
  -7  -9  15    1.71    5.62
  -7   9 -15    0.57    6.19
   7  -9  16    0.38    5.52
   7   9 -16    2.10    6.29
  -7  -9 -16    3.43    6.76
   7   9  16    0.67    6.38
  -7  -9  16   -1.81    5.81
   7  -9 -16    2.10    6.00
  -7   9 -16   -2.10    6.00
   7 -10   7   30.47    9.14
  -7  10  -7   58.18   11.52
   7 -10   8    2.76    8.38
  -7  10  -8   -6.76    8.38
   7 -10   9   10.00    8.38
  -7  10  -9   24.76   10.19
   7 -10  10   11.90    8.57
  -7  10 -10  -11.05    7.52
   7 -10  11    7.14    6.86
  -7  10 -11   33.90    8.95
   7 -10  12    2.00    5.81
  -7  10 -12    5.52    5.90
   7 -10  13   13.62    6.67
  -7 -10  13    7.90    6.67
  -7  10 -13    7.62    6.86
   7 -10  14    2.29    6.00
   7  10 -14   15.05    7.14
  -7 -10  14   -8.00    5.71
  -7  10 -14    3.71   10.57
   7 -10  15    7.05    6.19
   7  10 -15    4.48    6.19
  -7 -10 -15   10.19    7.90
  -7 -10  15    9.71    6.38
  -7  10 -15    2.48    5.81
   7 -10  16   -0.57    5.71
   7  10 -16   -5.52    7.62
  -7 -10 -16   -0.19    7.14
   7  10  16    1.52    7.05
  -7 -10  16    1.14    5.52
  -7  10 -16    4.76    6.76
   7 -11   8    0.48    7.81
  -7  11  -8   -1.71    8.48
   7 -11   9    6.76    8.09
  -7  11  -9   15.24    9.81
   7 -11  10   14.00    8.57
  -7  11 -10   19.71    9.05
   7 -11  11    6.38    7.33
  -7  11 -11   -3.33    6.38
   7 -11  12   -1.14    5.33
  -7  11 -12    0.86    6.38
   7 -11  13    1.81    5.62
  -7  11 -13   -2.19    5.90
   7 -11  14   -0.95   26.28
  -7 -11  14    7.43    6.19
  -7  11 -14    1.52    6.19
   7 -11  15   -0.38    5.71
   7  11 -15   -2.67    5.90
  -7 -11  15    4.76    5.90
  -7  11 -15    6.00    6.86
   7 -12   9   10.28    8.28
  -7  12  -9   18.76   10.00
   7 -12  10   15.14    8.48
  -7  12 -10   38.66    9.71
   7 -12  11    4.09    7.05
  -7  12 -11    4.09    6.57
   7 -12  12    4.29    6.48
  -7  12 -12   -2.95    6.19
   7 -12  13    3.52    5.90
  -7  12 -13    5.62    6.76
   7 -12  14   -1.14    5.43
  -7  12 -14    2.67    7.14
   7 -12  15    0.19    6.57
  -7 -12  15    8.95    6.67
  -7  12 -15   12.00    7.33
   7 -13  10   15.43    7.90
  -7  13 -10   13.62    7.81
   7 -13  11    9.52    8.67
  -7  13 -11   15.90    7.71
   7 -13  12    1.62    6.29
  -7  13 -12   16.09    8.09
   7 -13  13   36.47    9.62
  -7  13 -13   36.00    9.52
   7 -13  14   11.71    7.24
  -7  13 -14   13.90    7.71
  -7  13 -15    4.38    7.24
   7 -14  11   12.57    7.90
  -7  14 -11    8.76    7.14
   7 -14  12   -2.95    6.48
  -7  14 -12   -5.33    6.19
   7 -14  13    5.14    6.29
  -7  14 -13   -7.33    6.19
   7 -14  14    2.29    6.19
  -7  14 -14   -0.38    6.48
   7 -15  12   -5.62    6.00
  -7  15 -12    2.57    6.76
   7 -15  13   -3.81    6.19
  -7  15 -13    5.43    6.67
   7 -15  14    7.14    7.33
  -7  15 -14   -1.05    6.76
   7 -16  13    0.86    6.67
   8   0   0 9999.00  953.24
  -8   0   0 9637.13  918.77
   8   0   1   40.85    8.67
  -8   0   1   42.95    6.76
   8   0  -1   29.62    6.29
  -8   0  -1   39.33    8.48
   8   0   2 3900.56  373.20
  -8   0  -2 3774.86  361.20
   8   0   3    7.52    8.48
  -8   0  -3    9.90    8.67
   8   0   4 5774.66  552.14
  -8   0   4 6107.96  582.51
   8   0  -4 6735.52  642.22
  -8   0  -4 5947.98  568.61
   8   0   5  330.44   35.04
  -8   0   5  437.29   42.47
   8   0  -5  394.91   38.38
  -8   0  -5  376.06   39.23
   8   0   6 2504.51  241.12
   8   0  -6 3664.40  349.87
  -8   0  -6 2554.98  245.98
  -8   0   7   42.19    7.14
   8   0  -7   21.05    5.81
   8   0   8 1820.77  176.46
  -8   0   8 2200.73  211.22
   8   0  -8 2205.49  211.60
  -8   0  -8 2050.27  198.46
   8   0   9   29.33    9.62
  -8   0   9   22.76    7.14
   8   0  -9   35.14    7.81
  -8   0  -9   31.33   10.48
   8   0  10  150.75   20.95
   8   0 -10  156.08   18.47
  -8   0 -10  153.41   20.66
  -8   0  11    4.19    6.86
   8   0 -11   17.14    7.14
   8   0  12  219.50   26.00
   8   0 -12  283.97   30.47
  -8   0 -12  195.12   24.09
   8   0  13    8.48    7.52
  -8   0  13   12.00    6.19
   8   0 -13   11.52    6.19
  -8   0 -13    3.24    7.52
   8   0  14   29.90    9.14
  -8   0  14   29.33    7.62
   8   0 -14   36.47    8.38
  -8   0 -14   17.33    8.57
   8   0  15   16.00    7.71
  -8   0  15   -1.71    5.24
   8   0 -15    3.62    5.62
  -8   0 -15    5.43    7.33
   8   0  16   84.37   14.76
  -8   0  16   65.99   11.33
  -8   0 -16   78.85   14.57
   8   0  17    7.05    7.24
  -8   0  17   -2.57    4.86
   8   0 -17    6.29   12.47
  -8   0 -17    8.48    7.05
   8   1   0    3.14    6.48
  -8  -1   0   -1.52    6.19
   8  -1   0    9.62    6.29
  -8   1   0    1.43    6.09
   8  -1   1  371.01   37.42
  -8  -1  -1  553.47   54.57
   8   1   1  443.67   44.38
   8  -1  -1  510.81   49.61
   8  -1   2   26.00    8.76
  -8   1   2   23.43    4.19
  -8  -1  -2    1.43    7.81
   8   1   2   10.86    8.19
   8  -1  -2   15.33    3.90
  -8   1  -2    4.95    8.09
   8  -1   3   73.14   12.76
  -8  -1  -3   99.23   14.28
   8   1   3  102.28   14.28
  -8   1  -3   59.14   11.52
   8  -1   4    7.24    8.38
  -8   1   4    2.00    3.14
  -8  -1  -4   -3.05    9.05
   8   1   4   21.81    9.14
   8  -1  -4    7.24    3.52
  -8   1  -4   26.09   10.00
   8  -1   5   66.18   11.62
  -8   1   5  125.80   13.43
  -8  -1  -5   84.37   13.14
   8   1   5   77.04   12.57
  -8  -1   5   84.28   10.19
  -8   1  -5   94.47   14.28
   8  -1   6    5.62    7.24
  -8   1   6    6.86    4.57
   8   1  -6   12.19    4.76
  -8  -1  -6   24.09    8.76
   8   1   6   12.86    8.28
  -8  -1   6   14.76    4.76
   8  -1  -6   13.90    4.86
  -8   1  -6   12.67    8.67
   8  -1   7  510.90   51.90
   8   1  -7  537.09   52.66
  -8  -1  -7  640.79   64.18
   8   1   7  623.75   62.47
  -8  -1   7  516.14   50.76
   8  -1  -7  533.76   52.28
  -8   1  -7  432.05   44.57
   8  -1   8   20.38    8.28
  -8   1   8    6.38    5.62
   8   1  -8   16.19    5.52
   8   1   8    6.38    7.52
  -8  -1   8   13.05    5.71
   8  -1  -8   24.66    6.76
  -8   1  -8   15.43    8.28
   8  -1   9   69.23   12.57
  -8   1   9   41.14    8.28
   8   1  -9   75.90   10.48
  -8  -1  -9   49.52   11.81
   8   1   9   39.42   10.86
  -8  -1   9   61.14    9.43
   8  -1  -9   67.14   10.48
  -8   1  -9   85.32   14.86
   8  -1  10   15.81   10.09
  -8   1  10    6.09    6.86
   8   1 -10   11.14    6.38
  -8  -1 -10   10.86    9.71
   8   1  10   26.38   10.76
  -8  -1  10    3.05    7.05
   8  -1 -10   13.43    7.33
  -8   1 -10    7.52    9.62
   8  -1  11   13.62    9.05
  -8   1  11   18.47    7.24
   8   1 -11   19.14    6.95
  -8  -1 -11   21.62    9.90
   8   1  11    0.57    8.95
  -8  -1  11   25.24    7.71
   8  -1 -11    5.62    6.86
  -8   1 -11   28.38   10.67
   8  -1  12    1.71    7.33
  -8   1  12    2.57    5.62
   8   1 -12   -3.43    5.90
  -8  -1 -12   -4.29    7.52
   8   1  12   -1.24    7.62
  -8  -1  12   -3.62    5.90
   8  -1 -12   -0.48    5.81
  -8   1 -12    6.19    7.81
   8  -1  13   17.05    7.62
  -8   1  13   11.62    6.19
   8   1 -13   21.43    6.95
  -8  -1 -13   20.19    8.67
   8   1  13    6.00    7.62
   8  -1 -13   23.52    7.33
  -8   1 -13   18.86    8.86
   8  -1  14   -7.43    6.09
  -8   1  14    2.38    5.05
   8   1 -14    0.00    5.24
  -8  -1 -14    3.33    6.48
   8   1  14    2.38    6.38
  -8  -1  14    1.05    5.33
   8  -1 -14    2.00    5.14
  -8   1 -14    6.09    7.52
   8  -1  15   21.14    8.19
  -8   1  15    6.57    5.14
   8   1 -15   -0.86    5.14
  -8  -1 -15   -1.81    6.76
   8   1  15   15.43    7.71
  -8  -1  15    3.62    5.52
   8  -1  16    6.09    6.95
  -8   1  16    3.33    5.24
   8   1 -16    3.62    6.19
  -8  -1 -16   -4.29    6.48
   8   1  16    1.52    6.67
  -8  -1  16    9.05    5.81
   8  -1 -16    0.67    5.24
  -8   1 -16    1.81    7.24
   8  -1  17    3.24    6.95
  -8   1  17   10.38   13.81
   8   1 -17    2.29    5.71
  -8  -1 -17    5.81    7.05
   8   1  17    0.38    6.29
  -8  -1  17   -1.90    5.43
   8  -1 -17   -2.48    5.81
  -8   1 -17    2.48    6.95
   8  -2   0  796.59   77.04
  -8   2   0  733.07   70.95
   8  -2   1   60.47    9.43
  -8   2   1   50.57    7.05
   8  -2  -1   70.75    8.76
  -8   2  -1   56.38    9.05
  -8  -2  -2   41.71    9.81
  -8   2  -2   43.14    9.24
   8  -2   3   32.09    9.43
  -8  -2  -3   37.52   10.09
   8   2   3   10.57    8.95
  -8   2  -3   31.43    9.62
  -8  -2  -4  181.60   21.81
   8   2   4  190.74   22.38
  -8   2  -4  169.70   20.47
   8  -2   5   37.23    9.62
  -8  -2  -5    6.95    8.28
   8   2   5    4.19    7.71
   8  -2  -5   23.05    4.95
   8  -2   6  154.46   18.95
   8   2  -6  142.37   15.71
  -8  -2  -6  138.94   17.81
   8   2   6  128.65   16.95
  -8  -2   6  127.13   14.38
   8  -2  -6  178.27   18.86
  -8   2  -6  135.99   17.71
   8  -2   7   19.05    8.48
  -8   2   7    7.71    4.95
   8   2  -7   15.43    5.90
  -8  -2  -7   14.95    7.33
   8   2   7   19.81    7.81
  -8  -2   7   31.33    6.48
   8  -2  -7   30.47    6.38
  -8   2  -7   27.24    8.57
   8  -2   8  245.88   27.43
  -8   2   8  249.69   26.09
   8   2  -8  289.88   29.71
  -8  -2  -8  219.69   25.43
   8   2   8  188.74   22.47
   8  -2  -8  296.26   30.38
   8  -2   9   11.14    8.48
  -8   2   9    8.28    6.57
   8   2  -9    5.14    5.52
  -8  -2  -9   -4.00    8.76
   8   2   9   -0.48    8.67
  -8  -2   9    2.38    5.62
   8  -2  -9   12.38    6.86
  -8   2  -9   12.67    9.43
   8  -2  10    7.14   10.19
  -8   2  10   19.71    7.52
   8   2 -10   11.90    6.67
  -8  -2 -10   18.38    9.71
   8   2  10   27.81   11.05
  -8  -2  10   -0.48    6.38
   8  -2 -10   18.19    7.81
  -8   2 -10   17.05   10.48
   8  -2  11   -7.33    8.67
  -8   2  11   -0.48    6.09
   8   2 -11   -6.57    5.90
  -8  -2 -11    9.33    8.57
   8   2  11    3.81    8.76
  -8  -2  11    1.33    6.38
   8  -2 -11    3.52    6.38
  -8   2 -11    2.95    8.86
   8  -2  12    9.24    7.71
  -8   2  12    5.81    5.71
   8   2 -12   17.43    6.57
  -8  -2 -12   20.66    8.76
   8   2  12    8.57    7.71
  -8  -2  12   21.33    6.95
   8  -2 -12   10.00    6.29
  -8   2 -12   11.14    8.09
   8  -2  13    0.10    7.05
  -8   2  13    6.86    5.62
   8   2 -13   -4.67    4.29
  -8  -2 -13   -5.33    6.95
   8   2  13    5.90    7.43
  -8  -2  13   -1.43    5.05
   8  -2 -13    1.05    5.52
  -8   2 -13   -0.10    7.05
   8  -2  14    7.62    7.24
  -8   2  14    2.48    5.05
   8   2 -14    4.67   15.90
  -8  -2 -14    9.81    8.19
   8   2  14   -4.67    6.29
  -8  -2  14   -4.67    5.33
   8  -2 -14    8.09    5.81
  -8   2 -14    3.43    7.43
   8  -2  15    0.67    6.48
  -8   2  15   -1.24    4.86
   8   2 -15   -1.33    4.67
  -8  -2 -15   -0.10    6.09
   8   2  15   13.24    7.81
  -8  -2  15    2.10    5.14
   8  -2 -15   -1.24    5.24
  -8   2 -15    1.71    6.76
   8  -2  16    3.24    6.76
  -8   2  16    2.00    5.14
   8   2 -16   -2.57    5.14
  -8  -2 -16    6.00    6.76
   8   2  16    2.57    6.67
  -8  -2  16   -1.14   37.04
   8  -2 -16    5.81    5.52
  -8   2 -16    6.67    7.24
   8  -2  17   -4.19   14.00
  -8   2  17   -3.24    5.05
   8   2 -17    2.76    5.81
  -8  -2 -17   -3.33    6.57
   8   2  17   -5.33    6.29
  -8  -2  17   -2.95    5.14
   8  -2 -17    2.00    6.38
  -8   2 -17   -5.33    6.57
   8  -3   0  172.74   18.76
  -8   3   0  193.03   20.47
   8  -3   1   40.76    8.28
  -8   3  -1   32.28    7.81
   8  -3   2   37.62    8.48
  -8   3  -2   18.47    7.71
   8  -3   3  615.84   60.85
  -8   3  -3  720.12   70.95
   8  -3   4    9.62    7.43
  -8  -3  -4   18.19    9.05
   8   3   4   34.19    9.90
  -8   3  -4   10.95    8.28
   8  -3   5  141.51   17.33
  -8  -3  -5  110.94   15.62
   8   3   5   98.75   14.47
  -8   3  -5  134.94   17.24
   8  -3   6  128.37   17.05
  -8  -3  -6  183.60   21.43
   8   3   6  168.08   20.38
  -8   3  -6  184.65   21.52
   8  -3   7  228.45   25.81
  -8   3   7  276.92   28.28
   8   3  -7  255.88   26.76
  -8  -3  -7  287.59   31.14
   8   3   7  269.02   29.52
  -8  -3   7  192.27   20.76
  -8   3  -7  263.21   29.90
   8  -3   8    1.71    7.33
  -8   3   8   20.47    6.67
   8   3  -8    8.09    5.81
  -8  -3  -8  -14.19    7.43
   8   3   8   -0.10    7.81
  -8  -3   8    7.62    6.09
   8  -3  -8    7.14    5.81
  -8   3  -8    5.62    8.00
   8  -3   9    6.09    8.09
  -8   3   9    5.33    6.76
   8   3  -9   -0.38    5.71
  -8  -3  -9    4.48    9.05
   8   3   9   -1.43    8.86
  -8  -3   9    6.76    5.71
   8  -3  -9   -1.14    6.38
  -8   3  -9   10.28    9.14
   8  -3  10   21.52   10.48
  -8   3  10    7.52    7.33
   8   3 -10    9.05    6.86
  -8  -3 -10   15.33   10.09
   8   3  10   18.19   11.62
  -8  -3  10   18.00    7.14
   8  -3 -10    8.28    7.43
  -8   3 -10    0.48    9.24
   8  -3  11   14.76   10.00
  -8   3  11   13.52    6.76
   8   3 -11   -1.90    6.38
  -8  -3 -11   -2.00    7.81
   8   3  11   -1.33    8.19
  -8  -3  11   -4.95    6.29
   8  -3 -11   -4.95    6.48
   8  -3  12   12.19    8.28
  -8   3  12   -1.90    5.24
   8   3 -12    8.38    6.19
  -8  -3 -12   -6.48    7.14
   8   3  12   -0.38    7.43
  -8  -3  12    7.81    6.00
   8  -3 -12    2.19    5.52
  -8   3 -12    8.48    7.71
   8  -3  13    7.24    7.33
  -8   3  13   -1.81    5.24
   8   3 -13    7.62    5.05
  -8  -3 -13    1.62    7.33
   8   3  13    4.00    7.52
  -8  -3  13   10.28    5.81
   8  -3 -13    7.81    6.19
  -8   3 -13   18.95    8.19
   8  -3  14    5.24    6.48
  -8   3  14    8.95    5.52
   8   3 -14   11.24    5.62
  -8  -3 -14    1.24    7.14
   8   3  14   -4.29    6.67
  -8  -3  14    8.19    5.52
   8  -3 -14    0.00    5.52
  -8   3 -14    3.81    6.86
   8  -3  15    2.67    6.38
  -8   3  15    3.05    5.05
   8   3 -15   -0.29    4.86
  -8  -3 -15    4.29    6.57
   8   3  15   -0.48    6.67
  -8  -3  15    2.29    5.24
   8  -3 -15    4.38    5.43
  -8   3 -15    4.57    6.67
   8  -3  16    5.90    6.76
  -8   3  16   10.19    5.81
   8   3 -16   -1.05    5.05
  -8  -3 -16    4.95    9.81
   8   3  16    7.05    6.76
  -8  -3  16   -2.67    5.14
   8  -3 -16   -1.43    5.43
  -8   3 -16    3.14    6.57
   8  -3  17   -5.81    6.76
  -8   3  17   -2.67    7.14
   8   3 -17    1.05    8.86
  -8  -3 -17   -0.19   84.94
   8   3  17    4.76    6.67
  -8  -3  17    7.81   13.71
   8  -3 -17    1.24    5.62
  -8   3 -17   11.24   23.71
   8  -4   1    2.76    7.33
  -8   4  -1    8.00    7.81
   8  -4   2   35.52    8.28
  -8   4  -2   43.90    9.52
   8  -4   3   -4.67    6.67
  -8   4  -3    0.48    7.81
   8  -4   4  127.42   15.90
  -8   4  -4  152.37   18.57
   8  -4   5    5.81    6.67
  -8  -4  -5   11.62    8.28
   8   4   5    9.24    7.90
  -8   4  -5    5.71    7.71
   8  -4   6    9.24    7.14
  -8  -4  -6   36.19    9.33
   8   4   6   31.81    8.95
   8  -4   7    2.57    6.67
  -8  -4  -7    5.81    8.00
   8   4   7    9.05    7.71
  -8   4  -7    1.71    6.95
   8  -4   8   26.19    7.81
  -8  -4  -8   48.95   11.81
   8   4   8   61.04   11.90
  -8  -4   8   30.66    7.52
  -8   4  -8   44.38    9.33
   8  -4   9   -0.29    7.14
  -8   4   9    1.81    6.95
   8   4  -9   -2.48    6.48
  -8  -4  -9  -12.09    9.52
   8   4   9   -2.29    9.24
  -8  -4   9    0.10    6.57
   8  -4  -9    4.57    6.67
  -8   4  -9   19.71    8.67
   8  -4  10    8.57    9.90
  -8   4  10   21.52    8.57
   8   4 -10    4.19    6.95
  -8  -4 -10    9.71    9.52
   8   4  10   12.57   10.95
  -8  -4  10    8.57    6.67
   8  -4 -10    8.00    7.81
  -8   4 -10   12.09    8.67
   8  -4  11    3.52    9.33
  -8   4  11   -3.90    6.29
   8   4 -11   -3.14    6.38
  -8  -4 -11    2.19    8.19
   8   4  11    4.00    7.90
  -8  -4  11   -2.38    6.38
   8  -4 -11   -4.86    6.09
  -8   4 -11   -6.19    7.52
   8  -4  12   12.67    7.90
  -8   4  12    3.43    5.81
   8   4 -12    3.90    5.81
  -8  -4 -12   -4.95    7.14
   8   4  12    4.95    7.14
  -8  -4  12    0.95    5.52
   8  -4 -12    7.33    6.29
  -8   4 -12   17.71    7.71
   8  -4  13   -1.24    6.00
  -8   4  13   -1.90    5.33
   8   4 -13    2.86    4.95
  -8  -4 -13   -6.67    7.05
   8   4  13   11.33    7.90
  -8  -4  13    0.86    5.24
   8  -4 -13    2.67    5.62
  -8   4 -13    0.76    6.57
   8  -4  14   10.48    6.95
  -8   4  14   -0.10    5.14
   8   4 -14    6.00    5.52
  -8  -4 -14   -5.33    6.29
   8   4  14    1.24    6.67
  -8  -4  14    5.81    5.43
   8  -4 -14    1.90    5.24
  -8   4 -14   -0.67    6.95
   8  -4  15    7.52    7.24
  -8   4  15    1.14    5.14
   8   4 -15    1.05    4.86
  -8  -4 -15    4.95    6.76
   8   4  15   -2.76    6.48
  -8  -4  15    5.90    5.43
   8  -4 -15    0.86    5.05
  -8   4 -15   -7.71    6.38
   8  -4  16    6.86    6.76
  -8   4  16    7.24    5.71
   8   4 -16   14.86    6.00
  -8  -4 -16    8.57    7.33
   8   4  16    8.09    7.33
  -8  -4  16   10.28    6.00
   8  -4 -16    5.71    6.00
  -8   4 -16   13.62    7.90
   8  -4  17   -1.81    6.57
  -8   4  17    2.38    5.33
   8   4 -17    0.67    6.38
  -8  -4 -17   -2.00    6.76
   8   4  17    0.00    6.67
  -8  -4  17   -0.48    6.57
   8  -4 -17    3.33   36.28
  -8   4 -17    2.57   10.67
   8  -5   4   13.05    6.95
  -8   5  -4   20.28    8.28
   8  -5   5  585.37   58.76
  -8   5  -5  666.31   66.56
   8  -5   6  262.45   28.76
  -8   5  -6  190.55   22.19
   8  -5   7 2124.55  205.12
  -8  -5  -7 1429.38  139.32
   8   5   7 1403.67  136.75
  -8   5  -7 1534.13  149.03
   8  -5   8   15.90    7.05
  -8  -5  -8   40.00   11.14
   8   5   8   15.14    9.43
  -8   5  -8   10.86    7.05
   8  -5   9  391.10   41.14
  -8  -5  -9  399.10   43.04
   8   5   9  410.34   44.00
  -8  -5   9  324.82   34.09
  -8   5  -9  389.10   41.14
   8  -5  10   18.38    8.86
   8   5 -10   43.90    9.90
  -8  -5 -10   45.90   12.76
   8   5  10   14.00   11.14
  -8  -5  10   50.76    9.81
   8  -5 -10   14.67    8.09
  -8   5 -10   25.90    9.71
   8  -5  11   10.48    8.38
   8   5 -11    8.57    7.33
  -8  -5 -11    4.76    8.57
   8   5  11    8.38    8.00
  -8  -5  11    4.29    6.76
   8  -5 -11   34.76    8.38
  -8   5 -11    0.38    7.52
   8  -5  12    4.38    6.38
  -8   5  12   25.52    7.52
   8   5 -12    8.28    5.81
  -8  -5 -12    0.57    7.52
   8   5  12    4.19    7.52
  -8  -5  12    3.33    5.62
   8  -5 -12    1.43    6.19
  -8   5 -12    0.10    6.38
   8  -5  13  131.13   17.52
   8   5 -13   81.52   12.09
  -8  -5 -13   70.66   13.71
   8   5  13   95.61   15.62
  -8  -5  13  131.03   16.47
   8  -5 -13   90.85   13.43
  -8   5 -13   92.75   14.47
   8  -5  14    8.00    6.67
  -8   5  14    2.29    5.62
   8   5 -14   10.48    5.90
  -8  -5 -14   27.43    8.95
   8   5  14    5.81    7.05
  -8  -5  14    8.95    5.62
   8  -5 -14    8.76    5.52
  -8   5 -14    9.52    6.38
   8  -5  15   54.38   11.62
  -8   5  15   20.66    6.95
   8   5 -15   44.28    9.43
  -8  -5 -15   26.76    9.24
   8   5  15   42.19   10.57
  -8  -5  15   49.33    9.71
   8  -5 -15   16.76    7.24
  -8   5 -15   46.09   10.57
   8  -5  16    4.38   63.71
  -8   5  16   -1.24    5.24
   8   5 -16   -0.29    5.33
  -8  -5 -16    2.67    6.19
   8   5  16    1.71    7.14
  -8  -5  16    7.14    5.52
   8  -5 -16    1.71    5.62
  -8   5 -16    1.52    6.19
   8  -5  17   11.14    8.86
  -8   5  17    3.90    5.62
  -8  -5 -17    6.48    7.62
   8   5  17   -3.81    7.52
  -8  -5  17   -0.38    6.29
   8  -5 -17    4.38    6.57
  -8   5 -17   -2.38    6.76
   8  -6   3    5.71    7.81
  -8   6  -3    9.33    8.86
   8  -6   5    0.48    6.67
  -8   6  -5   11.52    8.19
   8  -6   6   21.81    7.81
  -8   6  -6   16.00    7.62
   8  -6   7   -0.67    6.38
  -8   6  -7    3.33    6.86
   8  -6   8  196.36   22.66
  -8  -6  -8  248.45   28.85
   8  -6   9   10.28    7.52
  -8  -6  -9    9.81    9.90
   8   6   9    2.29    9.71
  -8   6  -9    5.14    8.09
   8  -6  10   13.81    8.38
  -8  -6 -10   14.86   10.57
   8   6  10    9.62   10.76
  -8  -6  10   47.71   10.19
  -8   6 -10   16.00    9.24
   8  -6  11    3.33    7.52
   8   6 -11    1.05    6.86
  -8  -6 -11   -2.38    7.81
   8   6  11    5.81    7.90
  -8  -6  11    1.52    7.05
  -8   6 -11    1.05    7.24
   8  -6  12   36.57    9.05
   8   6 -12    0.76    5.90
  -8  -6 -12    4.19    8.28
   8   6  12    6.76    7.52
  -8  -6  12   10.38    6.19
   8  -6 -12   -0.10    5.90
   8  -6  13    6.86    5.81
  -8   6  13    7.33    5.90
   8   6 -13   -7.24    5.43
  -8  -6 -13    6.38    7.52
   8   6  13   12.95    7.71
  -8  -6  13    1.52    5.24
   8  -6 -13    4.48    5.71
  -8   6 -13    1.43    6.00
   8  -6  14   15.33    6.76
  -8   6  14    4.29    5.62
   8   6 -14    1.05    5.24
  -8  -6 -14    8.28    7.33
   8   6  14    7.24    7.33
  -8  -6  14   11.43    5.71
   8  -6 -14    4.67    5.71
  -8   6 -14    5.05    6.48
   8  -6  15   -5.33    5.33
  -8   6  15   -1.14    5.43
   8   6 -15   -0.48    5.14
  -8  -6 -15    4.29    6.95
   8   6  15    5.71    7.14
  -8  -6  15    2.76    4.95
   8  -6 -15   -1.33    5.43
  -8   6 -15   -1.81    5.90
   8  -6  16   20.66    7.71
  -8   6  16   20.38    6.86
   8   6 -16   15.05    6.86
  -8  -6 -16   15.71    7.81
   8   6  16   25.81    8.95
  -8  -6  16   22.57    7.24
   8  -6 -16   10.76    6.19
  -8   6 -16    7.33    6.86
   8  -7   3   21.62    8.00
   8  -7   4   12.76    7.62
  -8   7  -4    9.71    8.48
   8  -7   5  159.60   19.43
  -8   7  -5  187.41   22.19
   8  -7   6    7.71    6.76
  -8   7  -6    3.52    6.95
   8  -7   7   24.28    8.00
  -8   7  -7   32.95    8.76
   8  -7   8   -1.52    6.76
  -8   7  -8    7.81    7.43
   8  -7   9   11.05    8.28
  -8   7  -9   12.28    8.86
   8  -7  10   -0.95    7.24
  -8  -7 -10   -0.38    8.95
  -8   7 -10    8.95    9.14
   8  -7  11   27.81    9.43
  -8  -7 -11   23.24    9.43
   8   7  11   20.47    8.95
  -8  -7  11   44.47    9.52
  -8   7 -11   43.14   10.19
   8  -7  12    6.95    6.29
   8   7 -12    2.38    6.09
  -8  -7 -12    0.95    7.81
   8   7  12    3.24    7.43
  -8  -7  12   11.33    6.29
  -8   7 -12    1.90    5.90
   8  -7  13    8.76    6.09
   8   7 -13    4.67    6.00
  -8  -7 -13   -3.62    7.52
   8   7  13   -1.90    7.24
  -8  -7  13    4.38    6.00
   8  -7 -13    3.05    5.62
  -8   7 -13   11.24    6.95
   8  -7  14    4.67    6.19
  -8   7  14   12.00    6.48
   8   7 -14    5.90    5.71
  -8  -7 -14    6.00    7.05
   8   7  14   -0.76    6.76
  -8  -7  14   12.19    5.81
   8  -7 -14   15.71    6.38
  -8   7 -14    5.81    6.29
   8  -7  15    7.90    5.90
  -8   7  15   -3.71    5.24
   8   7 -15    5.33    5.62
  -8  -7 -15    7.33    6.95
   8   7  15   -2.48    7.05
  -8  -7  15    6.67    5.71
   8  -7 -15    6.48    5.62
  -8   7 -15    1.90    5.81
   8  -7  16    8.38    6.57
  -8   7  16    4.09    7.71
   8   7 -16    5.24    5.52
  -8  -7 -16    3.33    7.24
   8   7  16    0.29    6.95
  -8  -7  16    0.95    5.24
   8  -7 -16    2.10    5.33
  -8   7 -16    1.90    5.62
   8  -8   4  102.37   14.57
   8  -8   7   10.67    7.14
  -8   8  -7   16.09    7.81
   8  -8   8  148.84   18.76
  -8   8  -8  141.13   18.47
   8  -8   9    2.95    7.33
  -8   8  -9    9.62    8.28
   8  -8  10    6.86    7.81
  -8   8 -10   11.05    8.95
   8  -8  11   18.95    8.19
  -8   8 -11   -1.71    7.05
   8  -8  12   36.85    8.76
  -8  -8 -12   51.71   11.90
   8   8  12   51.33   11.14
  -8  -8  12   20.09    7.05
  -8   8 -12   38.85    9.33
   8  -8  13    6.29    5.90
   8   8 -13    3.33    6.09
  -8  -8 -13   13.43    8.28
   8   8  13    8.67    7.33
  -8  -8  13   -3.81    5.62
  -8   8 -13   -0.38    6.00
   8  -8  14    7.43    6.09
   8   8 -14   14.67    6.95
  -8  -8 -14    9.43    7.71
   8   8  14   26.09    9.24
  -8  -8  14   24.76    7.43
  -8   8 -14    5.52    6.09
   8  -8  15   10.48    6.48
   8   8 -15   -5.33    5.24
  -8  -8 -15   -2.67  638.32
   8   8  15   10.95    7.24
  -8  -8  15    2.38   11.81
   8  -8 -15    2.19    5.52
  -8   8 -15    7.24    6.19
   8  -8  16   -1.43    5.62
   8   8 -16   -0.29    6.00
  -8  -8 -16   28.38    9.81
   8   8  16    3.62    7.14
  -8  -8  16   -1.43    5.52
   8  -8 -16    3.05    5.81
  -8   8 -16   -1.24    5.62
   8  -9   5   63.71   11.62
   8  -9   6   10.28    7.43
  -8   9  -6    1.81    7.14
   8  -9   7   12.19    8.19
  -8   9  -7   23.33    8.76
   8  -9   8   -0.67    8.19
  -8   9  -8  -10.00    7.90
   8  -9   9   10.48    7.62
  -8   9  -9    7.62    8.09
   8  -9  10    2.76    7.05
  -8   9 -10    0.67    8.00
   8  -9  11   35.43    9.33
  -8   9 -11   29.81    8.95
   8  -9  12   -7.05    5.81
  -8   9 -12   -0.10    6.00
   8  -9  13    9.52    6.29
  -8  -9 -13    0.00    7.24
  -8  -9  13   -2.00    5.90
  -8   9 -13    1.52    6.09
   8  -9  14    2.67    5.62
   8   9 -14   -4.57    5.90
  -8  -9 -14    5.14    7.24
   8   9  14   -0.76    7.24
  -8  -9  14   -5.05    5.52
  -8   9 -14    5.43    6.48
   8  -9  15    6.00    6.09
   8   9 -15    5.81    6.48
  -8  -9 -15    6.09    7.62
   8   9  15   -0.38    6.76
  -8  -9  15   12.00    6.86
  -8   9 -15   12.19    7.05
   8  -9  16    2.38    6.67
   8   9 -16    0.19  134.65
  -8  -9 -16   -1.33    6.86
   8   9  16    3.43    7.14
  -8  -9  16    5.14   74.66
   8  -9 -16    2.00    5.81
  -8   9 -16    3.43  102.37
   8 -10   6  425.96   44.47
   8 -10   7    5.52    8.38
  -8  10  -7   -4.95    8.09
   8 -10   9   11.43    8.48
  -8  10  -9   -0.29    8.09
   8 -10  10    2.67    6.48
  -8  10 -10   12.57    8.86
   8 -10  11   -0.38    6.29
  -8  10 -11   -8.67    5.81
   8 -10  12   22.66    7.71
  -8  10 -12   12.67    7.43
   8 -10  13    0.00    5.05
  -8  10 -13   10.48    6.67
   8 -10  14    3.24    5.81
  -8 -10  14   20.95    7.33
  -8  10 -14    6.09    6.38
   8 -10  15    4.19    6.00
   8  10 -15   -4.67    5.81
  -8 -10 -15    0.19    6.76
  -8 -10  15    2.29    6.19
  -8  10 -15    4.38    6.00
   8 -11   7   32.28    9.90
   8 -11   8   -3.62    8.09
  -8  11  -8    4.00    8.19
   8 -11   9   13.43    8.28
  -8  11  -9   -0.48    7.81
   8 -11  10   -4.48    6.29
  -8  11 -10   13.90    8.09
   8 -11  11    2.76    6.57
  -8  11 -11   -3.81    6.29
   8 -11  12   -0.10    5.71
  -8  11 -12   11.24    6.67
   8 -11  13    1.24    5.52
  -8  11 -13   -1.62    6.00
   8 -11  14    4.57    5.62
  -8  11 -14   -2.95    5.90
   8 -11  15    8.86    6.38
  -8 -11  15   12.86    6.95
  -8  11 -15    7.33    6.67
   8 -12   8   17.62    8.86
   8 -12   9    4.86    7.81
  -8  12  -9    3.24    7.90
   8 -12  10    6.76    7.24
  -8  12 -10   -2.48    7.05
   8 -12  11    1.62    6.67
  -8  12 -11   -5.24    6.29
   8 -12  12   13.14    7.52
  -8  12 -12    4.86    6.38
   8 -12  13   -3.90    5.05
  -8  12 -13   -1.71    6.19
   8 -12  14   19.71    7.62
  -8  12 -14   28.85    9.05
   8 -12  15    4.29    6.76
  -8  12 -15   -2.19    5.81
   8 -13   9   26.28    8.57
   8 -13  10   16.66    7.14
  -8  13 -10    8.28    7.52
   8 -13  11   10.57    7.14
  -8  13 -11   13.90    7.62
   8 -13  12   10.48    7.33
  -8  13 -12  -10.38    6.29
   8 -13  13    7.81    6.76
  -8  13 -13    7.71    7.05
   8 -13  14   20.38    7.43
  -8  13 -14   14.28    7.62
   8 -14  10    4.48    6.67
   8 -14  11   -7.81    6.19
  -8  14 -11   -2.19    6.67
   8 -14  12   10.09    7.81
  -8  14 -12    4.09    6.95
   8 -14  13    0.67    6.48
  -8  14 -13    5.90    6.38
   8 -14  14   10.95    8.38
  -8  14 -14    6.38    6.95
   8 -15  11    6.19    6.57
   8 -15  12    3.43    6.48
  -8  15 -12   -0.86    5.81
   8 -15  13    1.14    6.67
  -8  15 -13    0.00    6.67
  -8  15 -14    2.38    7.14
   8 -16  12   24.57    8.76
   8 -16  13   -5.24    7.14
  -8  16 -13    2.10    6.09
   9   0   0  -16.66    8.28
  -9   0   0  -10.57    8.09
   9   0   1   23.05    8.00
  -9   0   1   38.38    6.86
   9   0  -1   51.04    8.00
  -9   0  -1   39.62    8.57
   9   0   2   99.51   13.71
  -9   0  -2   99.32   14.09
   9   0   3   20.95    8.28
  -9   0  -3   21.81    9.05
   9   0   4   32.19    9.43
  -9   0  -4   38.85   10.38
   9   0   5  128.37   16.66
  -9   0   5  141.41   14.47
   9   0  -5  150.27   15.14
  -9   0  -5  138.27   18.09
  -9   0   6  507.76   49.42
   9   0  -6  468.91   45.61
  -9   0   7   49.04    7.62
   9   0  -7   41.33    6.48
  -9   0   8   18.28    6.00
   9   0  -8   37.90    7.05
   9   0   9   88.18   14.67
  -9   0   9   80.09   11.52
   9   0  -9   87.61   12.00
  -9   0  -9   83.42   14.38
   9   0  10  107.23   16.76
   9   0 -10   59.61   10.09
  -9   0 -10  101.51   17.33
  -9   0  11   27.62    7.71
   9   0 -11   16.09    6.86
   9   0  12   54.28   11.52
  -9   0 -12   56.95   11.81
  -9   0  13   10.19    5.90
   9   0 -13    4.09    5.71
   9   0  14   12.57    6.95
  -9   0  14    2.57    5.43
  -9   0 -14    3.62    6.67
   9   0  15   38.76   10.09
  -9   0  15   16.38    6.19
   9   0 -15    3.52    6.09
  -9   0 -15   28.47    9.24
   9   0  16    5.90    7.24
  -9   0  16   11.05    6.19
   9   0 -16    8.86    6.19
  -9   0 -16    7.14    6.76
   9   0  17    5.24    7.33
  -9   0  17    4.95    5.81
   9   0 -17    8.19    6.67
  -9   0 -17    8.38   78.56
  -9  -1   0   11.71    6.86
   9  -1   0   -7.81    6.86
  -9   1   0   -0.86    6.38
   9  -1   1   14.47    7.43
  -9   1   1   18.00    5.81
  -9  -1  -1   14.19    7.81
   9   1   1   12.95    8.00
   9  -1  -1   18.95    6.57
  -9   1  -1   16.76    7.71
   9  -1   2    2.95    7.24
  -9   1   2   25.52    5.05
   9   1   2    1.33    7.62
   9  -1  -2   25.14    5.14
  -9   1  -2   17.24    8.67
   9  -1   3   24.95    8.28
  -9  -1  -3    7.71    8.48
   9   1   3   -5.14    7.62
   9  -1  -3   12.95    2.38
  -9   1  -3   33.43   10.57
   9  -1   4   23.33    8.38
  -9   1   4   32.95    4.00
   9  -1  -4   25.43    3.33
  -9   1  -4   16.28    9.81
   9  -1   5   31.43    8.86
  -9   1   5   25.52    4.38
  -9  -1  -5   17.43    8.48
   9   1   5   30.76    8.95
   9  -1  -5   16.66    4.00
  -9   1  -5   20.57    9.24
   9  -1   6    2.86    6.67
  -9   1   6   14.00    4.38
   9   1  -6   -3.52    4.48
  -9  -1  -6    1.43    6.76
   9   1   6   -8.38    7.14
  -9  -1   6    5.52    4.48
   9  -1  -6   11.62    4.09
  -9   1  -6   12.67    7.81
   9  -1   7   14.67    7.71
  -9   1   7    7.62    4.48
   9   1  -7   12.67    4.95
  -9  -1  -7    2.67    7.52
   9   1   7    6.67    7.71
  -9  -1   7   10.67    4.76
   9  -1  -7   13.05    4.95
  -9   1  -7    5.62    7.33
   9  -1   8    0.19    7.52
  -9   1   8    1.24    5.24
   9   1  -8   10.19    5.14
  -9  -1  -8   -5.52    7.90
   9   1   8    1.52    7.81
  -9  -1   8    0.00    4.86
   9  -1  -8    6.95    5.52
  -9   1  -8   -0.48    7.62
   9  -1   9    9.52    8.67
  -9   1   9    7.62    6.00
   9   1  -9    1.81    5.52
  -9  -1  -9    0.76    8.76
   9   1   9   -0.86    8.38
  -9  -1   9   20.38    6.48
   9  -1  -9    7.14    6.57
  -9   1  -9   -6.29    8.28
   9  -1  10    3.24    9.33
  -9   1  10    3.81    6.86
   9   1 -10    5.62    5.90
  -9  -1 -10    2.29   10.67
   9   1  10    9.14    9.81
  -9  -1  10   -5.62    5.90
   9  -1 -10    3.71    6.76
  -9   1 -10   17.43   11.05
   9  -1  11   16.09    9.14
  -9   1  11    6.57    6.29
   9   1 -11   15.52    6.57
  -9  -1 -11    6.67    8.57
   9   1  11   13.24    8.86
  -9  -1  11   -4.76    6.29
   9  -1 -11   -1.62    6.19
  -9   1 -11    6.86    8.67
   9  -1  12   -9.14    7.24
  -9   1  12   -6.95    4.95
   9   1 -12    5.81    5.14
  -9  -1 -12    6.86    7.62
   9   1  12   -7.24    7.05
  -9  -1  12   -3.43    5.71
   9  -1 -12   -4.48    5.43
  -9   1 -12    6.57    7.62
   9  -1  13    0.48    6.57
  -9   1  13    9.24    5.33
   9   1 -13   12.19    6.00
  -9  -1 -13   -3.90    6.48
   9   1  13    0.10    6.76
  -9  -1  13    0.86    5.33
   9  -1 -13   -3.71    5.14
  -9   1 -13    0.10    6.48
   9  -1  14   -1.90    5.81
  -9   1  14    2.29    4.95
   9   1 -14    2.38    5.24
  -9  -1 -14    5.33    6.76
   9   1  14   -2.67    6.19
  -9  -1  14   29.71    7.81
   9  -1 -14    3.43   21.43
  -9   1 -14    3.52    6.76
   9  -1  15    3.43    6.48
  -9   1  15    0.86    4.95
   9   1 -15    1.14    5.14
  -9  -1 -15   18.09    8.28
   9   1  15    4.38    7.14
  -9  -1  15    4.09    5.33
   9  -1 -15   -2.76    4.86
  -9   1 -15    0.10 2599.74
   9  -1  16   -1.52    6.19
  -9   1  16    5.14    5.52
   9   1 -16    0.76    5.24
  -9  -1 -16    7.24    7.14
   9   1  16    8.48    7.05
  -9  -1  16   -0.67    5.05
   9  -1 -16   11.90   13.52
  -9   1 -16    4.29    7.71
   9  -1  17   -3.43   33.33
  -9   1  17   -1.14    5.81
   9   1 -17   -1.62    5.71
  -9  -1 -17    4.95  121.61
   9   1  17    1.81    6.67
  -9  -1  17    5.90   11.62
   9  -1 -17    0.57    8.76
  -9   1 -17    7.43    8.57
   9  -2   1    8.95    6.38
  -9   2   1    5.71    4.95
   9  -2  -1    5.05    5.05
  -9   2  -1   16.09    7.24
   9  -2   2  151.41   17.71
  -9   2   2  142.75   14.76
  -9  -2  -2  106.08   14.76
   9  -2  -2  166.65   16.95
  -9   2  -2  161.32   18.95
  -9  -2  -3    0.86    8.57
   9   2   3    1.90    7.43
  -9   2  -3   -0.48    8.48
   9  -2   4  245.69   26.85
  -9   2  -4  194.08   22.66
   9  -2   5   26.47    8.86
  -9  -2  -5    4.57    8.19
   9   2   5   21.90    8.48
  -9   2  -5   36.76    9.90
   9  -2   6  155.03   18.86
  -9  -2  -6  169.98   20.19
   9   2   6  117.80   15.81
   9  -2  -6  143.41   15.05
  -9   2  -6  112.94   15.71
   9  -2   7   -2.38    7.52
  -9   2   7   -2.95    4.48
   9   2  -7    2.19    5.14
  -9  -2  -7    2.67    7.05
   9   2   7   -0.48    7.52
   9  -2  -7   10.19    4.86
  -9   2  -7   11.71    8.00
   9  -2   8    3.62    8.28
  -9   2   8    8.09    5.62
   9   2  -8   11.24    5.43
  -9  -2  -8   20.57    9.14
   9   2   8   17.71    8.76
  -9  -2   8   10.19    5.33
   9  -2  -8    7.71    6.00
  -9   2  -8   12.47    8.38
   9  -2   9   -3.14    8.38
  -9   2   9    9.43    6.38
   9   2  -9    3.43    5.90
  -9  -2  -9  -11.43    8.67
   9   2   9   -6.19    8.67
  -9  -2   9   -3.81    5.62
   9  -2  -9   -4.86    6.76
  -9   2  -9   -1.81    8.67
   9  -2  10   26.76   10.57
  -9   2  10   11.62    7.24
  -9  -2 -10   20.38   11.14
   9   2  10    8.86   10.19
  -9  -2  10   24.66    7.24
   9  -2 -10    8.19    7.33
  -9   2 -10   56.66   13.43
   9  -2  11    1.43    8.28
  -9   2  11    1.81    5.81
   9   2 -11   13.81    6.19
  -9  -2 -11   -4.95    7.52
   9   2  11    5.52    8.76
  -9  -2  11   10.86    6.48
   9  -2 -11    2.57    6.00
  -9   2 -11   -5.24    8.48
   9  -2  12    1.52    8.00
  -9   2  12    7.52    5.43
   9   2 -12    1.24    5.14
  -9  -2 -12    4.29    7.62
   9   2  12    1.90    7.81
  -9  -2  12   19.43    6.48
   9  -2 -12    5.24    5.90
  -9   2 -12    2.95    8.00
   9  -2  13   13.90    7.43
  -9   2  13   -1.33    5.05
   9   2 -13    3.62    4.67
  -9  -2 -13    1.33    7.33
   9   2  13    8.09    7.62
  -9  -2  13    1.33    4.86
   9  -2 -13    0.67    5.33
  -9   2 -13   -2.67    6.76
   9  -2  14   10.86    7.71
  -9   2  14    8.95    5.14
   9   2 -14   12.28    5.62
  -9  -2 -14    6.48    7.24
   9   2  14   16.66    7.52
  -9  -2  14    6.67    5.05
   9  -2 -14   -4.00    5.14
  -9   2 -14    5.90    7.33
   9  -2  15    3.90    6.76
  -9   2  15    2.48    5.05
   9   2 -15   -2.48    4.67
  -9  -2 -15    0.76    6.76
   9   2  15    1.14    6.29
  -9  -2  15   -1.71    4.86
   9  -2 -15    1.33    5.14
  -9   2 -15   -2.76    6.67
   9  -2  16    7.90    7.43
  -9   2  16    1.24    4.76
   9   2 -16   -1.24    4.86
  -9  -2 -16    4.76    6.48
   9   2  16    2.48    6.67
  -9  -2  16    7.14    5.52
   9  -2 -16   -0.57   64.09
  -9   2 -16   -0.19    6.57
  -9   2  17    2.57  429.10
   9   2 -17    1.81    5.43
  -9  -2 -17    1.43    7.43
   9   2  17    4.48    7.52
  -9  -2  17   -4.19    5.33
   9  -2 -17    3.90    7.05
  -9   2 -17    6.86    7.43
   9  -3   0   11.52    5.81
  -9   3   0    8.95    6.48
   9  -3   1  123.32   14.67
  -9   3   1  140.08   15.43
   9  -3  -1  117.42   13.52
  -9   3  -1  185.51   20.47
   9  -3   2   15.71    6.95
  -9   3  -2   15.33    7.71
   9  -3   3  977.05   95.13
  -9   3  -3  927.05   90.66
   9  -3   4    5.52    6.57
  -9  -3  -4   20.09    9.14
   9   3   4    2.10    7.62
  -9   3  -4    1.33    7.52
   9  -3   5  401.20   41.23
  -9  -3  -5  268.35   29.62
   9   3   5  411.39   42.57
  -9   3  -5  311.40   33.23
   9  -3   6    1.14    7.24
  -9  -3  -6    0.29    7.33
   9   3   6   -0.95    7.62
  -9   3  -6   -0.95    6.67
   9  -3   7  182.17   21.81
  -9  -3  -7  179.41   21.43
   9   3   7  193.12   22.95
  -9   3  -7  218.64   25.05
   9  -3   8    6.38    7.62
  -9   3   8   13.52    6.29
   9   3  -8   21.52    6.57
  -9  -3  -8    6.86    8.09
   9   3   8    1.24    8.00
  -9  -3   8    3.43    5.81
   9  -3  -8    2.86    5.71
  -9   3  -8    0.29    7.33
   9  -3   9   45.04   11.14
  -9   3   9   22.38    7.43
   9   3  -9   28.57    7.71
  -9  -3  -9   37.52   11.33
   9   3   9   44.95   11.43
  -9  -3   9   52.66    9.24
   9  -3  -9   43.71    8.76
  -9   3  -9   42.00   11.05
  -9   3  10   10.19    6.95
   9   3 -10    8.28    6.48
  -9  -3 -10   19.24   10.86
   9   3  10    4.67    9.71
  -9  -3  10   -5.05    6.19
   9  -3 -10   -8.00    6.57
   9  -3  11    2.76    8.28
  -9   3  11    1.62    5.71
   9   3 -11    5.24    6.09
  -9  -3 -11   13.24    8.38
   9   3  11   11.14    8.95
  -9  -3  11   -4.67    5.90
   9  -3 -11   -1.05    5.81
  -9   3 -11    0.19    8.86
   9  -3  12    8.00    8.38
  -9   3  12    0.95    5.14
   9   3 -12    3.81    5.33
  -9  -3 -12   -0.67    7.14
   9   3  12   -2.95    6.86
  -9  -3  12    2.00    5.24
   9  -3 -12    5.14    5.62
  -9   3 -12    1.81    7.62
   9  -3  13   18.76    7.71
  -9   3  13    5.71    5.62
   9   3 -13   22.09    6.57
  -9  -3 -13    8.95    8.28
   9   3  13    1.05    6.67
  -9  -3  13   12.00    5.43
   9  -3 -13    9.90    5.90
  -9   3 -13   10.57    6.95
   9  -3  14   -1.90    6.00
  -9   3  14    4.00    4.95
   9   3 -14    0.57    4.95
  -9  -3 -14   12.57    7.33
   9   3  14    8.09    6.67
  -9  -3  14    3.81    5.05
   9  -3 -14    7.14    5.33
  -9   3 -14   -1.81    6.09
   9  -3  15    6.38    7.05
  -9   3  15   12.86    5.71
   9   3 -15   13.24    6.09
  -9  -3 -15   15.90    7.81
   9   3  15    3.90    6.95
  -9  -3  15   25.24    6.95
   9  -3 -15   17.33    6.48
  -9   3 -15   12.38    7.90
   9  -3  16   -1.90    6.86
  -9   3  16    0.00    4.86
   9   3 -16   -2.76    4.67
  -9  -3 -16    3.33    6.48
   9   3  16   -3.71    6.09
  -9  -3  16    4.48    5.43
   9  -3 -16    2.76   15.52
  -9   3 -16   -5.24    6.95
  -9  -3 -17   -2.76    7.43
  -9  -3  17    1.43    5.14
  -9   3 -17    5.81    7.90
   9  -4   0   11.81    6.57
  -9   4   0    8.57    7.05
   9  -4   1   22.38    7.24
  -9   4  -1   -0.57    7.24
   9  -4   2    8.38    6.57
  -9   4  -2    8.95    7.52
   9  -4   3   12.09    6.76
  -9   4  -3    8.38    7.62
   9  -4   5    8.86    6.76
  -9  -4  -5   17.24    8.95
   9   4   5    2.67    7.71
  -9   4  -5   20.00    8.38
  -9  -4  -6   21.14    8.19
   9   4   6   15.33    8.19
  -9   4  -6   12.38    7.52
   9  -4   7    0.48    6.57
  -9  -4  -7    0.29    7.90
   9   4   7   15.71    8.38
  -9   4  -7   -0.19    6.38
   9  -4   8   -6.57    6.76
  -9  -4  -8   13.71    9.14
   9   4   8   13.14    9.33
  -9   4  -8    6.48    6.95
   9  -4   9   -0.95    7.43
  -9   4   9   -2.10    6.67
   9   4  -9    3.81    6.67
  -9  -4  -9    6.76    9.14
   9   4   9   -8.09    8.76
  -9  -4   9    8.19    6.95
   9  -4  -9    2.29    6.67
  -9   4  -9    6.19    7.52
   9  -4  10   26.47    9.71
  -9   4  10    6.29    7.33
   9   4 -10    9.43    7.24
  -9  -4 -10   25.24   10.95
   9   4  10   13.43   10.09
  -9  -4  10   49.61    9.43
   9  -4 -10   20.38    7.90
  -9   4 -10   27.43    9.90
   9  -4  11   -3.62    7.71
  -9   4  11    3.14    6.09
   9   4 -11    3.14    6.00
  -9  -4 -11    1.62    7.43
   9   4  11    7.62    8.57
  -9  -4  11    3.24    6.00
   9  -4 -11    1.81    6.38
  -9   4 -11   -6.09    9.14
   9  -4  12    9.43    8.00
  -9   4  12    4.86    5.71
   9   4 -12   -0.38    5.43
  -9  -4 -12    7.52    7.62
   9   4  12   -4.48    7.14
  -9  -4  12   10.00    5.71
   9  -4 -12    3.33    5.62
  -9   4 -12   12.86    7.81
   9  -4  13    3.24    6.67
  -9   4  13    2.19    5.14
   9   4 -13   -1.14    5.05
  -9  -4 -13   -0.38    6.67
   9   4  13    3.33    7.14
  -9  -4  13    3.24    4.67
   9  -4 -13   -5.24    5.05
  -9   4 -13    4.38    6.67
   9  -4  14    1.05    6.38
  -9   4  14   -2.57    4.76
   9   4 -14    1.81    4.95
  -9  -4 -14    3.33   10.48
   9   4  14   -7.43    6.29
  -9  -4  14   30.95    7.62
   9  -4 -14   -1.62    4.86
  -9   4 -14   -0.19    6.48
   9  -4  15   -5.52    6.09
  -9   4  15    6.48    5.24
   9   4 -15    2.38   10.00
  -9  -4 -15    2.76    6.86
   9   4  15   -9.33    6.38
  -9  -4  15    1.05    6.57
   9  -4 -15    2.10    5.43
  -9   4 -15    2.29    6.95
   9  -4  16    1.33    6.76
  -9   4  16    5.43    5.14
   9   4 -16   -6.09    4.48
  -9  -4 -16    7.52    6.86
   9   4  16   -4.86    6.19
  -9  -4  16   -3.05    5.33
   9  -4 -16   -0.57    5.33
  -9   4 -16   -8.28    6.29
   9  -5   2   22.47    8.00
  -9   5  -2   10.48    8.19
   9  -5   3   53.42    9.52
  -9   5  -3   42.66    9.43
   9  -5   4   82.18   12.00
  -9   5  -4  134.46   17.05
   9  -5   6    3.43    6.67
  -9   5  -6    2.57    6.67
  -9  -5  -7   95.80   14.47
   9   5   7   74.47   13.14
  -9   5  -7   80.18   12.28
   9  -5   8    8.09    7.05
  -9  -5  -8   13.62    9.24
   9   5   8   39.42   10.95
  -9   5  -8   12.38    7.05
   9  -5   9   -1.33    7.71
  -9  -5  -9   26.00   11.14
   9   5   9   34.28   10.95
  -9   5  -9   19.71    8.57
   9  -5  10   23.71    8.95
   9   5 -10   14.38    7.62
  -9  -5 -10   16.86   11.43
   9   5  10   23.71   10.48
  -9  -5  10   18.95    7.62
   9  -5 -10    8.19    7.24
  -9   5 -10   15.33    9.05
   9  -5  11   15.52    7.24
  -9   5  11    1.24    5.90
   9   5 -11    7.81    6.76
  -9  -5 -11    7.90    8.57
   9   5  11    0.57    8.28
  -9  -5  11    8.57    6.86
   9  -5 -11    2.19    5.90
  -9   5 -11    0.19    7.62
   9  -5  12    1.62    6.38
  -9   5  12   29.24    7.33
   9   5 -12    5.33    5.71
  -9  -5 -12   -0.48    7.05
   9   5  12    4.95    7.81
  -9  -5  12    6.29    5.43
   9  -5 -12    9.33    6.19
  -9   5 -12    2.86    6.00
   9  -5  13   -0.76    6.86
  -9   5  13    3.05    5.52
   9   5 -13    8.28    5.62
  -9  -5 -13   -2.29    6.67
   9   5  13    5.52    6.86
  -9  -5  13    0.76    4.67
   9  -5 -13    7.81    5.90
  -9   5 -13    2.10    6.09
   9  -5  14   -3.52    5.90
  -9   5  14    0.48    4.95
   9   5 -14   11.43    6.29
  -9  -5 -14    2.48    6.67
   9   5  14    4.76    6.67
  -9  -5  14   -5.33    4.76
   9  -5 -14    4.48    5.33
  -9   5 -14    5.90    6.38
   9  -5  15   28.19    9.05
  -9   5  15    6.48    5.90
   9   5 -15   17.24    6.95
  -9  -5 -15   37.90   10.57
   9   5  15   41.33   10.38
  -9  -5  15   22.28    6.86
   9  -5 -15   21.14    7.14
  -9   5 -15   35.81    9.24
   9  -5  16    2.86    6.19
  -9   5  16   -1.81    5.14
   9   5 -16    4.76    5.52
  -9  -5 -16    8.09    6.95
   9   5  16    6.48    7.33
  -9  -5  16    3.71    5.05
   9  -5 -16    2.19    5.14
  -9   5 -16    1.43    6.09
   9  -6   2   19.33    7.62
  -9   6  -2    5.90    8.09
   9  -6   3    8.76    7.24
  -9   6  -3   10.86    8.19
   9  -6   4    1.43    6.38
  -9   6  -4   10.57    8.48
   9  -6   5    8.95    6.57
  -9   6  -5    5.05    7.24
   9  -6   6    2.57    6.48
  -9   6  -6    2.29    6.86
   9  -6   7    0.76    6.48
  -9   6  -7    4.86    6.67
   9  -6   8   48.66   10.19
  -9  -6  -8   46.85   11.52
  -9   6  -8   53.04   10.76
   9  -6   9   10.38    7.52
  -9  -6  -9   14.95   11.05
   9   6   9   12.00   10.00
  -9   6  -9    6.67    7.62
   9  -6  10   12.47    8.00
  -9  -6 -10   -9.52    9.24
   9   6  10   12.95    9.43
  -9   6 -10   12.00    8.38
   9  -6  11    3.33    6.76
   9   6 -11    4.19    6.57
  -9  -6 -11    1.43    7.81
   9   6  11    5.43    8.48
  -9  -6  11    6.76    6.76
  -9   6 -11    8.09    7.71
   9  -6  12    5.05    6.57
   9   6 -12   -2.38    5.43
  -9  -6 -12   -0.29    7.62
   9   6  12   -4.09    6.95
  -9  -6  12    9.14    5.90
   9  -6 -12    3.43    6.09
  -9   6 -12   14.67    6.86
   9  -6  13   -2.67    5.90
  -9   6  13    6.57    5.62
   9   6 -13    0.29    5.52
  -9  -6 -13   -2.29    7.43
   9   6  13    1.81    6.86
  -9  -6  13    2.10    5.05
   9  -6 -13    4.09    5.43
  -9   6 -13    4.76    5.90
   9  -6  14    9.05    6.09
  -9   6  14    7.81    5.52
   9   6 -14   -2.48    5.24
  -9  -6 -14    6.48    6.86
   9   6  14    4.57    6.57
  -9  -6  14    0.95    5.43
   9  -6 -14    3.62    5.43
  -9   6 -14    6.29    6.29
   9  -6  15    0.67    5.33
  -9   6  15   -3.71    5.24
   9   6 -15    5.05    5.52
  -9  -6 -15   -4.29    6.09
   9   6  15    0.38    7.33
  -9  -6  15    4.57    5.05
   9  -6 -15    8.86    6.00
  -9   6 -15   -3.43    6.00
   9  -6  16   -1.14    6.00
  -9   6  16    6.57    5.52
   9   6 -16    4.48    5.43
  -9  -6 -16   -0.48  243.21
   9   6  16    2.67  165.03
  -9  -6  16    1.62    5.52
   9  -6 -16    3.05    5.43
  -9   6 -16    2.10    6.57
   9  -7   3  153.32   18.57
  -9   7  -3  197.60   23.14
   9  -7   4   14.76    7.81
  -9   7  -4   14.67    7.81
   9  -7   5  294.92   31.71
  -9   7  -5  277.88   30.38
   9  -7   6    0.57    6.57
  -9   7  -6   -8.95    7.14
   9  -7   7   51.71   10.09
  -9   7  -7   44.95    9.81
   9  -7   8   -1.33    7.05
  -9   7  -8   -3.24    7.62
   9  -7   9    2.38    6.95
  -9   7  -9    4.48    7.52
   9  -7  10    1.43    7.24
  -9  -7 -10   -8.67    8.67
   9   7  10   -1.33    8.48
  -9   7 -10    0.00    8.00
   9  -7  11   25.33    8.09
  -9  -7 -11   40.95   10.57
   9   7  11   45.52   11.14
  -9  -7  11   30.47    8.19
  -9   7 -11   51.52   10.95
   9  -7  12   -2.57    6.00
   9   7 -12    8.19    5.81
  -9  -7 -12   10.95    7.81
   9   7  12    3.71    7.43
  -9  -7  12    2.10    5.52
  -9   7 -12    0.10    5.81
   9  -7  13   69.90   12.09
   9   7 -13   38.57    8.86
  -9  -7 -13   58.38   12.09
  -9  -7  13   81.61   12.28
  -9   7 -13   81.71   13.33
   9  -7  14    5.05    5.81
   9   7 -14   -2.57    5.81
  -9  -7 -14   -7.14    6.38
   9   7  14   -3.43    6.09
  -9  -7  14    2.57    5.62
   9  -7 -14    1.90    5.33
  -9   7 -14   -1.52    5.71
   9  -7  15    3.05    5.81
  -9   7  15    7.24    5.52
   9   7 -15    1.81    5.81
  -9  -7 -15   -6.19    6.38
   9   7  15    2.29    6.86
  -9  -7  15   -2.95    5.05
   9  -7 -15    2.10    5.24
  -9   7 -15    4.29    6.09
   9  -7  16   -1.33    5.62
  -9   7  16    5.14    5.71
   9   7 -16    0.76    5.62
  -9  -7 -16   -0.48    7.24
   9   7  16   -5.81    6.48
  -9  -7  16    3.14    5.33
   9  -7 -16    3.33    6.09
  -9   7 -16   -2.76    5.81
   9  -8   5   12.09    7.71
  -9   8  -5   17.62    8.09
   9  -8   7    2.95    7.14
  -9   8  -7   -2.48    7.05
   9  -8   8  237.40   27.24
  -9   8  -8  190.46   22.85
   9  -8   9   -1.81    7.43
  -9   8  -9   -5.05    7.52
   9  -8  10   61.61   12.57
  -9   8 -10   79.61   13.43
   9  -8  11   12.95    6.57
  -9  -8 -11   11.52    8.48
  -9   8 -11   14.86    8.19
   9  -8  12   29.14    8.19
  -9  -8 -12   76.66   14.00
   9   8  12   43.71   10.57
  -9   8 -12   50.38   10.38
   9  -8  13    0.00    5.62
   9   8 -13    0.38    5.52
  -9  -8 -13   15.81    7.81
   9   8  13    8.48    7.05
  -9  -8  13    0.67    5.52
  -9   8 -13    8.48    6.57
   9  -8  14   -0.57    5.71
   9   8 -14   22.09    7.33
  -9  -8 -14   10.09    7.90
  -9  -8  14    7.24    6.09
  -9   8 -14    7.62    6.09
   9  -8  15    2.76    5.52
   9   8 -15    2.86    5.81
  -9  -8 -15    7.81    7.14
   9   8  15    0.00    7.24
  -9  -8  15    1.71    5.90
   9  -8 -15   -3.24    5.24
  -9   8 -15    6.38    6.29
   9  -8  16   28.00   10.00
   9   8 -16   12.19    7.14
  -9  -8 -16    9.52    7.90
   9   8  16   18.66    8.67
  -9  -8  16   20.86   12.19
   9  -8 -16    8.28    6.29
  -9   8 -16   49.04   11.05
   9  -9   5    1.52    7.43
  -9   9  -5   25.81    8.76
   9  -9   6    0.48    7.71
  -9   9  -6    1.14    7.33
   9  -9   7    5.62    8.28
  -9   9  -7  -10.00    7.81
   9  -9   8    4.86    7.62
  -9   9  -8   -1.71    8.38
   9  -9   9    8.95    7.90
  -9   9  -9   17.90    8.67
   9  -9  10    4.67    6.95
  -9   9 -10   14.76    7.90
   9  -9  11   -2.67    5.81
  -9   9 -11   -0.48    6.76
   9  -9  12   -2.86    5.90
  -9   9 -12    3.14    6.19
   9  -9  13   -4.48    5.62
  -9  -9 -13   -2.00    6.86
  -9  -9  13    3.90    5.43
  -9   9 -13   -1.05    5.81
   9  -9  14    6.86    5.52
   9   9 -14    5.90    6.19
  -9  -9 -14   11.52    7.62
   9   9  14   -6.00    6.29
  -9  -9  14   -0.95    5.43
  -9   9 -14    5.05    6.19
   9  -9  15    2.76    6.00
   9   9 -15   -7.14    5.81
  -9  -9 -15    1.33    7.24
   9   9  15    3.81    6.86
  -9  -9  15   -0.19    5.52
  -9   9 -15   -5.43    5.90
  -9  -9 -16   -4.29    7.81
  -9  -9  16    8.67    6.95
   9 -10   6    1.90    8.28
  -9  10  -6    4.09    8.38
   9 -10   7    2.57    8.48
  -9  10  -7   17.71    9.62
   9 -10   8   43.14   10.86
  -9  10  -8   72.85   13.33
   9 -10   9   -0.86    7.81
  -9  10  -9    2.95    7.52
   9 -10  10   23.43    7.90
  -9  10 -10    8.09    7.14
   9 -10  11    1.90    5.33
  -9  10 -11    0.29    6.67
   9 -10  12   -6.19    5.62
  -9  10 -12    3.62    6.19
   9 -10  13   -5.71    5.90
  -9  10 -13   -3.71    5.71
   9 -10  14   -3.52    5.62
  -9 -10 -14   -0.19    6.57
  -9 -10  14    6.76    6.00
  -9  10 -14   -0.48    5.81
   9 -10  15   -0.76    5.43
   9  10 -15   -0.86    5.52
  -9 -10 -15    2.76    6.57
  -9 -10  15    9.81    6.29
  -9  10 -15    9.24    6.48
   9 -11   7   15.24    8.76
  -9  11  -7   17.05    8.95
   9 -11   8    1.81    8.19
  -9  11  -8    3.62    8.48
   9 -11   9   18.95    8.95
  -9  11  -9   23.24    8.76
   9 -11  10    5.71    6.57
  -9  11 -10    7.24    7.14
   9 -11  11    7.62    6.09
  -9  11 -11    9.24    7.43
   9 -11  12    2.76    5.90
  -9  11 -12   -2.48    6.19
   9 -11  13   22.95    7.62
  -9  11 -13    1.90    6.19
   9 -11  14    2.38    5.43
  -9  11 -14   -2.95    6.29
   9 -11  15    1.33   14.57
  -9 -11  15   -1.90    5.81
  -9  11 -15    1.90    6.48
   9 -12   8   12.38    8.76
  -9  12  -8   24.47    9.24
   9 -12   9    7.71    7.33
  -9  12  -9   -9.43    6.76
   9 -12  10   64.66   11.43
  -9  12 -10   57.99   11.33
   9 -12  11    6.29    6.38
  -9  12 -11   -6.57    6.38
   9 -12  12   13.71    7.05
  -9  12 -12   18.86    8.28
   9 -12  13   -3.62    6.00
  -9  12 -13   -0.38    6.19
   9 -12  14    7.62    6.09
  -9  12 -14    6.00    6.38
  -9  12 -15    1.52   40.00
   9 -13   9   63.80   11.90
  -9  13  -9   82.37   13.33
   9 -13  10   -2.38    6.57
  -9  13 -10    9.43    6.86
   9 -13  11   22.85    8.19
  -9  13 -11   27.90    9.24
   9 -13  12   11.71    7.24
  -9  13 -12   12.47    7.52
   9 -13  13   72.09   13.71
  -9  13 -13   32.57    9.43
   9 -13  14    2.29    5.81
  -9  13 -14    3.14    6.09
   9 -14  10   -0.38    5.81
  -9  14 -10    7.52    6.48
   9 -14  11    7.05    6.57
  -9  14 -11   -3.52    6.76
   9 -14  12    3.05    6.38
  -9  14 -12   15.05    7.52
   9 -14  13    2.19    7.14
  -9  14 -13   -6.19    6.29
  -9  14 -14    2.00    6.67
   9 -15  11   13.24    7.33
   9 -15  12    8.57    6.48
  -9  15 -12    3.33    7.05
   9 -15  13    2.38    6.76
  -9  15 -13    0.57    5.81
   9 -16  12   -4.38    6.29
  -9  16 -13   -1.62    6.09
   9 -17  12   -0.48    5.71
  10   0   0 2326.43  222.83
 -10   0   0 2333.10  223.41
  10   0   1    5.52    6.95
 -10   0   1    5.81    5.24
  10   0  -1   12.38    5.71
 -10   0  -1    2.38    7.05
  10   0   2 2492.13  239.21
 -10   0   2 2422.61  231.41
  10   0  -2 2167.40  207.12
 -10   0  -2 2487.37  238.83
  10   0   3   64.37   10.95
 -10   0  -3   57.99   11.14
  10   0   4  108.85   14.95
 -10   0  -4  155.22   19.24
  10   0   5   22.09    8.28
 -10   0   5   16.86    3.81
  10   0  -5   15.14    3.90
 -10   0  -5   28.57    9.62
  10   0   6   11.43    7.33
 -10   0   6    6.67    3.43
  10   0  -6    4.09    3.52
 -10   0  -6    7.24    7.33
 -10   0   7    4.67    4.09
  10   0  -7    7.90    4.19
  10   0   8  370.15   40.19
 -10   0  -8  415.48   44.19
  10   0   9  103.42   16.19
 -10   0   9   65.42   10.09
 -10   0  -9  104.37   16.09
  10   0  10  166.46   21.81
 -10   0  10  183.41   20.76
  10   0 -10  208.55   22.85
 -10   0 -10  181.41   23.33
  10   0  11   66.85   12.47
 -10   0  11   36.47    7.90
  10   0 -11   47.90    8.86
  10   0  12    3.52    7.14
  10   0 -12    5.90    5.62
 -10   0 -12   -1.62    7.05
  10   0  13   34.57    9.90
 -10   0  13    7.52    5.71
  10   0 -13   20.57    6.29
 -10   0 -13   15.05    8.38
 -10   0  14   11.52    5.52
  10   0 -14    5.43    5.24
  10   0  15    9.81    7.14
 -10   0  15    4.19    5.24
  10   0 -15    1.90    5.33
 -10   0 -15    4.38   18.57
  10   0  16    8.28    6.95
 -10   0  16   -1.24    4.95
  10   0 -16    6.57    5.90
 -10   0 -16    7.81    7.14
  10   1   0   20.66    7.14
 -10  -1   0    8.48    7.05
  10  -1   0   29.24    7.14
 -10   1   0   39.42    8.76
  10  -1   1  107.23   13.43
 -10   1   1   88.94   11.05
 -10  -1  -1  143.03   17.05
  10   1   1  105.99   13.71
  10  -1  -1  105.89   12.19
 -10   1  -1  119.61   14.76
  10  -1   2    6.76    7.14
 -10   1   2   14.28    4.48
 -10  -1  -2   16.86    7.90
  10   1   2   19.81    8.00
  10  -1  -2   19.33    4.86
 -10   1  -2    0.86    7.14
  10  -1   3    8.28    7.14
 -10  -1  -3    8.76    7.81
  10   1   3    4.67    7.43
  10  -1  -3   18.76    3.24
 -10   1  -3    3.62    7.71
  10  -1   4   12.00    7.43
 -10  -1  -4   16.76    8.57
  10   1   4    9.62    8.28
 -10   1  -4    0.38    7.71
  10  -1   5   36.00    8.95
 -10   1   5    7.62    2.67
 -10  -1  -5   26.95    8.86
  10   1   5    6.09    7.43
  10  -1  -5   11.52    3.24
 -10   1  -5   21.43    8.67
  10  -1   6   17.52    7.71
 -10   1   6    2.29    3.43
  10   1  -6   17.71    4.76
 -10  -1  -6    0.86    6.95
  10   1   6    9.71    7.24
 -10  -1   6   14.19    4.48
  10  -1  -6   15.71    4.00
 -10   1  -6    8.67    7.14
  10  -1   7   30.76    9.24
 -10   1   7   21.81    5.24
  10   1  -7   17.43    4.86
 -10  -1  -7    4.19    7.71
  10   1   7    8.67    8.19
 -10  -1   7   16.57    4.76
  10  -1  -7   19.05    5.05
 -10   1  -7   32.47    9.33
  10  -1   8    7.24    8.48
 -10   1   8    1.24    5.24
  10   1  -8    0.76    4.57
 -10  -1  -8    2.29    8.48
  10   1   8   -0.95    8.86
 -10  -1   8    2.57    4.57
  10  -1  -8   -2.48    5.71
 -10   1  -8   -1.05    8.48
 -10   1   9   87.61   11.71
  10   1  -9   62.09    9.33
 -10  -1  -9   31.52   10.57
  10   1   9   56.57   12.38
 -10  -1   9   77.52   10.86
  10  -1  -9   66.85   10.76
 -10   1  -9   66.85   13.24
  10  -1  10    1.24    8.95
 -10   1  10    4.00    6.29
  10   1 -10    3.05    5.71
 -10  -1 -10   -3.52    8.67
  10   1  10   -9.14    8.67
 -10  -1  10   -7.71    5.81
  10  -1 -10   -3.43    7.14
 -10   1 -10    7.62    8.95
  10  -1  11    3.71    7.52
 -10   1  11   -0.67    5.24
  10   1 -11    6.19    5.71
 -10  -1 -11   23.14    9.52
  10   1  11    9.81    7.90
 -10  -1  11    0.29    5.33
 -10   1 -11   20.57    9.24
  10  -1  12   -4.00    6.76
 -10   1  12    2.95    4.95
  10   1 -12   -1.52    4.76
 -10  -1 -12   10.57    7.81
  10   1  12    0.29    7.52
 -10  -1  12   -2.38    5.14
  10  -1 -12   -1.71    6.29
 -10   1 -12   -2.57    7.43
  10  -1  13    2.19    7.14
 -10   1  13    0.29    4.76
  10   1 -13   -0.10    4.38
 -10  -1 -13    6.00    7.05
  10   1  13    3.05    7.05
 -10  -1  13    6.86    5.43
  10  -1 -13   -3.05    5.43
 -10   1 -13    6.67    6.48
  10  -1  14   -2.38    5.90
 -10   1  14    0.86    4.67
  10   1 -14    7.14    5.52
 -10  -1 -14    2.48    6.38
  10   1  14   -1.14    5.81
 -10  -1  14    5.24    5.43
  10  -1 -14   -0.57    5.05
 -10   1 -14   -7.05    5.81
  10  -1  15   -1.62    6.09
 -10   1  15   -1.43    4.67
  10   1 -15   -5.05    4.86
 -10  -1 -15   -5.43    6.57
  10   1  15   -0.48    5.90
 -10  -1  15   22.76    6.95
  10  -1 -15    1.24    5.43
 -10   1 -15    2.67    6.76
  10  -1  16    0.76    6.29
 -10   1  16    3.81    5.05
  10   1 -16   -2.76    4.95
 -10  -1 -16   -2.38    6.57
  10   1  16   -0.38    6.57
 -10  -1  16   -1.24    5.05
  10  -1 -16    2.10   12.47
 -10   1 -16   -1.71    6.48
  10  -2   0  454.91   44.85
 -10   2   0  497.95   49.04
  10  -2   1   35.90    7.90
 -10   2   1   46.09    7.05
 -10  -2  -1   66.28   10.95
  10  -2  -1   29.33    5.90
 -10   2  -1   32.76    8.38
  10  -2   2   69.99   10.95
  10   2   2   46.57    9.43
  10  -2  -2   77.61    8.95
  10  -2   3   14.95    7.52
 -10  -2  -3    9.62    8.38
  10   2   3   14.00    7.81
  10  -2   4   16.86    7.71
 -10  -2  -4   35.62    9.52
  10   2   4   20.00    8.28
 -10   2  -4   27.62    9.05
  10  -2   5    7.33    7.24
 -10  -2  -5    6.19    7.81
  10   2   5   23.24    7.71
 -10   2  -5   12.95    8.67
  10  -2   6    5.43    7.52
 -10   2   6    6.86    3.81
 -10  -2  -6    4.38    7.14
  10   2   6   -2.76    7.33
  10  -2  -6   11.71    3.90
 -10   2  -6    0.67    7.62
  10  -2   7   18.76    8.76
 -10   2   7   26.38    5.43
  10   2  -7   48.38    7.62
 -10  -2  -7   17.62    8.19
  10   2   7   32.28    9.71
 -10  -2   7   26.57    6.00
  10  -2  -7   32.57    6.09
 -10   2  -7   24.76    9.33
  10  -2   8   39.52   10.86
 -10   2   8   50.09    8.09
  10   2  -8   26.38    6.57
 -10  -2  -8   24.95    9.52
  10   2   8   51.42   12.00
 -10  -2   8   33.52    6.67
  10  -2  -8   44.00    7.81
 -10   2  -8   30.95   10.09
  10  -2   9    5.43    9.33
 -10   2   9    7.14    6.29
  10   2  -9   12.76    6.29
 -10  -2  -9   12.28    9.14
  10   2   9    8.67    9.14
 -10  -2   9   11.52    6.29
  10  -2  -9    9.05    6.57
 -10   2  -9   -4.57    9.14
  10  -2  10   32.66   10.95
 -10   2  10   34.09    8.00
  10   2 -10   36.76    8.09
 -10  -2 -10   38.66   11.33
  10   2  10   49.42   11.81
 -10  -2  10   46.28    8.57
  10  -2 -10   35.33    8.48
 -10   2 -10   18.66    9.81
  10  -2  11    7.90    7.90
 -10   2  11    3.05    5.14
  10   2 -11    2.10    5.81
 -10  -2 -11    0.95    8.28
  10   2  11   -5.71    6.95
 -10  -2  11    4.00    5.62
  10  -2 -11    5.05    5.52
 -10   2 -11   -0.86    8.48
  10  -2  12   -2.29    7.05
 -10   2  12    6.09    5.33
  10   2 -12   -4.48    4.86
 -10  -2 -12    3.62    7.43
  10   2  12    5.33    7.52
 -10  -2  12    5.24    4.95
  10  -2 -12   -0.57    5.43
 -10   2 -12    0.10    7.43
  10  -2  13   13.05    8.00
 -10   2  13    2.00    5.14
  10   2 -13    5.62    4.86
 -10  -2 -13   -0.19    6.29
  10   2  13   -3.81    7.05
 -10  -2  13    2.00    4.76
  10  -2 -13    5.71    5.43
 -10   2 -13   -3.14    6.38
  10  -2  14    4.76    6.29
 -10   2  14   -0.10    4.57
  10   2 -14   -0.29    4.57
 -10  -2 -14    6.76    6.38
  10   2  14    2.86    6.09
 -10  -2  14    0.86    4.57
  10  -2 -14    2.67    4.95
 -10   2 -14   11.81    7.24
  10  -2  15   -2.67    6.00
 -10   2  15    6.76    5.05
  10   2 -15   -0.29    4.86
 -10  -2 -15    1.52    6.86
  10   2  15    4.86    6.57
 -10  -2  15   -0.67    5.14
  10  -2 -15    2.10    4.95
 -10   2 -15    1.43    6.76
  10  -2  16   -4.00    6.29
 -10   2  16    3.90   17.05
  10   2 -16    5.90    5.33
 -10  -2 -16    7.14    7.33
  10   2  16    7.52    7.33
 -10  -2  16    1.43    5.24
  10  -2 -16    4.09   18.86
 -10   2 -16   14.47   11.24
  10  -3   0   95.13   11.71
 -10   3   0  107.51   13.14
  10  -3   1   75.14   10.48
 -10   3   1   77.33   10.09
  10  -3  -1   72.09    9.24
  10  -3   2   -0.76    6.00
 -10   3  -2    9.43    6.86
  10  -3   3   14.38    6.95
 -10  -3  -3   19.24    8.67
  10   3   3   38.85    9.24
 -10   3  -3   14.95    7.62
  10  -3   4   27.33    7.81
 -10  -3  -4    3.52    8.38
  10   3   4   13.52    7.71
 -10   3  -4   27.52    8.57
 -10  -3  -5  254.93   28.47
  10   3   5  280.92   30.47
 -10   3  -5  193.89   22.28
  10  -3   6   14.09    7.52
 -10  -3  -6   37.04    9.71
  10   3   6   32.76    9.43
 -10   3  -6   12.19    7.90
  10  -3   7   14.09    8.09
 -10  -3  -7    4.67    7.71
  10   3   7   11.43    8.48
 -10   3  -7    0.95    7.81
  10  -3   8   17.62    9.24
 -10   3   8    8.67    5.81
 -10  -3  -8   16.19    8.57
  10   3   8   -3.71    8.67
 -10  -3   8   -2.29    5.71
  10  -3  -8    0.86    5.62
 -10   3  -8    5.52    8.28
  10  -3   9   56.38   12.47
 -10   3   9   27.90    7.52
  10   3  -9   27.43    7.62
 -10  -3  -9   47.52   11.62
  10   3   9   59.61   12.67
  10  -3  -9   33.33    8.09
  10  -3  10   15.71    8.95
 -10   3  10    3.33    6.09
  10   3 -10    6.67    6.29
 -10  -3 -10   -2.76    8.76
  10   3  10    9.43    8.67
 -10  -3  10   -5.14    6.00
  10  -3 -10   -5.05    6.38
 -10   3 -10   -9.81    8.76
  10  -3  11   11.24    8.09
 -10   3  11   -1.05    4.95
  10   3 -11   -7.05    5.52
 -10  -3 -11    5.33    7.81
  10   3  11   -2.19    7.52
 -10  -3  11    6.76    6.00
  10  -3 -11   -3.24    5.33
 -10   3 -11    0.19    8.38
  10  -3  12    0.29    6.86
 -10   3  12    4.76    5.14
  10   3 -12    2.38    4.95
 -10  -3 -12    3.90    7.43
  10   3  12   -0.76    7.33
 -10  -3  12    7.43    5.33
  10  -3 -12    0.19    5.33
 -10   3 -12    0.86    7.33
  10  -3  13   10.57    7.33
 -10   3  13    3.62    5.05
  10   3 -13   11.62    5.62
 -10  -3 -13    4.86    7.05
  10   3  13   -0.48    6.57
 -10  -3  13   -0.29    4.76
  10  -3 -13    2.86    5.14
 -10   3 -13    5.52    6.86
  10  -3  14    0.57    6.09
 -10   3  14   -1.81    4.67
  10   3 -14    1.62    4.67
 -10  -3 -14    0.76    5.81
  10   3  14    1.81  111.70
 -10  -3  14   -2.95    7.81
  10  -3 -14   -5.33    4.57
 -10   3 -14    2.00    6.38
  10  -3  15   -0.29    6.09
 -10   3  15   -1.90    4.67
  10   3 -15    0.67    4.86
 -10  -3 -15   -3.05    5.71
  10   3  15    3.71    6.09
 -10  -3  15   -0.10    4.76
  10  -3 -15    2.38    5.24
 -10   3 -15   -4.19    6.95
  10  -3  16    0.48    6.48
 -10   3  16    2.19    5.14
  10   3 -16    5.05    4.95
 -10  -3 -16    9.33    6.76
  10   3  16    2.29    6.00
 -10  -3  16    6.67    5.33
  10  -3 -16    1.33    5.14
 -10   3 -16    4.38    7.14
  10  -4   0  126.27   14.76
 -10   4   0   91.42   12.19
  10  -4   1    0.76    5.81
 -10   4  -1    8.09    6.76
  10  -4   2   33.04    7.71
 -10   4  -2   39.52    8.67
  10  -4   3    3.05    6.09
 -10   4  -3    6.95    7.05
  10  -4   4   -2.67    6.38
 -10   4  -4    2.38    7.52
  10  -4   5    4.57    6.19
 -10  -4  -5   22.19    8.76
  10   4   5    4.38    7.52
 -10   4  -5    6.95    6.95
  10  -4   6    6.76    6.48
 -10  -4  -6    4.95    8.19
  10   4   6    8.38    7.71
 -10   4  -6    7.14    6.86
  10  -4   7   -2.00    6.38
 -10  -4  -7    2.19    8.76
  10   4   7   -8.57    8.19
 -10   4  -7    2.00    6.86
  10  -4   8   -1.33    7.33
 -10  -4  -8    2.76    8.86
  10   4   8   -6.86    8.57
 -10   4  -8   11.71    7.90
  10  -4   9    9.43    9.05
 -10  -4  -9    5.62    9.33
  10   4   9   -0.95    9.81
 -10  -4   9    8.95    7.05
  10  -4  -9   25.24    7.81
 -10   4  -9   -3.52    7.52
  10  -4  10   12.95    8.86
 -10   4  10    1.71    6.29
  10   4 -10   13.90    7.24
 -10  -4 -10   -3.90    7.90
  10   4  10   -3.43    8.09
 -10  -4  10    2.76    6.76
  10  -4 -10    4.09    6.38
 -10   4 -10    2.67    7.81
  10  -4  11    1.90    7.62
 -10   4  11    1.81    5.62
  10   4 -11    7.24    6.48
 -10  -4 -11    3.05    7.71
  10   4  11    3.05    7.24
 -10  -4  11   -3.14    5.71
  10  -4 -11    2.19    5.52
 -10   4 -11   -3.52    7.81
  10  -4  12   -3.14    6.38
 -10   4  12   -0.10    5.43
  10   4 -12    4.09    5.24
 -10  -4 -12    4.19    7.05
  10   4  12    6.09    7.71
 -10  -4  12    3.90    4.76
  10  -4 -12    3.33    5.33
 -10   4 -12    7.33    7.43
  10  -4  13   17.43    7.81
 -10   4  13    1.33   14.00
  10   4 -13   -1.62    4.76
 -10  -4 -13   -1.90    6.29
  10   4  13    0.00    6.67
 -10  -4  13   -0.38    4.57
  10  -4 -13   -1.81    4.57
 -10   4 -13   -3.62    6.29
  10  -4  14    1.71    6.29
 -10   4  14   -0.48    4.48
  10   4 -14    5.14    5.33
 -10  -4 -14    6.48    6.09
  10   4  14    1.71    5.81
 -10  -4  14    1.71    4.95
  10  -4 -14   -2.57    4.86
 -10   4 -14   -1.90    6.19
  10  -4  15   -3.05    6.19
 -10   4  15   -2.00    4.76
  10   4 -15   -2.00    5.14
 -10  -4 -15    4.29    6.67
  10   4  15    6.67    7.05
 -10  -4  15   -2.29    4.57
  10  -4 -15   -1.14    4.86
 -10   4 -15    3.24    6.67
  10  -4  16    8.09    6.48
 -10   4  16    1.05    4.95
  10   4 -16    3.71    5.05
 -10  -4 -16    4.86    6.57
  10   4  16   11.14    6.86
 -10  -4  16   -2.57    5.62
  10  -4 -16   -1.05    4.95
 -10   4 -16    8.95    7.14
  10  -5   1  586.80   57.90
 -10   5  -1  453.76   45.61
  10  -5   3   42.76    8.76
 -10   5  -3   30.38    8.57
  10  -5   4    2.38    6.48
 -10   5  -4    8.28    6.95
  10  -5   5    6.29    6.48
 -10   5  -5    9.14    7.33
  10  -5   6    3.90    6.19
 -10  -5  -6    2.29    8.19
 -10   5  -6   13.52    7.14
  10  -5   7   32.28    8.57
 -10   5  -7   32.19    8.95
  10  -5   8    8.19    7.90
 -10  -5  -8    7.05    9.14
  10   5   8   16.47    9.33
 -10   5  -8   -2.19    7.52
  10  -5   9  802.11   80.09
 -10  -5  -9  727.26   73.90
  10   5   9  832.20   83.52
 -10   5  -9  911.81   90.56
  10  -5  10    5.33    7.43
 -10  -5 -10    5.71    8.95
  10   5  10    7.71    8.28
 -10  -5  10    9.05    6.95
 -10   5 -10   12.28    8.19
  10  -5  11   12.00    7.14
 -10   5  11   16.19    6.29
  10   5 -11    6.48    6.38
 -10  -5 -11   16.38    8.95
  10   5  11    2.19    7.43
 -10  -5  11   12.57    6.57
 -10   5 -11   15.43    7.90
  10  -5  12    1.52    5.71
 -10   5  12   10.00    5.90
  10   5 -12    3.90    5.33
 -10  -5 -12    2.86    7.62
  10   5  12    8.38    8.86
 -10  -5  12   -0.67    4.48
  10  -5 -12    4.57    5.62
 -10   5 -12    3.33    6.57
  10  -5  13   10.95    7.24
 -10   5  13   32.00    7.33
  10   5 -13   -0.76    4.86
 -10  -5 -13    6.19   27.90
  10   5  13    1.43    6.29
 -10  -5  13    3.24    5.05
  10  -5 -13    1.33    5.43
 -10   5 -13    4.38    6.09
  10  -5  14   -1.24    6.48
 -10   5  14    4.57    7.24
  10   5 -14    2.67    4.86
 -10  -5 -14    2.57    6.19
  10   5  14    0.86    6.48
 -10  -5  14    1.52    4.76
  10  -5 -14   -4.48    4.57
 -10   5 -14    1.71    6.00
  10  -5  15    3.33    6.38
 -10   5  15    1.90    4.95
  10   5 -15    5.43    5.71
 -10  -5 -15    2.10    6.48
  10   5  15    3.52    6.19
 -10  -5  15    0.38    4.86
  10  -5 -15    2.48    5.14
 -10   5 -15    3.90    5.90
  10  -5  16    0.19    6.19
 -10   5  16   -2.10    4.86
  10   5 -16    3.05    5.62
 -10  -5 -16    9.62    6.86
  10   5  16    5.05    6.67
 -10  -5  16   -3.62    5.05
  10  -5 -16    3.71    5.33
 -10   5 -16    5.62    7.14
  10  -6   2    2.95    6.76
 -10   6  -2   10.86    6.95
  10  -6   3    9.71    7.14
 -10   6  -3    2.48    7.05
  10  -6   4    1.24    6.57
 -10   6  -4   13.14    7.43
  10  -6   5    6.38    6.48
 -10   6  -5   -6.86    6.67
  10  -6   6    5.71    6.76
 -10   6  -6   27.71    8.38
  10  -6   7    3.24    6.95
 -10   6  -7    4.86    7.33
  10  -6   8   10.38    7.81
 -10  -6  -8   10.19    9.71
 -10   6  -8   28.09    9.43
  10  -6   9    6.48    7.33
 -10  -6  -9    2.95    9.90
  10   6   9   -3.81    9.52
 -10   6  -9    8.67    7.52
  10  -6  10   29.43    8.67
 -10  -6 -10   20.66    9.81
  10   6  10   30.38    9.62
 -10   6 -10   32.95    9.24
  10  -6  11   -5.43    6.19
 -10  -6 -11    4.76    8.09
  10   6  11   -6.95    7.52
 -10  -6  11   -1.43    5.71
 -10   6 -11  -10.57    6.29
  10   6 -12    2.29    5.33
 -10  -6 -12    4.67    7.81
  10   6  12    0.00    8.28
 -10  -6  12    6.19    5.43
  10  -6 -12    2.57    6.00
  10  -6  13   -1.05    5.90
 -10   6  13   -1.81    4.95
  10   6 -13    4.29    5.71
 -10  -6 -13    0.38    6.67
  10   6  13    3.90    6.67
 -10  -6  13   -0.57    5.24
  10  -6 -13   -0.86    4.95
 -10   6 -13    2.67    5.52
  10  -6  14   -0.19    5.62
 -10   6  14    0.00    5.24
  10   6 -14   10.28    6.09
 -10  -6 -14    9.14    6.95
  10   6  14    0.29    6.29
 -10  -6  14    2.38    4.86
  10  -6 -14   -2.95    4.76
 -10   6 -14    0.29    5.62
  10  -6  15    0.95    5.81
 -10   6  15    1.81    5.14
  10   6 -15    3.52    5.43
 -10  -6 -15    1.90  589.37
  10   6  15    6.38    6.86
 -10  -6  15   -3.05    5.24
  10  -6 -15    0.19    5.33
 -10   6 -15   -2.67    5.43
  10  -6  16   -2.57    6.29
 -10   6  16   -1.52    5.05
  10   6 -16   -0.48    5.14
 -10  -6 -16    0.76    6.76
  10   6  16   -1.62   11.05
 -10  -6  16   -0.57    4.76
  10  -6 -16    2.19    4.95
 -10   6 -16    4.19    6.09
  10  -7   4   -2.38    6.86
 -10   7  -4    5.52    7.24
  10  -7   5    7.33    6.76
 -10   7  -5    8.57    6.95
  10  -7   6   13.14    6.86
 -10   7  -6    9.71    7.14
  10  -7   7   19.24    8.00
 -10   7  -7   11.24    7.81
  10  -7   8   -1.33    7.43
 -10   7  -8   -0.76    7.71
  10  -7   9    6.00    7.90
 -10  -7  -9   13.33    9.24
 -10   7  -9   17.71    8.67
  10  -7  10   -2.86    6.48
 -10  -7 -10    7.90    8.95
  10   7  10    3.62    7.71
 -10   7 -10   15.71    7.90
  10  -7  11    1.90    6.29
 -10  -7 -11   29.43   10.28
  10   7  11   17.81    8.86
 -10   7 -11   12.19    6.67
  10  -7  12    1.14    5.14
 -10  -7 -12    5.90    7.33
  10   7  12    7.33    7.81
 -10  -7  12    1.81    5.52
 -10   7 -12    5.14    6.95
  10  -7  13    1.24    5.81
  10   7 -13    7.71    5.90
 -10  -7 -13   -3.33    7.14
  10   7  13   11.90    7.24
 -10  -7  13   -4.48    5.71
 -10   7 -13   -0.86    5.90
  10  -7  14    0.48    6.09
  10   7 -14    1.71    5.71
 -10  -7 -14    8.67    6.86
  10   7  14   12.09    7.52
 -10  -7  14    6.00    5.81
  10  -7 -14    3.05    5.52
 -10   7 -14   -1.43    6.29
  10  -7  15    9.62    6.09
 -10   7  15    5.81    5.24
  10   7 -15    1.52    5.62
 -10  -7 -15    0.86    6.86
  10   7  15   -4.19    6.09
 -10  -7  15   -1.81    4.95
  10  -7 -15   -0.29    6.57
 -10   7 -15    0.29    6.09
 -10   7  16    1.14    8.09
  10   7 -16    1.24    5.62
 -10  -7 -16   -2.86    6.29
  10   7  16    6.76   10.19
 -10  -7  16    6.67    5.62
  10  -7 -16    5.81   17.33
 -10   7 -16    1.14    6.38
  10  -8   3    8.48    7.24
  10  -8   5   10.86    7.71
 -10   8  -5   18.57    7.81
  10  -8   6   82.28   12.47
 -10   8  -6  103.89   15.05
  10  -8   7   10.57    7.90
 -10   8  -7   -3.52    7.81
  10  -8   9    0.57    7.43
 -10   8  -9   -5.52    8.00
  10  -8  10    8.95    6.76
 -10   8 -10   -5.52    7.05
  10  -8  11    6.19    6.38
 -10  -8 -11    2.86    7.71
 -10   8 -11    4.95    5.90
  10  -8  12    3.52    5.62
 -10  -8 -12   18.00    8.67
  10   8  12    7.14    7.24
 -10   8 -12   12.95    7.14
  10  -8  13    2.76    5.71
 -10  -8 -13    2.19    7.24
  10   8  13   -1.05    6.29
 -10  -8  13    2.95    5.52
 -10   8 -13   -5.71    5.62
  10  -8  14   -2.00    5.43
  10   8 -14    4.86    5.52
 -10  -8 -14   -1.43    6.95
  10   8  14   18.66    8.00
 -10  -8  14    0.10    5.71
 -10   8 -14    8.28    6.19
  10  -8  15   -2.38    5.05
  10   8 -15    4.19    5.71
 -10  -8 -15   -1.43    6.57
  10   8  15    2.57    6.38
 -10  -8  15   -6.00    5.33
  10  -8 -15    3.81    5.52
 -10   8 -15   -1.14    4.95
 -10  -8  16   -0.48    5.43
  10  -9   4    8.28    7.52
  10  -9   5    8.95    7.14
 -10   9  -5    9.52    7.81
  10  -9   6    2.29    7.81
 -10   9  -6   -1.05    8.00
  10  -9   7    5.24    8.19
 -10   9  -7   -0.38    8.67
  10  -9   8    7.81    7.81
 -10   9  -8    4.19    8.28
  10  -9   9   20.66    8.57
 -10   9  -9   18.09    8.67
  10  -9  10    0.00    6.00
 -10   9 -10   10.38    7.05
  10  -9  11    4.57    5.81
 -10   9 -11    5.05    5.90
  10  -9  12    1.33    5.33
 -10   9 -12    7.43    6.86
  10  -9  13    5.90    6.38
 -10  -9 -13   -3.05    6.29
 -10   9 -13   -3.33    6.09
  10  -9  14    4.00    6.00
 -10  -9 -14    0.10    6.67
  10   9  14    6.38    6.95
 -10  -9  14    0.00    5.62
 -10   9 -14   -6.29    5.52
  10  -9  15   -2.57    5.14
  10   9 -15   -1.71    5.81
 -10  -9 -15   10.67    7.81
  10   9  15    0.38    6.29
 -10  -9  15    6.86    6.19
 -10   9 -15    2.19    5.43
  10 -10   5   -4.67    7.71
  10 -10   6   48.57   11.05
 -10  10  -6   55.23   11.71
  10 -10   7    0.86    8.28
 -10  10  -7   14.57    8.95
  10 -10   8  123.32   17.62
 -10  10  -8   92.56   16.00
  10 -10   9   -4.29    6.95
 -10  10  -9    7.71    7.71
  10 -10  10   15.52    7.24
 -10  10 -10   14.86    7.43
  10 -10  11    9.05    5.62
 -10  10 -11    5.43    6.09
  10 -10  12    0.95    5.33
 -10  10 -12    3.05    6.48
  10 -10  13    7.81    6.38
 -10  10 -13   -2.29    6.19
  10 -10  14    0.48    6.48
 -10 -10 -14   12.76    7.90
 -10  10 -14    7.14    6.29
  10 -10  15    2.95    6.00
 -10 -10 -15    5.24    7.52
 -10 -10  15   -6.67    5.43
 -10  10 -15   -0.95    6.00
  10 -11   6   -1.05    8.38
  10 -11   7   11.71    8.76
 -10  11  -7   -4.67    8.67
  10 -11   8   -1.33    8.00
 -10  11  -8    2.29    8.48
  10 -11   9   -2.00    7.33
 -10  11  -9   -2.19    7.05
  10 -11  10    3.52    6.00
 -10  11 -10    5.81    6.38
  10 -11  11    0.67    5.43
 -10  11 -11   13.43    6.76
  10 -11  12    1.24    5.24
 -10  11 -12   -2.00    6.00
  10 -11  13    6.76    5.71
 -10  11 -13   -0.29    6.29
  10 -11  14   -2.00    6.19
 -10  11 -14   -0.76    5.52
 -10  11 -15    0.57    6.38
  10 -12   7   23.14    9.62
  10 -12   8    6.67    7.71
 -10  12  -8   -0.48    7.62
  10 -12   9    3.33    6.86
 -10  12  -9    0.57    6.86
  10 -12  10   -1.14    6.29
 -10  12 -10    3.90    6.57
  10 -12  11    4.76    6.09
 -10  12 -11    4.67    6.09
  10 -12  12   -0.57    5.52
 -10  12 -12   -3.24    6.00
  10 -12  13    3.43    5.71
 -10  12 -13    2.38    6.48
  10 -12  14    2.67    5.81
 -10  12 -14    1.52    6.38
  10 -13   8    4.67    6.86
  10 -13   9    5.90    6.76
 -10  13  -9    1.90    6.48
  10 -13  10    4.67    6.48
 -10  13 -10   16.00    7.14
  10 -13  11    3.81    6.09
 -10  13 -11    6.29    6.38
  10 -13  12   10.00    6.67
 -10  13 -12    1.90    6.57
  10 -13  13    7.24    6.00
 -10  13 -13   -5.52    6.48
 -10  13 -14    9.62    7.05
  10 -14   9   -1.33    6.48
  10 -14  10    3.33    6.95
 -10  14 -10   -0.19    6.29
  10 -14  11   -0.10    6.09
 -10  14 -11    4.48    6.38
  10 -14  12    0.67    6.19
 -10  14 -12    2.48    6.67
  10 -14  13   -5.62    6.00
 -10  14 -13    3.71    6.95
  10 -15  10    3.14    6.48
  10 -15  11    8.76    6.57
 -10  15 -11   -1.43    6.00
  10 -15  12    2.95    6.48
 -10  15 -12    0.67    6.19
  10 -15  13   24.19    9.62
 -10  15 -13   29.43   10.00
  10 -16  11   -2.19    6.57
  10 -16  12   -1.81    6.09
 -10  16 -12   -5.90    5.81
  11   0   0   -6.38    6.57
 -11   0   0   -1.81    6.76
  11   0   1  199.98   21.81
 -11   0   1  181.22   19.14
  11   0  -1  186.93   19.71
 -11   0  -1  191.03   21.05
 -11   0   2  444.43   43.23
  11   0  -2  357.77   35.14
  11   0   3  184.08   21.05
 -11   0  -3  180.93   21.14
  11   0   4   51.71    9.90
 -11   0  -4   62.57   10.67
  11   0   5   25.71    8.09
 -11   0  -5   33.04    8.76
  11   0   6  993.23   97.80
 -11   0   6  659.93   63.61
  11   0  -6  683.07   65.71
  11   0   7  102.85   15.71
 -11   0  -7   82.37   14.09
 -11   0   8   45.04    7.62
  11   0  -8   50.57    7.71
 -11   0  -8   27.24   10.76
 -11   0   9   24.95    6.95
  11   0  -9   20.19    6.29
  11   0  10  113.80   16.86
 -11   0  10   67.80   10.38
  11   0 -10   72.47   10.76
 -11   0 -10  121.51   17.43
  11   0  11   12.76    7.43
 -11   0  11   18.00    6.09
  11   0 -11    4.86    6.00
 -11   0 -11   26.95    8.76
  11   0  12   20.95    7.90
 -11   0  12    6.48    5.52
 -11   0 -12    9.24    8.19
  11   0  13   24.28    8.48
  11   0 -13   13.43    6.09
 -11   0 -13   25.05    8.67
 -11   0  14    3.43    4.95
  11   0 -14   -2.38    4.76
 -11   0 -14   28.00    9.14
 -11   0  15   15.14    6.38
  11   0 -15    6.19    5.43
  11   0  16    5.62    6.57
 -11   0  16    2.29    5.43
  11   0 -16    1.05    5.24
 -11   0 -16    7.90    7.52
 -11  -1   0   18.57    7.05
  11  -1   0    8.28    5.90
 -11   1   0    0.10    6.09
  11  -1   1   22.38    6.86
 -11   1   1   18.00    5.71
 -11  -1  -1    3.14    6.86
  11   1   1   38.09    8.38
  11  -1  -1   24.38    5.90
 -11   1  -1   16.28    7.05
  11  -1   2   17.14    7.24
 -11   1   2   21.62    4.76
 -11  -1  -2   10.67    7.33
  11   1   2   17.05    7.43
  11  -1  -2    9.81    4.38
 -11   1  -2   13.14    7.52
  11  -1   3   24.00    8.28
 -11   1   3   57.33    6.57
 -11  -1  -3   25.62    8.57
  11   1   3   32.85    8.57
  11  -1  -3   31.52    4.48
 -11   1  -3   32.47    8.86
  11  -1   4   -7.81    6.95
 -11   1  -4    9.52    6.95
  11  -1   5    0.00    6.67
 -11   1   5   10.09    2.29
 -11  -1  -5   -1.43    6.57
  11   1   5   -4.29    6.95
  11  -1  -5    2.67    2.19
 -11   1  -5   -2.38    6.76
  11  -1   6   26.00    8.76
 -11   1   6   16.19    3.81
 -11  -1  -6   20.28    8.19
  11   1   6   12.28    7.90
  11  -1  -6   22.38    4.00
 -11   1  -6   10.95    7.62
  11  -1   7    5.90    8.09
 -11   1   7    5.43    4.38
  11   1  -7   15.71    4.95
 -11  -1  -7    1.62    8.76
  11   1   7   22.47    9.62
 -11  -1   7   24.09    5.43
  11  -1  -7   18.57    4.67
 -11   1  -7   22.28    9.14
  11  -1   8   33.04   10.19
 -11   1   8   26.09    6.29
  11   1  -8   33.62    6.48
 -11  -1  -8    5.24    9.14
  11   1   8    5.33    9.05
 -11  -1   8   25.81    6.09
 -11   1  -8   40.09   11.14
  11  -1   9   10.00    9.81
 -11   1   9    1.24    6.09
  11   1  -9    4.86    5.52
 -11  -1  -9    0.76    9.14
  11   1   9   -5.90    9.43
 -11  -1   9    8.86    5.71
  11  -1  -9   -1.14    6.29
 -11   1  -9    9.81    9.33
  11  -1  10    5.24    7.62
 -11   1  10    2.86    5.62
  11   1 -10    1.52    5.43
 -11  -1 -10    3.62    8.38
  11   1  10    0.86    7.90
 -11  -1  10   -5.71    5.52
  11  -1 -10   -2.57    5.81
 -11   1 -10   13.52    8.38
  11  -1  11   17.71    8.19
 -11   1  11   15.81    5.81
  11   1 -11    3.24    5.05
 -11  -1 -11    9.33    7.43
  11   1  11   13.62    7.52
 -11  -1  11    7.14    5.52
  11  -1 -11   18.76    6.48
 -11   1 -11   10.86    8.00
  11  -1  12   -8.76    7.14
 -11   1  12    5.24    5.14
  11   1 -12   -0.38    4.67
 -11  -1 -12    6.67    8.28
  11   1  12    9.43    6.76
 -11  -1  12    6.76    4.95
  11  -1 -12    5.33    5.71
 -11   1 -12   -1.33    6.76
  11  -1  13   18.76    8.38
 -11   1  13   11.33    5.05
  11   1 -13   -1.81    4.38
 -11  -1 -13    2.86    6.67
  11   1  13   -0.95    6.57
 -11  -1  13    7.33    5.14
  11  -1 -13    0.48    4.86
 -11   1 -13    6.38    6.86
  11  -1  14    8.00    7.33
 -11   1  14   -0.76    4.48
  11   1 -14    4.09    4.86
 -11  -1 -14    0.48    5.81
  11   1  14    1.90    6.29
 -11  -1  14    1.05    4.67
  11  -1 -14    3.52    4.86
 -11   1 -14   -6.95    6.09
  11  -1  15   -4.09   16.86
 -11   1  15    2.76    4.67
  11   1 -15    0.67    5.05
 -11  -1 -15    6.95    6.76
  11   1  15   -1.33    6.00
 -11  -1  15    1.33    5.14
  11  -1 -15    8.57    5.33
 -11   1 -15    2.38    5.90
  11  -1  16    4.38    6.57
 -11   1  16   -1.24    4.67
  11   1 -16    0.95    5.05
 -11  -1 -16   -0.67    6.19
  11   1  16   -1.62    6.09
 -11  -1  16    6.38    5.52
  11  -1 -16   -1.14    7.05
 -11   1 -16   -2.95    6.09
  11  -2   0    4.76    5.52
 -11   2   0   -5.14    5.62
  11  -2   1   19.71    6.76
 -11   2   1   16.28    5.33
 -11  -2  -1   13.33    7.62
  11   2   1   31.23    8.48
  11  -2  -1    3.81    4.57
 -11   2  -1   15.90    7.14
  11  -2   2    7.24    6.76
 -11   2   2   11.81    4.19
 -11  -2  -2   11.81    7.90
  11   2   2   19.62    7.90
 -11   2  -2   44.57    9.43
  11  -2   3    1.81    6.76
 -11   2   3   -3.43    3.05
 -11  -2  -3    9.05    7.14
  11   2   3    0.19    6.86
  11  -2  -3    4.57    2.95
 -11  -2  -4   40.57    9.05
  11   2   4   63.61   11.05
 -11   2  -4   34.95    8.48
  11  -2   5   -4.67    6.95
 -11  -2  -5    3.90    7.05
  11   2   5   -1.52    6.86
 -11   2  -5    0.19    6.76
  11  -2   6   10.76    8.00
 -11  -2  -6   10.28    7.81
  11   2   6    2.57    7.24
  11  -2  -6    4.48    3.24
 -11   2  -6   11.24    7.90
  11  -2   7   -4.19    7.90
 -11   2   7   -3.62    4.29
 -11  -2  -7   -7.05    8.09
  11   2   7   15.81    9.33
 -11   2  -7    8.76    8.48
  11  -2   8    4.38    8.86
 -11   2   8    4.29    5.24
  11   2  -8    3.90    6.00
 -11  -2  -8    3.33    8.95
  11   2   8   20.00    9.81
 -11  -2   8   14.09    6.09
  11  -2  -8    2.95    5.33
 -11   2  -8   -3.33    9.14
  11  -2   9    7.71    9.81
 -11   2   9   18.28    6.48
  11   2  -9    1.14    5.62
 -11  -2  -9    5.90    9.33
  11   2   9   22.28   10.19
 -11  -2   9   10.00    5.81
  11  -2  -9    9.43    6.76
 -11   2  -9    3.43    9.62
  11  -2  10   -6.86    8.19
 -11   2  10    6.09    5.52
  11   2 -10   20.57    6.67
 -11  -2 -10    4.95    8.09
  11   2  10    4.86    8.28
 -11  -2  10    5.71    6.00
  11  -2 -10    3.33    5.71
 -11   2 -10   -7.05    8.38
  11  -2  11   11.62    7.71
 -11   2  11    3.24    4.95
  11   2 -11   -0.95    5.33
 -11  -2 -11   -1.62    7.24
  11   2  11   -2.00    6.76
 -11  -2  11    8.57    5.52
  11  -2 -11   -1.62    5.43
 -11   2 -11   -1.05    7.62
  11  -2  12   16.57    7.62
 -11   2  12   13.24    5.43
  11   2 -12   12.95    5.14
 -11  -2 -12   17.62    9.24
  11   2  12    8.28    7.71
 -11  -2  12   27.43    6.38
  11  -2 -12    7.43    5.81
 -11   2 -12    6.19    7.71
  11  -2  13   14.09    7.52
 -11   2  13    0.67   12.47
  11   2 -13   -1.52    4.29
 -11  -2 -13   10.57    7.43
  11   2  13   14.28    7.71
 -11  -2  13   -2.29    4.48
  11  -2 -13    0.57    4.76
 -11   2 -13    7.81    7.52
  11  -2  14    5.81    7.05
 -11   2  14    0.19    4.38
  11   2 -14    3.81    4.57
 -11  -2 -14    3.05    6.57
  11   2  14   -1.33    6.29
 -11  -2  14    2.48    8.57
  11  -2 -14    2.10    4.95
 -11   2 -14    6.00    6.38
  11  -2  15    3.71    6.67
 -11   2  15    4.29    4.57
  11   2 -15    4.57    4.95
 -11  -2 -15    3.05    6.48
  11   2  15   -1.43    6.38
 -11  -2  15   -1.33   10.28
  11  -2 -15   -0.57    4.95
 -11   2 -15    1.43    6.38
  11  -2  16   -0.76    6.38
 -11   2  16   -3.90    4.29
  11   2 -16    2.10    4.95
 -11  -2 -16    0.57    6.38
  11   2  16    1.43   48.85
 -11  -2  16   -5.33    4.86
  11  -2 -16    6.09    5.33
 -11   2 -16    6.19    7.05
  11  -3   0   13.71    5.33
 -11   3   0    5.05    5.71
  11  -3   1  582.70   57.33
 -11   3   1  514.81   50.38
  11  -3  -1  487.57   47.71
 -11   3  -1  709.83   69.52
  11  -3   2   11.90    6.09
 -11   3   2    6.57    4.09
  11  -3  -2    9.62    4.76
 -11   3  -2    0.48    6.67
  11  -3   3   57.33    9.81
 -11  -3  -3   47.80    9.62
  11   3   3   73.90   11.62
 -11   3  -3   53.42    9.52
  11  -3   4   10.28    7.43
 -11  -3  -4   22.85    8.00
  11   3   4   18.95    7.71
 -11   3  -4   21.24    7.52
  11  -3   5   10.57    6.86
 -11  -3  -5   12.28    7.81
  11   3   5    6.57    7.05
 -11   3  -5    0.86    6.57
  11  -3   6   15.71    7.90
 -11  -3  -6   21.14    8.95
  11   3   6   25.52    9.05
 -11   3  -6   36.66    9.43
 -11  -3  -7    1.43    8.00
  11   3   7   -1.81    8.19
 -11   3  -7    1.52    7.81
  11  -3   8   15.05    9.24
 -11   3   8   41.23    7.71
 -11  -3  -8   17.81    9.52
  11   3   8   18.19    9.81
  11  -3  -8    8.95    5.81
 -11   3  -8   15.43   10.00
  11  -3   9   27.14   10.28
 -11   3   9   20.28    7.05
 -11  -3  -9   14.28   10.00
  11   3   9   15.71   10.19
 -11  -3   9   54.95    9.33
  11  -3  -9   31.14    8.00
 -11   3  -9   45.80   11.90
  11  -3  10    8.09    8.19
 -11   3  10    5.43    5.43
  11   3 -10    8.38    6.67
 -11  -3 -10    1.90    7.52
  11   3  10    2.19    8.00
 -11  -3  10    2.29    5.81
  11  -3 -10   -1.14    5.71
 -11   3 -10   13.52    8.57
  11  -3  11    7.81    7.33
 -11   3  11   -0.67    4.76
  11   3 -11   -2.57    5.05
 -11  -3 -11    3.05    6.86
  11   3  11    0.10    6.86
 -11  -3  11    7.14    5.24
  11  -3 -11   -4.19    5.24
 -11   3 -11   -5.52    7.05
  11  -3  12   11.14    6.86
 -11   3  12    1.05    4.86
  11   3 -12   -1.62    4.67
 -11  -3 -12    5.62    8.00
  11   3  12   -2.38    6.86
 -11  -3  12   -1.62    4.29
  11  -3 -12    0.38    5.14
 -11   3 -12   -0.67    6.86
  11  -3  13   -4.29    5.71
 -11   3  13    3.33    4.67
  11   3 -13   -0.48    4.48
 -11  -3 -13   -6.86    6.38
  11   3  13   -2.00    6.76
 -11  -3  13    4.67    5.05
  11  -3 -13    0.57    4.86
 -11   3 -13    4.67    7.14
  11  -3  14    8.67    7.24
 -11   3  14    4.19    4.67
  11   3 -14    1.71    4.95
 -11  -3 -14    4.09   45.80
  11   3  14   -2.00    6.19
 -11  -3  14   -2.00    4.67
  11  -3 -14   -2.38    4.76
 -11   3 -14    5.24    6.67
  11  -3  15    6.67    7.05
 -11   3  15    1.24    4.67
  11   3 -15   11.14    5.33
 -11  -3 -15   -1.05    6.09
  11   3  15    8.09   14.86
 -11  -3  15    7.90    5.24
  11  -3 -15    2.29    7.24
 -11   3 -15    3.62    7.05
  11  -3  16   -1.62    6.48
 -11   3  16    2.29    4.95
  11   3 -16    4.38    4.95
 -11  -3 -16    8.95    6.67
  11   3  16   -5.52    6.09
 -11  -3  16    7.14    5.14
  11  -3 -16   -1.24    5.05
 -11   3 -16   -5.43    6.76
  11  -4   0    3.62    5.24
 -11   4   0   -4.38    6.19
  11  -4   1   -5.71    5.43
 -11   4   1   -1.90    5.71
 -11   4  -1   10.28    6.48
  11  -4   2   13.33    6.29
 -11   4  -2    2.95    6.19
  11  -4   4    7.05    6.57
 -11  -4  -4    1.71    6.86
 -11   4  -4   -3.24    6.29
  11  -4   5    9.14    6.48
 -11  -4  -5    8.76    7.81
  11   4   5    6.67    7.52
 -11   4  -5   15.52    7.05
  11  -4   6   -4.67    6.19
 -11  -4  -6    9.90    8.19
  11   4   6    9.05    8.67
 -11   4  -6    4.38    6.48
  11  -4   7   -2.48    6.57
 -11  -4  -7    2.76    8.95
  11   4   7   17.14    9.33
 -11   4  -7    3.33    6.95
  11  -4   8   -6.67    8.48
 -11  -4  -8    1.62    9.71
  11   4   8    7.24    9.62
 -11   4  -8    5.33    8.57
  11  -4   9   16.47    9.43
 -11  -4  -9    7.24    9.81
  11   4   9   12.38    9.71
  11  -4  -9   -0.10    6.57
 -11   4  -9   22.38    8.76
  11  -4  10   17.62    9.05
 -11   4  10    6.95    5.62
  11   4 -10   13.71    7.05
 -11  -4 -10    7.05    8.09
  11   4  10   -6.86    7.71
  11  -4 -10   19.90    6.67
 -11   4 -10   14.47    8.76
  11  -4  11    4.48    6.57
 -11   4  11    2.57    5.14
  11   4 -11    7.33    5.81
 -11  -4 -11   -1.24    7.14
  11   4  11    4.38    7.05
 -11  -4  11    9.62    5.52
  11  -4 -11    6.48    5.71
 -11   4 -11   10.09    7.52
  11  -4  12    0.19    6.29
 -11   4  12   -1.81    5.24
  11   4 -12   -3.24    4.76
 -11  -4 -12    6.86    7.90
  11   4  12    6.86    6.95
 -11  -4  12   -2.00    4.48
  11  -4 -12   -3.14    5.05
 -11   4 -12   -6.19    6.67
  11  -4  13    3.81    6.48
 -11   4  13    4.86    4.48
  11   4 -13   -3.05    4.76
 -11  -4 -13   -3.81    6.00
  11   4  13    3.14   10.48
 -11  -4  13    2.67    4.67
  11  -4 -13    4.95    4.86
 -11   4 -13   10.86    7.52
  11  -4  14    9.14    7.33
 -11   4  14   -5.24    4.38
  11   4 -14    2.19    5.05
 -11  -4 -14  -12.86    5.71
  11   4  14    1.33    6.00
 -11  -4  14    0.86    4.57
  11  -4 -14   -2.29    4.76
 -11   4 -14    6.19    6.86
  11  -4  15   -3.33    6.09
 -11   4  15    1.81    4.86
  11   4 -15   -9.14    4.95
 -11  -4 -15    0.19    6.38
  11   4  15   -2.86    6.09
 -11  -4  15   -3.24    4.57
  11  -4 -15   -0.67   43.14
 -11   4 -15    0.76    6.29
  11  -4  16    2.76    6.76
 -11   4  16   -0.67    4.95
  11   4 -16    6.76    6.76
 -11  -4 -16   -1.43    6.29
  11   4  16   -5.05    6.09
 -11  -4  16    0.10    4.95
  11  -4 -16   -5.90    4.95
 -11   4 -16    1.90    6.57
  11  -5   1  367.77   37.42
 -11   5  -1  291.21   30.38
  11  -5   2   57.23    9.71
 -11   5  -2   33.71    8.19
  11  -5   5    8.48    6.48
 -11   5  -5   22.09    7.62
  11  -5   6   19.62    7.14
 -11  -5  -6   40.57   10.76
 -11   5  -6   10.86    7.14
  11  -5   7  181.79   21.62
 -11  -5  -7  116.18   17.43
 -11   5  -7  188.08   22.47
  11  -5   8   99.23   15.05
  11   5   8   64.76   13.71
 -11   5  -8   90.28   14.57
  11  -5   9   40.57   10.00
 -11  -5  -9   39.42   11.05
  11   5   9   73.33   14.28
  11  -5  10    8.48    7.52
 -11  -5 -10   -1.14    7.81
  11   5  10   -5.33    7.24
 -11  -5  10    4.95    6.48
 -11   5 -10    2.10    7.05
  11  -5  11    8.38    6.57
  11   5 -11    0.57    5.71
 -11  -5 -11   -5.14    7.71
  11   5  11  -10.09    7.14
 -11  -5  11    5.71    5.52
  11  -5 -11   14.67    6.38
 -11   5 -11    5.62    6.19
  11  -5  12   26.28    8.28
 -11   5  12   25.24    6.76
  11   5 -12   26.85    7.14
 -11  -5 -12   19.14    8.76
  11   5  12   21.43    8.76
 -11  -5  12   10.00    5.81
  11  -5 -12    9.33    5.90
 -11   5 -12   31.04    8.28
  11  -5  13    2.57    6.09
 -11   5  13    8.67    5.33
  11   5 -13    4.57    5.43
 -11  -5 -13    7.24    6.48
  11   5  13    8.38    7.52
 -11  -5  13    4.86    4.95
  11  -5 -13    2.19    5.14
 -11   5 -13    7.43    6.48
  11  -5  14   -2.00    6.38
 -11   5  14    2.38    4.95
  11   5 -14    5.05    5.33
 -11  -5 -14   -1.90    5.90
  11   5  14   -2.19    6.38
 -11  -5  14   -2.95    4.76
  11  -5 -14   -3.71    6.19
 -11   5 -14    1.43    5.62
  11  -5  15    8.38    7.24
 -11   5  15    4.38    5.24
  11   5 -15    7.81    6.29
 -11  -5 -15    7.43    7.14
  11   5  15   -0.76    6.09
 -11  -5  15   13.52    6.00
  11  -5 -15    9.81    5.43
 -11   5 -15   12.00    7.52
 -11   5  16    5.24    5.24
  11   5 -16    1.62    5.81
 -11  -5 -16    5.14    6.67
 -11  -5  16    8.38    5.62
  11  -5 -16   -0.38    5.33
 -11   5 -16   -2.95    6.19
  11  -6   1   20.47    7.43
 -11   6  -1    4.67    6.57
  11  -6   2   29.43    8.09
 -11   6  -2   11.52    7.05
  11  -6   3    5.52    6.38
 -11   6  -3   14.86    7.14
  11  -6   4   -1.43    6.29
 -11   6  -4    7.52    6.67
  11  -6   5   -2.29    6.48
 -11   6  -5    8.86    6.95
  11  -6   6   15.43    6.95
 -11   6  -6    2.19    7.05
  11  -6   7    6.86    7.24
 -11   6  -7   14.38    8.57
  11  -6   8   21.14    8.67
 -11  -6  -8    6.67    9.43
  11   6   8   12.57   10.67
 -11   6  -8    9.81    8.19
  11  -6   9    2.76    7.90
 -11  -6  -9   10.19    9.14
  11   6   9   10.38    9.05
 -11   6  -9    6.95    7.90
  11  -6  10   24.09    8.28
 -11  -6 -10    8.28    8.09
  11   6  10    4.19    7.81
 -11   6 -10   20.66    8.28
  11  -6  11    2.67    5.62
 -11  -6 -11  -10.00    7.24
  11   6  11    5.24    7.33
 -11  -6  11    6.00    5.52
 -11   6 -11   -9.52    6.00
  11  -6  12   -1.24    5.24
  11   6 -12    9.90    5.52
 -11  -6 -12   -1.52    7.71
  11   6  12    4.29    6.86
 -11  -6  12   -5.71    5.14
  11  -6 -12    3.62    5.52
 -11   6 -12    0.57    5.71
  11  -6  13   -2.38    5.43
 -11   6  13    2.00   18.86
  11   6 -13    4.95    5.52
 -11  -6 -13    2.38    6.57
  11   6  13    1.90    7.33
 -11  -6  13    1.33    5.33
  11  -6 -13   -0.76    5.14
 -11   6 -13   -3.52    5.90
  11  -6  14   -1.05    6.00
 -11   6  14    2.57    5.05
  11   6 -14   -3.43    5.62
 -11  -6 -14    4.48    6.38
  11   6  14   -3.90    6.38
 -11  -6  14    3.81    5.14
  11  -6 -14    2.95    4.95
 -11   6 -14   -4.57    5.43
  11  -6  15   -1.43    6.00
 -11   6  15    1.52    4.95
  11   6 -15   -0.76    9.43
 -11  -6 -15   -1.71    6.19
  11   6  15    2.95    6.67
 -11  -6  15    1.71    5.14
  11  -6 -15    7.62    5.62
 -11   6 -15   -4.48   78.09
 -11   6  16    3.71    5.24
  11   6 -16    3.43    8.19
 -11  -6 -16   -2.19    6.57
 -11  -6  16   -0.95    5.05
  11  -6 -16    3.05    6.09
 -11   6 -16    1.90    5.62
  11  -7   3    9.90    7.14
 -11   7  -3   10.00    6.95
  11  -7   4   -1.90    6.57
 -11   7  -4   10.19    7.33
  11  -7   5   23.05    7.43
 -11   7  -5   31.52    8.86
  11  -7   6   17.81    7.14
 -11   7  -6   20.76    8.19
  11  -7   7    9.24    8.38
 -11   7  -7   -3.24    8.00
  11  -7   8    4.29    7.62
 -11   7  -8   -7.71    7.90
  11  -7   9    4.19    7.33
 -11  -7  -9   -4.29    8.28
 -11   7  -9   -1.90    8.28
  11  -7  10    6.00    6.86
 -11   7 -10    8.28    7.24
  11  -7  11   15.52    6.67
 -11  -7 -11    9.90    8.48
  11   7  11    9.90    7.52
 -11   7 -11   20.47    7.33
  11  -7  12    4.09    5.33
 -11  -7 -12   -2.48    6.95
  11   7  12    2.57    6.76
 -11  -7  12    1.24    5.43
 -11   7 -12    0.67    5.52
  11  -7  13   -5.24    4.95
  11   7 -13    2.00    5.52
 -11  -7 -13   16.47    7.71
  11   7  13    7.62    7.52
 -11  -7  13   -0.67    5.71
 -11   7 -13    9.33    6.67
  11  -7  14   -4.29    5.81
  11   7 -14    0.86    5.71
 -11  -7 -14    2.76    6.67
  11   7  14    0.48    6.57
 -11  -7  14   -0.48    5.52
  11  -7 -14   -2.00    5.14
 -11   7 -14   -4.09    5.43
  11  -7  15    1.62    6.00
 -11   7  15    0.38    4.95
  11   7 -15    8.86    5.90
 -11  -7 -15   -3.52    6.57
  11   7  15    5.43    6.76
 -11  -7  15    1.43    5.52
  11  -7 -15    7.71    5.81
 -11   7 -15    2.86    5.62
  11  -8   3   19.05    7.90
 -11   8  -3   -5.14    7.05
  11  -8   4   18.95    7.90
 -11   8  -4   32.09    8.76
  11  -8   5   27.90    8.48
 -11   8  -5   33.62    9.24
  11  -8   6  112.85   15.71
 -11   8  -6  122.56   16.86
  11  -8   7    2.00    7.33
 -11   8  -7    8.00    8.38
  11  -8   8   58.38   11.71
 -11   8  -8   62.95   12.57
  11  -8   9   -1.71    6.86
 -11   8  -9   -2.19    8.00
  11  -8  11    5.14    5.43
 -11  -8 -11    4.95    8.19
 -11   8 -11   -6.76    5.71
  11  -8  12    2.67    5.62
 -11  -8 -12   10.19    7.90
  11   8  12   12.57    7.52
 -11   8 -12    9.14    6.67
  11  -8  13   -1.81    5.05
 -11  -8 -13   -2.48    6.95
  11   8  13   14.57    7.81
 -11  -8  13    3.62    5.24
 -11   8 -13    0.95    6.38
  11  -8  14    2.00    5.90
  11   8 -14   -1.05    5.52
 -11  -8 -14    4.19    6.57
  11   8  14   -1.71    6.09
 -11  -8  14   -4.00    5.24
 -11   8 -14   -0.57    5.71
  11  -8  15    8.09   29.14
  11   8 -15    5.24    5.90
 -11  -8 -15    3.62    7.14
  11   8  15   12.19    7.52
 -11  -8  15   -4.29    5.52
  11  -8 -15    3.71    8.09
 -11   8 -15   -4.09    5.33
  11  -9   4    2.95    7.24
 -11   9  -4    7.24    7.33
  11  -9   5    3.33    7.90
 -11   9  -5    6.19    7.71
  11  -9   6   -8.67    8.00
 -11   9  -6    3.43    8.28
  11  -9   7   -1.90    7.24
 -11   9  -7   14.95    8.67
  11  -9   8    6.57    7.62
 -11   9  -8   14.76    9.33
  11  -9   9    2.86    7.14
 -11   9  -9    4.00    7.52
  11  -9  10   -1.05    5.81
 -11   9 -10    7.05    6.29
  11  -9  11   -0.48    5.33
 -11   9 -11    5.05    5.90
  11  -9  12   -6.86    4.95
 -11  -9 -12   -4.19    6.95
 -11   9 -12    7.14    6.67
  11  -9  13    5.52    5.43
 -11  -9 -13   -4.95    6.48
 -11   9 -13    2.00    6.29
  11  -9  14    0.29    5.52
 -11  -9 -14    3.14    6.67
  11   9  14   -5.33    5.52
 -11  -9  14   -1.62    5.62
 -11   9 -14    2.00    6.19
  11  -9  15    1.05    6.48
  11   9 -15    5.24    5.90
 -11  -9 -15    4.57    6.76
  11   9  15    1.33    6.86
 -11  -9  15    5.81   13.14
 -11   9 -15    3.52    5.90
  11 -10   5   31.33    9.62
 -11  10  -5   24.28    8.95
  11 -10   6  154.46   20.00
 -11  10  -6  138.18   18.66
  11 -10   7    7.71    8.38
 -11  10  -7   18.86    8.95
  11 -10   8   22.47    9.24
 -11  10  -8    6.09    8.09
  11 -10   9    7.52    6.76
 -11  10  -9   17.90    8.19
  11 -10  10   17.81    6.95
 -11  10 -10   22.09    7.81
  11 -10  11    3.52    5.62
 -11  10 -11    6.29    6.38
  11 -10  12   17.43    6.95
 -11  10 -12   20.28    7.43
  11 -10  13    2.57    5.62
 -11  10 -13   -3.33    6.19
  11 -10  14   -1.05    5.43
 -11 -10 -14   -9.33    6.48
 -11  10 -14   -0.76    5.90
 -11 -10 -15   -1.71    6.76
 -11 -10  15    0.76    6.19
 -11  10 -15    0.76    6.19
  11 -11   6    1.05    8.09
 -11  11  -6    3.33    8.57
  11 -11   7   15.33    8.86
 -11  11  -7    3.33    8.38
  11 -11   8   -0.67    7.62
 -11  11  -8   -4.67    7.33
  11 -11   9   -0.19    6.57
 -11  11  -9   -9.52    6.76
  11 -11  10    4.67    5.43
 -11  11 -10   -2.76    6.00
  11 -11  11    4.19    5.52
 -11  11 -11    4.95    6.19
  11 -11  12   -5.14    4.95
 -11  11 -12    2.10    5.62
  11 -11  13    4.38    5.52
 -11  11 -13   -2.00    6.09
  11 -11  14    8.57    6.19
 -11  11 -14    1.90    6.76
  11 -12   7   -1.24    7.90
 -11  12  -7    9.71    8.28
  11 -12   8   -0.38    6.76
 -11  12  -8    1.33    7.14
  11 -12   9    6.57    6.76
 -11  12  -9    0.48    7.24
  11 -12  10    7.43    6.95
 -11  12 -10   19.05    7.90
  11 -12  11   -0.86    5.71
 -11  12 -11    0.29    6.19
  11 -12  12   -0.67    5.05
 -11  12 -12    1.81    5.71
  11 -12  13    6.00    5.62
 -11  12 -13   -1.43    6.00
  11 -12  14    1.14    5.52
 -11  12 -14    3.43    6.48
  11 -13   8   -3.90    6.95
 -11  13  -8   10.00    7.14
  11 -13   9   23.05    7.81
 -11  13  -9   22.00    8.48
  11 -13  10   12.00    7.05
 -11  13 -10   10.95    6.76
  11 -13  11    9.33    6.95
 -11  13 -11   15.52    7.33
  11 -13  12    4.57    6.57
 -11  13 -12   -2.29    5.62
  11 -13  13    3.24    5.24
 -11  13 -13    1.24    6.29
 -11  13 -14    1.52    6.67
  11 -14   9    9.52    6.67
 -11  14  -9    0.76    7.62
  11 -14  10   -1.81    6.19
 -11  14 -10    3.52    6.48
  11 -14  11    7.43    6.67
 -11  14 -11   -3.33    5.81
  11 -14  12   -3.90    6.09
 -11  14 -12    2.00    9.62
  11 -14  13    2.29    6.38
 -11  14 -13   -3.62    5.71
  11 -15  10   -0.76    6.29
  11 -15  11    4.09    6.67
 -11  15 -11    8.00    6.95
  11 -15  12   -1.71    6.48
 -11  15 -12    2.76    6.19
 -11  15 -13    1.52    8.19
  11 -16  11    0.67    6.19
  11 -16  12    5.81    8.00
 -11  16 -12    0.57    6.19
  12   0   0  136.46   15.81
 -12   0   0  132.18   15.43
  12   0   1  125.61   15.05
 -12   0   1  132.94   14.67
  12   0  -1  103.51   12.19
 -12   0  -1  114.85   14.09
  12   0   2 1265.59  122.75
  12   0  -2 1235.11  118.46
 -12   0  -2 1060.85  103.13
  12   0   3  131.42   16.47
 -12   0  -3  160.75   19.05
  12   0   4  884.20   87.04
 -12   0  -4  806.30   79.61
  12   0   5  476.05   48.76
 -12   0  -5  459.38   47.42
 -12   0   6   45.90    5.81
  12   0  -6   42.95    5.52
  12   0   7  802.30   80.47
 -12   0   7  665.65   64.28
 -12   0  -7  889.72   88.85
  12   0   8  268.74   31.04
 -12   0   8  184.93   19.43
  12   0  -8  188.65   19.71
 -12   0  -8  237.02   28.38
  12   0   9   15.43   10.09
 -12   0   9   18.00    6.09
  12   0  -9   38.47    7.05
 -12   0  -9   31.62   10.95
 -12   0  10   34.19    7.14
  12   0 -10   25.05    6.48
  12   0  11   69.33   12.95
 -12   0 -11   65.52   12.57
  12   0  12   78.66   13.24
 -12   0  12   82.18   11.24
  12   0 -12   78.94   10.95
 -12   0 -12   42.66   10.38
  12   0  13   13.24    6.76
 -12   0  13   18.09    5.71
  12   0 -13   30.47    7.14
 -12   0 -13   11.33    7.71
  12   0  14    6.95    6.57
 -12   0  14   22.95    6.76
  12   0 -14    4.38    5.05
 -12   0 -14    9.71    7.24
  12   0  15    9.05    7.81
 -12   0  15   20.66    6.29
  12   0 -15    1.24    4.86
 -12   0 -15    2.86    6.67
 -12   0  16   11.24    5.90
  12   0 -16    5.90    5.52
 -12   0 -16   22.76    9.05
  12   1   0   23.24    6.67
 -12  -1   0   28.66    7.24
  12  -1   0   20.95    6.19
 -12   1   0   20.19    6.48
  12  -1   1   21.05    6.67
 -12   1   1   35.52    6.57
  12   1   1   45.90    8.57
  12  -1  -1   43.71    7.05
 -12   1  -1   21.33    6.48
 -12   1   2   51.90    6.76
 -12  -1  -2   60.85    9.90
  12   1   2   30.09    8.00
  12  -1  -2   55.52    7.43
  12  -1   3   10.00    6.86
 -12   1   3    0.48    2.86
 -12  -1  -3    4.48    6.38
  12   1   3    9.62    7.14
  12  -1  -3    7.62    3.14
 -12   1  -3   15.81    6.86
  12  -1   4   41.52    8.76
 -12   1   4   28.76    3.43
 -12  -1  -4   37.42    8.76
  12   1   4   50.66   10.38
  12  -1  -4   38.76    4.29
 -12   1  -4   35.33    8.48
  12  -1   5    6.86    7.33
 -12  -1  -5    1.05    7.14
  12   1   5   -1.90    7.14
 -12   1  -5   11.33    7.33
  12  -1   6    8.19    7.81
 -12   1   6   11.81    3.52
 -12  -1  -6   17.90    8.95
  12   1   6   12.00    8.57
  12  -1  -6    7.24    2.95
 -12   1  -6   12.67    7.71
  12  -1   7   50.47   11.33
 -12   1   7   63.14    7.90
  12   1  -7   40.09    6.48
 -12  -1  -7   47.61   11.81
  12   1   7   78.28   13.62
 -12  -1   7   56.38    7.62
  12  -1  -7   37.71    5.71
 -12   1  -7   66.66   12.86
  12  -1   8    2.38    9.14
 -12   1   8    5.05    5.05
  12   1  -8    7.33    5.62
 -12  -1  -8   13.43    9.62
  12   1   8   -5.24    9.24
 -12  -1   8   12.67    5.33
  12  -1  -8    0.29    5.14
 -12   1  -8    1.05    9.33
  12  -1   9   -5.81    8.95
 -12   1   9    6.76    5.24
  12   1  -9    5.90    5.33
 -12  -1  -9    9.71    9.71
  12   1   9   27.62   10.09
 -12  -1   9    4.00    5.14
  12  -1  -9   -0.10    5.90
 -12   1  -9    0.29    9.33
  12  -1  10    9.05    8.00
 -12   1  10   13.52    5.33
  12   1 -10   28.47    6.95
 -12  -1 -10    5.71    7.71
  12   1  10   -6.29    7.62
 -12  -1  10   11.52    5.43
  12  -1 -10    2.19    5.52
 -12   1 -10    6.67    7.43
  12  -1  11   -0.57    6.95
 -12   1  11    3.52    4.48
  12   1 -11   -1.90    4.48
 -12  -1 -11    8.19    7.52
  12   1  11    7.33    7.52
 -12  -1  11    3.05    4.57
  12  -1 -11   -2.29    5.14
 -12   1 -11    9.33    7.43
  12  -1  12    5.81    6.86
 -12   1  12    6.76    4.76
  12   1 -12    7.90    4.86
 -12  -1 -12   -0.57    7.05
  12   1  12    7.05    7.14
 -12  -1  12   16.19    5.33
  12  -1 -12    9.90    5.81
 -12   1 -12   21.05    8.09
  12  -1  13    1.33    5.71
 -12   1  13    4.19    4.48
  12   1 -13    2.86    4.86
 -12  -1 -13    1.71    6.86
  12   1  13   -1.33    5.43
 -12  -1  13   -2.29    4.48
  12  -1 -13    0.00    4.76
 -12   1 -13    4.48    6.67
  12  -1  14    6.29    6.19
 -12   1  14    6.57    6.48
  12   1 -14   -0.57    4.38
 -12  -1 -14   -2.67    6.67
  12   1  14   -5.71    6.19
 -12  -1  14    2.86    4.76
  12  -1 -14    8.38    5.14
 -12   1 -14    8.48    6.76
  12  -1  15    3.05    7.05
 -12   1  15    2.67   19.24
  12   1 -15    2.38    4.67
 -12  -1 -15   -1.62    6.19
  12   1  15   11.14    7.52
 -12  -1  15   -0.76    5.05
  12  -1 -15    0.10   10.57
 -12   1 -15    6.00    6.86
 -12   1  16    6.09    5.43
  12   1 -16   -3.52    5.14
 -12  -1 -16    6.86   99.70
 -12  -1  16   -0.10    5.33
  12  -1 -16   -2.38   15.33
 -12   1 -16   -2.10    6.19
  12  -2   0   51.80    8.38
 -12   2   0   38.19    7.81
  12  -2   1  145.89   16.76
 -12   2   1  132.08   14.47
  12  -2  -1  141.32   15.43
  12  -2   2   44.57    8.86
 -12   2   2   41.14    5.90
 -12  -2  -2   26.66    8.00
  12   2   2   40.85    8.76
  12  -2  -2   51.99    6.95
 -12   2  -2   18.66    6.86
  12  -2   3   59.80   10.38
 -12   2   3   41.52    5.43
 -12  -2  -3   72.75   11.43
  12   2   3   71.33   11.24
  12  -2  -3   50.28    6.19
 -12   2  -3   68.76   10.86
  12  -2   4   21.05    7.71
 -12  -2  -4   25.90    8.09
  12   2   4   26.19    8.38
 -12   2  -4   23.43    7.81
  12  -2   5   26.57    8.57
 -12  -2  -5   25.43    8.48
  12   2   5   20.95    8.38
 -12   2  -5   17.43    7.71
  12  -2   6   -4.76    7.33
 -12  -2  -6   -4.67    7.62
  12   2   6   12.09    8.57
  12  -2  -6    2.95    3.24
 -12   2  -6    9.24    7.43
  12  -2   7   53.71   11.62
 -12   2   7   25.62    5.24
 -12  -2  -7   19.33    9.43
  12   2   7   35.04   10.76
 -12   2  -7   26.85   10.19
  12  -2   8   50.47   12.19
 -12  -2  -8   11.71    9.52
  12   2   8   11.14    9.90
 -12  -2   8   32.38    7.14
  12  -2  -8   12.00    5.43
 -12   2  -8   25.43   10.67
  12  -2   9   14.57   10.28
 -12   2   9    2.38    5.24
  12   2  -9   20.00    6.76
 -12  -2  -9    4.38    8.86
  12   2   9    6.09    8.86
 -12  -2   9   22.95    6.29
  12  -2  -9    0.86    5.81
 -12   2  -9   21.81   10.38
  12  -2  10    3.62    7.43
 -12   2  10    1.62    4.67
  12   2 -10    1.62    5.33
 -12  -2 -10    5.81    7.52
  12   2  10   -1.71    7.33
 -12  -2  10   14.28    5.71
  12  -2 -10   -0.10    5.33
 -12   2 -10   -5.62    7.52
  12  -2  11   14.28    8.09
 -12   2  11    4.57    4.86
  12   2 -11   10.57    5.05
 -12  -2 -11    2.38    6.76
  12   2  11   -6.76    6.95
 -12  -2  11   -0.95    4.57
  12  -2 -11    7.05    5.24
 -12   2 -11   10.67    7.81
  12  -2  12    7.05    7.14
 -12   2  12    1.24    4.67
  12   2 -12   10.38    5.24
 -12  -2 -12   12.67    7.71
  12   2  12   10.00    7.33
 -12  -2  12    6.19    4.48
  12  -2 -12    4.19    5.52
 -12   2 -12    6.86    7.24
  12  -2  13    7.90    6.29
 -12   2  13    1.33    4.09
  12   2 -13    6.67    4.76
 -12  -2 -13    6.29    7.14
  12   2  13   -3.43    5.90
 -12  -2  13    2.57    4.67
  12  -2 -13    0.19    4.48
 -12   2 -13   -2.95    6.67
  12  -2  14    2.00    6.38
 -12   2  14    4.00    4.48
  12   2 -14   -3.62    4.38
 -12  -2 -14    2.00    6.19
  12   2  14   -2.19   32.66
 -12  -2  14   -1.81    4.38
  12  -2 -14    4.86    5.05
 -12   2 -14    5.24    7.24
  12  -2  15   12.67    7.33
 -12   2  15    9.05    4.86
  12   2 -15    6.95    5.14
 -12  -2 -15    4.95    6.19
  12   2  15    1.90    7.14
 -12  -2  15    8.95    5.24
  12  -2 -15   -2.76    4.76
 -12   2 -15   11.71    7.14
 -12   2  16    0.19    7.71
  12   2 -16   -6.38    4.76
 -12  -2 -16   -1.33    6.48
 -12  -2  16   -0.48    4.76
  12  -2 -16    0.67    4.95
 -12   2 -16    1.05    6.86
  12  -3   0 1245.59  120.18
 -12   3   0  926.76   89.90
  12  -3   1   37.90    7.43
 -12   3  -1   53.23    8.86
  12  -3   2   -1.14    5.81
  12  -3  -2   11.14    4.38
 -12   3  -2    8.86    6.48
  12  -3   3  184.17   20.95
 -12  -3  -3  187.12   21.52
 -12   3  -3  129.70   16.09
  12  -3   4    1.52    6.67
 -12  -3  -4   29.24    8.95
  12   3   4   14.09    7.62
 -12   3  -4   12.95    6.95
  12  -3   5   22.57    7.81
 -12  -3  -5   39.04    9.71
  12   3   5   37.42    9.62
 -12   3  -5   22.47    8.09
 -12  -3  -6  102.66   15.43
  12   3   6   96.09   14.95
 -12  -3  -7  127.23   18.00
  12   3   7  143.70   19.24
  12  -3   8   11.52    9.52
 -12  -3  -8   18.28   10.48
  12   3   8    9.33    9.62
  12  -3  -8   22.66    6.29
 -12   3  -8   40.85   11.81
  12  -3   9   14.86    9.52
 -12   3   9    4.38    5.24
 -12  -3  -9   14.86    9.43
  12   3   9   16.66    9.62
 -12  -3   9    8.76    6.38
  12  -3  -9   20.00    6.29
 -12   3  -9   19.24    9.81
  12  -3  10   10.19    8.09
 -12   3  10    5.14    5.24
  12   3 -10   10.67    6.48
 -12  -3 -10    0.76    6.95
  12   3  10   13.33    7.81
 -12  -3  10   13.52    6.29
  12  -3 -10    3.24    5.33
 -12   3 -10    7.14    8.09
  12  -3  11    6.19    7.05
 -12   3  11    1.71    4.38
  12   3 -11    3.81    5.33
 -12  -3 -11   -0.95    6.38
  12   3  11   -0.29    7.05
 -12  -3  11    8.57    4.95
  12  -3 -11    1.90    5.24
 -12   3 -11   14.00    7.81
  12  -3  12    4.57    6.95
 -12   3  12    5.24    4.67
  12   3 -12   17.62    5.71
 -12  -3 -12    1.05    6.57
  12   3  12    4.09    6.76
 -12  -3  12    4.57    4.67
  12  -3 -12    0.10    5.14
 -12   3 -12    5.43    6.86
  12  -3  13    5.71    6.19
 -12   3  13   15.24    5.14
  12   3 -13   -4.38    4.48
 -12  -3 -13    5.33    7.05
  12   3  13   -1.14    6.19
 -12  -3  13    0.10    4.67
  12  -3 -13    2.67    5.05
 -12   3 -13   -5.90    5.90
  12  -3  14   14.28    7.43
 -12   3  14   14.19    5.24
  12   3 -14   -1.05    4.76
 -12  -3 -14    0.00   90.18
  12   3  14    6.00    6.57
 -12  -3  14    5.62    5.05
  12  -3 -14    7.52    5.33
 -12   3 -14   11.33    7.43
  12  -3  15    2.67    6.48
 -12   3  15    2.48    4.48
  12   3 -15    4.76    4.76
 -12  -3 -15   -0.19    6.29
  12   3  15   -5.14    6.00
 -12  -3  15   -1.24    4.76
  12  -3 -15   -3.05    4.67
 -12   3 -15   -4.00    6.19
 -12   3  16    0.95    5.05
  12   3 -16    1.71    8.95
 -12  -3 -16    0.95   11.81
 -12  -3  16    3.05    5.24
  12  -3 -16    2.00  350.44
 -12   3 -16    5.24    7.24
  12  -4   0    1.05    5.14
 -12   4   0   -0.86    5.43
  12  -4   1    8.09    5.71
 -12   4   1    1.90    5.14
  12  -4  -1    9.33    5.43
 -12   4  -1   -2.48    5.81
  12  -4   2    0.76    5.81
 -12   4  -2    1.90    6.09
  12  -4   3   13.62    6.38
 -12   4  -3    5.05    6.19
  12  -4   4   26.47    7.52
 -12  -4  -4    4.00    7.52
 -12   4  -4   32.85    8.19
  12  -4   5   -0.10    6.29
 -12  -4  -5    2.00    7.62
  12   4   5    1.14    7.52
 -12   4  -5    7.71    6.67
  12  -4   6    3.05    6.67
 -12  -4  -6    4.09    8.76
  12   4   6    0.19    8.48
 -12   4  -6    0.48    6.76
  12  -4   7   60.37   12.00
 -12  -4  -7   48.66   12.00
 -12   4  -7   41.23   10.19
  12  -4   8    7.90    9.14
 -12  -4  -8    0.10   10.09
  12   4   8   -5.81    9.81
 -12   4  -8    8.38    8.57
  12  -4   9   17.52    8.95
 -12  -4  -9    1.24    8.28
  12   4   9    2.67    9.14
  12  -4  -9   -2.10    5.71
 -12   4  -9   -0.67    9.14
  12  -4  10    6.19    7.90
 -12   4  10    9.05    5.33
 -12  -4 -10   -8.57    6.76
  12   4  10   11.62    7.62
 -12  -4  10    2.67    5.71
  12  -4 -10    1.62    5.14
 -12   4 -10   -1.05    7.52
  12  -4  11    7.43    7.14
 -12   4  11    5.81    4.95
  12   4 -11    7.24    5.62
 -12  -4 -11   -6.09    6.38
  12   4  11   -0.76    6.67
 -12  -4  11    7.24    5.14
  12  -4 -11   -1.43    5.24
 -12   4 -11    3.71    6.67
  12  -4  12    0.86    6.09
 -12   4  12    5.33    4.86
  12   4 -12   -3.81    4.95
 -12  -4 -12   -6.67    6.19
  12   4  12    7.33    6.95
 -12  -4  12    5.24    4.57
  12  -4 -12    0.38    4.76
 -12   4 -12    3.43    6.67
  12  -4  13    6.19    6.19
 -12   4  13    0.00    4.38
  12   4 -13   -4.67   94.28
 -12  -4 -13    3.43    6.48
  12   4  13   -2.19    5.90
 -12  -4  13    1.71    4.57
  12  -4 -13   -2.76    4.38
 -12   4 -13    5.24    6.86
  12  -4  14    1.05    6.38
 -12   4  14    4.29    4.57
  12   4 -14    7.62    5.14
 -12  -4 -14   -3.14    5.90
  12   4  14   -2.67    6.48
 -12  -4  14    0.48    4.67
  12  -4 -14   -0.95    4.67
 -12   4 -14    9.71    7.14
  12  -4  15    3.33    6.76
 -12   4  15    4.38    4.48
  12   4 -15    0.95    4.86
 -12  -4 -15    7.52    6.29
  12   4  15   -1.71    6.38
 -12  -4  15    2.00    5.14
  12  -4 -15   -0.19   19.24
 -12   4 -15    1.62    6.19
 -12   4  16    0.57    5.05
  12   4 -16    0.38    5.43
 -12  -4 -16    3.24    6.76
 -12  -4  16   -3.81    5.05
  12  -4 -16    2.29  125.04
 -12   4 -16    7.52    7.71
  12  -5   1  142.94   16.66
 -12   5  -1  101.89   13.33
  12  -5   2  156.27   18.09
 -12   5  -2  136.08   16.57
  12  -5   3   87.99   12.19
 -12   5  -3   61.33   10.48
  12  -5   4  123.89   15.62
 -12   5  -4  165.89   19.81
  12  -5   5    5.05    6.48
 -12   5  -5   30.38    8.09
  12   5   6  105.23   16.09
 -12   5  -6   98.66   14.38
  12  -5   7  608.99   61.71
 -12  -5  -7  494.33   51.80
 -12   5  -7  693.26   69.90
  12  -5   8   39.42    9.90
 -12  -5  -8   41.14   12.09
  12   5   8   18.66   10.57
 -12   5  -8    9.90    8.57
  12  -5   9   10.95    7.90
 -12  -5  -9   23.62    9.81
  12   5   9   30.76   10.09
 -12   5  -9    0.00    8.19
  12  -5  10    5.24    6.95
 -12  -5 -10    9.14    8.19
  12   5  10   26.28    8.95
 -12   5 -10   20.28    8.38
  12  -5  11   20.95    8.09
 -12  -5 -11   32.09    9.52
  12   5  11   14.47    8.19
 -12  -5  11   27.52    6.76
  12  -5 -11    9.33    5.62
 -12   5 -11   16.66    7.33
  12  -5  12    7.14    6.29
 -12   5  12    4.09    4.86
  12   5 -12    4.48    5.43
 -12  -5 -12    3.14    6.57
  12   5  12   -7.33    6.09
 -12  -5  12    1.05    5.05
  12  -5 -12    6.95    5.33
 -12   5 -12    6.76    5.62
  12  -5  13   14.38    7.14
 -12   5  13    6.95    5.05
  12   5 -13    8.95    5.62
 -12  -5 -13   14.57    7.52
  12   5  13   17.71    7.05
 -12  -5  13   15.81    5.81
  12  -5 -13    7.62    5.33
 -12   5 -13   16.28    7.05
  12  -5  14    2.67    6.09
 -12   5  14    5.62    5.33
  12   5 -14   18.00    6.67
 -12  -5 -14   10.38    7.33
  12   5  14   11.52    7.90
 -12  -5  14   19.14    6.00
  12  -5 -14    7.81    5.24
 -12   5 -14   12.38    7.90
  12  -5  15   -4.86    6.19
 -12   5  15    4.38    5.24
  12   5 -15    0.38    4.95
 -12  -5 -15    6.09    6.00
  12   5  15   -4.95    6.09
 -12  -5  15   -0.95    4.86
  12  -5 -15    4.48    4.76
 -12   5 -15   -5.81   13.90
  12  -6   1   29.43    7.43
 -12   6  -1   18.66    7.14
  12  -6   2   15.14    6.95
 -12   6  -2    4.19    6.57
  12  -6   3    8.09    6.29
 -12   6  -3   16.57    7.24
  12  -6   4   -3.71    6.29
 -12   6  -4    1.81    6.48
  12  -6   5   12.47    6.76
 -12   6  -5    0.00    6.67
  12  -6   6   -3.24    6.86
 -12   6  -6   -6.19    7.43
  12  -6   7   29.71    9.05
 -12  -6  -7   27.90   11.43
 -12   6  -7   64.18   12.28
  12  -6   8   24.38    8.95
 -12  -6  -8   31.04   11.90
  12   6   8   63.71   13.52
 -12   6  -8   20.28    8.67
 -12  -6  -9    4.00    8.09
  12   6   9    0.00    7.90
 -12   6  -9   19.43    8.57
  12  -6  10   -1.05    6.29
 -12  -6 -10   -1.71    7.43
  12   6  10    8.28    7.33
 -12   6 -10    2.67    6.86
  12  -6  11    3.33    5.71
 -12  -6 -11   11.81    7.81
  12   6  11    2.57    7.33
 -12   6 -11    4.67    6.00
  12  -6  12    0.48    5.14
 -12  -6 -12    0.48    7.05
  12   6  12    0.67    6.38
 -12  -6  12   -3.62    4.95
 -12   6 -12    7.81    6.00
  12  -6  13    8.19    5.71
  12   6 -13    4.67    5.33
 -12  -6 -13    2.38    7.14
  12   6  13    4.57    6.76
 -12  -6  13    0.48    4.95
  12  -6 -13    4.67    5.14
 -12   6 -13    1.90    5.33
  12  -6  14    1.05    5.71
 -12   6  14    0.48    4.95
  12   6 -14    1.52    5.14
 -12  -6 -14    1.24    6.67
  12   6  14    6.00    7.14
 -12  -6  14   -0.67    5.33
  12  -6 -14   -1.43    5.14
 -12   6 -14    4.48    6.48
  12  -6  15   -3.52    6.57
 -12   6  15    3.24    5.24
  12   6 -15    1.14    5.52
 -12  -6 -15   -0.29    6.19
  12   6  15    2.67    6.67
 -12  -6  15    1.05    4.76
  12  -6 -15    0.67    5.14
 -12   6 -15   -0.67    5.52
  12  -7   2   46.19    9.24
 -12   7  -2   69.99   11.05
  12  -7   3   18.19    7.24
 -12   7  -3   20.95    7.81
  12  -7   4   23.14    7.52
 -12   7  -4   16.86    7.52
  12  -7   5    4.48    6.86
 -12   7  -5    1.52    7.14
  12  -7   7    3.81    7.62
 -12   7  -7    4.67    8.00
  12  -7   8   84.28   13.71
 -12   7  -8   93.42   15.14
  12  -7   9   10.67    7.24
 -12  -7  -9   -1.71    7.71
 -12   7  -9   -1.90    7.33
  12  -7  10   29.14    8.19
 -12  -7 -10    1.24    7.81
  12   7  10   24.57    9.05
 -12   7 -10   28.66    8.57
  12  -7  11    4.95    6.09
 -12  -7 -11    4.19    7.24
  12   7  11    1.52    7.05
 -12   7 -11    8.48    6.00
  12  -7  12    1.62    5.43
 -12  -7 -12    2.67    7.33
  12   7  12   26.66    8.48
 -12   7 -12    1.90    5.52
  12  -7  13    9.81    6.00
 -12  -7 -13    8.95    7.62
  12   7  13    0.10    6.86
 -12  -7  13    3.33    5.43
 -12   7 -13    8.95    6.00
  12  -7  14   55.71   10.86
  12   7 -14   58.09   10.48
 -12  -7 -14   24.57    8.48
  12   7  14   26.38    9.43
 -12  -7  14   46.57    9.33
 -12   7 -14   45.33   10.67
  12  -7  15    2.86    5.81
  12   7 -15   -1.33    5.52
 -12  -7 -15   -2.76    6.95
  12   7  15   -2.86    6.76
 -12  -7  15   -3.33   25.90
  12  -7 -15    2.19    5.43
 -12   7 -15   -1.24    6.09
  12  -8   2   73.33   11.52
  12  -8   3  217.69   25.05
 -12   8  -3  144.27   18.00
  12  -8   5  169.89   20.57
 -12   8  -5  197.79   23.62
  12  -8   6   12.86    7.81
 -12   8  -6    6.38    8.19
  12  -8   7   31.14    9.05
 -12   8  -7   51.61   11.14
  12  -8   8   14.76    8.28
 -12   8  -8   20.86    9.14
  12  -8  10    1.24    5.81
 -12   8 -10   -0.95    6.19
  12  -8  11   14.00    6.67
 -12  -8 -11   25.90    8.86
 -12   8 -11   47.23    9.81
  12  -8  12   14.19    6.67
 -12  -8 -12   19.24    8.38
  12   8  12   18.86    7.81
 -12   8 -12   13.62    6.95
  12  -8  13   13.52    6.38
 -12  -8 -13   19.43    8.48
  12   8  13   -1.90    6.29
 -12   8 -13    6.38    6.09
  12  -8  14    8.95    6.38
 -12  -8 -14    7.62    6.86
  12   8  14    0.86    7.05
 -12  -8  14    9.24    6.38
 -12   8 -14    2.57    6.29
  12   8 -15   10.67    6.67
 -12  -8 -15   16.57    8.00
 -12  -8  15   11.43    6.19
 -12   8 -15   17.24    7.90
  12  -9   3   31.14    8.95
  12  -9   4    4.95    7.81
 -12   9  -4    8.19    7.71
  12  -9   5    8.38    8.38
 -12   9  -5    6.57    8.28
  12  -9   6    2.86    7.90
 -12   9  -6   18.86    8.67
  12  -9   7   12.76    8.19
 -12   9  -7   -3.52    8.28
  12  -9   8    4.86    6.95
 -12   9  -8    7.43    8.00
  12  -9   9    1.71    6.00
 -12   9  -9    3.90    6.67
  12  -9  10    2.00    5.62
 -12   9 -10    0.67    6.00
  12  -9  11    2.57    5.71
 -12   9 -11   -2.00    5.52
  12  -9  12    6.86    5.81
 -12  -9 -12   -1.71    6.76
 -12   9 -12    5.43    6.19
  12  -9  13    1.62    5.71
 -12  -9 -13    2.67    6.76
  12   9  13   -0.38    6.38
 -12   9 -13    3.33    5.71
  12  -9  14   -1.81    5.24
 -12  -9 -14   -0.76    6.57
  12   9  14    1.71    7.14
 -12   9 -14   -2.48    6.00
 -12  -9 -15    2.57    6.67
 -12  -9  15    2.00    5.71
 -12   9 -15    4.48    7.14
  12 -10   4   46.47   10.76
  12 -10   5  196.46   23.43
 -12  10  -5  136.46   18.28
  12 -10   6   42.76   10.57
 -12  10  -6   44.47   11.24
  12 -10   7   21.05    9.24
 -12  10  -7    6.19    8.48
  12 -10   8    7.71    7.14
 -12  10  -8    0.57    7.71
  12 -10   9   -0.38    6.57
 -12  10  -9   -5.05    6.29
  12 -10  10    1.05    5.71
 -12  10 -10   22.19    7.71
  12 -10  11    7.14    6.29
 -12  10 -11   13.43    6.86
  12 -10  12    0.95    5.24
 -12  10 -12   12.86    6.86
  12 -10  13    0.29    5.33
 -12  10 -13    0.76    5.81
  12 -10  14    0.86    5.62
 -12 -10 -14   -1.81    6.38
 -12  10 -14   -3.71    5.62
  12 -11   5   18.00    8.67
  12 -11   6    6.29    8.28
 -12  11  -6   14.00    8.67
  12 -11   7   11.52    8.28
 -12  11  -7    4.00    8.48
  12 -11   8    2.57    7.24
 -12  11  -8    0.00    7.05
  12 -11   9   22.47    7.14
 -12  11  -9   15.52    7.62
  12 -11  10    1.62    5.62
 -12  11 -10    0.00    6.09
  12 -11  11    3.81    5.81
 -12  11 -11    3.90    7.71
  12 -11  12    4.67    5.24
 -12  11 -12    4.76    5.90
  12 -11  13   -0.57    5.43
 -12  11 -13    6.19    6.00
  12 -11  14    0.10    5.24
 -12  11 -14   -7.52    6.19
  12 -12   6   -3.24    7.90
  12 -12   7   51.90   10.86
 -12  12  -7   34.85    9.81
  12 -12   8    3.62    6.48
 -12  12  -8    3.43    7.33
  12 -12   9   52.09   10.28
 -12  12  -9   56.28   11.43
  12 -12  10   -7.24    5.81
 -12  12 -10   -0.67    6.48
  12 -12  11   -5.43    5.24
 -12  12 -11    6.57    6.19
  12 -12  12    1.05    5.62
 -12  12 -12    2.76    5.81
  12 -12  13    0.57    5.33
 -12  12 -13    5.33    6.19
 -12  12 -14    6.76    6.67
  12 -13   7   40.85    9.90
  12 -13   8  140.37   18.66
 -12  13  -8  171.70   21.81
  12 -13   9    0.29    6.38
 -12  13  -9    5.14    6.76
  12 -13  10   12.86    7.33
 -12  13 -10    0.00    6.48
  12 -13  11    6.86    6.67
 -12  13 -11    3.14    6.19
  12 -13  12    3.14    6.00
 -12  13 -12   -0.76   30.66
  12 -13  13    2.19    5.81
 -12  13 -13    7.62    6.29
  12 -14   8    0.76    6.57
  12 -14   9    2.67    6.38
 -12  14  -9    3.14    6.86
  12 -14  10    0.29    6.29
 -12  14 -10    6.00    7.24
  12 -14  11   -2.38    5.90
 -12  14 -11    0.76    6.67
  12 -14  12    6.38    6.38
 -12  14 -12    3.71    6.29
 -12  14 -13    6.00    6.48
  12 -15   9    7.14    6.57
  12 -15  10    2.57    6.38
 -12  15 -10   -0.76    6.48
  12 -15  11   -3.62    6.00
 -12  15 -11    0.95    6.29
  12 -15  12    8.86    7.33
 -12  15 -12   10.19    6.86
  12 -16  10   -0.38    6.67
  12 -16  11    9.43    6.76
 -12  16 -11   -0.10    6.38
 -12  16 -12    6.86    6.95
  12 -17  11    1.81    6.38
  13   0   0    0.95    5.52
 -13   0   0    1.81    5.14
  13   0   1  289.21   30.00
 -13   0   1  271.59   27.52
  13   0  -1  258.45   26.38
  13   0   2    5.14    6.86
 -13   0   2   12.28    4.48
  13   0  -2    3.05    4.48
 -13   0  -2   13.90    6.67
  13   0   3 2642.59  254.17
 -13   0  -3 3013.03  289.40
  13   0   4  274.92   29.90
 -13   0  -4  216.17   24.47
  13   0   5  488.43   50.38
 -13   0  -5  581.66   59.04
  13   0   6   29.33    9.90
 -13   0  -6   18.57    8.95
 -13   0   7  621.37   60.09
  13   0  -7  481.48   46.76
 -13   0   8  109.99   12.28
  13   0  -8  141.41   15.24
 -13   0  -8   84.94   15.43
 -13   0   9   33.52    6.29
  13   0  -9   34.76    6.67
  13   0  10   17.43    8.67
 -13   0  10   22.00    5.90
  13   0 -10   22.19    5.90
 -13   0 -10   35.04   10.38
 -13   0  11  277.21   28.76
  13   0 -11  288.16   30.00
  13   0  12   -4.95    6.00
 -13   0  12   12.00    5.14
  13   0 -12    4.95    5.14
 -13   0 -12    2.86    6.48
  13   0  13    9.33    6.38
 -13   0  13   14.38    5.52
  13   0 -13   25.05    6.57
 -13   0 -13    5.24    6.76
  13   0  14    1.43    6.38
 -13   0  14   -1.33    4.48
  13   0 -14    6.19    4.86
 -13   0 -14    0.19    7.33
  13   0  15    7.14    6.48
 -13   0  15    2.19    4.95
  13   0 -15   15.05    5.71
 -13   0 -15   19.24    8.09
  13   1   0   10.48    5.71
 -13  -1   0   32.66    6.95
  13  -1   0   21.33    6.19
 -13   1   0    9.43    5.14
  13  -1   1    7.81    5.81
 -13   1   1   -0.57    4.57
  13   1  -1    1.24    5.14
 -13  -1  -1    4.38    5.43
  13   1   1   11.90    6.29
 -13  -1   1    0.95    4.95
  13  -1  -1    0.00    4.57
 -13   1  -1    8.38    5.90
  13  -1   2  332.63   34.57
 -13   1   2  244.83   24.57
  13   1   2  335.01   34.85
  13  -1  -2  298.83   29.71
 -13   1  -2  238.07   26.09
  13  -1   3    5.14    6.67
 -13   1   3    7.52    3.24
 -13  -1  -3    7.33    6.86
  13   1   3   -2.48    6.67
  13  -1  -3    4.38    3.52
 -13   1  -3    6.09    6.57
  13  -1   4   98.75   13.81
 -13   1   4   79.04    8.28
  13  -1  -4   72.95    7.71
 -13   1  -4   76.28   12.09
  13  -1   5    0.67    7.43
 -13  -1  -5    4.76    7.71
  13   1   5   14.67    8.48
 -13   1  -5   30.95    9.14
  13  -1   6  379.96   40.38
 -13  -1  -6  366.82   39.33
  13   1   6  308.06   34.00
  13  -1  -6  455.57   43.81
  13  -1   7    7.52    8.57
 -13   1   7    6.95    3.81
 -13  -1  -7    9.71    8.95
  13   1   7    4.67    9.05
  13  -1  -7    3.90    3.81
 -13   1  -7   -1.62    8.48
  13  -1   8   10.67    9.71
 -13   1   8   34.09    6.67
  13   1  -8   27.52    6.19
  13   1   8   29.43   11.24
  13  -1  -8   31.14    6.19
  13  -1   9   -4.57    7.90
 -13   1   9   -1.43    4.38
  13   1  -9    4.29    5.33
 -13  -1  -9    8.28    8.38
  13   1   9    0.67    8.38
 -13  -1   9    0.38    4.86
  13  -1  -9   -1.81    4.95
 -13   1  -9    0.57    8.57
  13  -1  10    3.43    7.43
 -13   1  10   12.47    4.86
  13   1 -10   -0.86    4.95
  13   1  10   27.24    8.76
 -13  -1  10   12.19    5.05
  13  -1 -10    9.71    5.33
 -13   1 -10   23.14    8.76
  13  -1  11    6.57    6.86
 -13   1  11    4.48    4.57
  13   1 -11    0.19    4.48
 -13  -1 -11    5.62    6.67
  13   1  11    6.86    7.05
 -13  -1  11    2.38    4.09
  13  -1 -11    4.19    5.05
 -13   1 -11    8.00    6.95
  13  -1  12    8.19    6.67
 -13   1  12    7.33    4.38
  13   1 -12    5.24    4.86
 -13  -1 -12    4.95    6.48
  13   1  12   -0.76    6.00
 -13  -1  12    5.43    4.48
  13  -1 -12   18.76    6.00
 -13   1 -12    1.24    6.19
  13  -1  13   -0.10    5.81
 -13   1  13    2.57    4.09
  13   1 -13   -0.19    4.09
 -13  -1 -13   -2.57    5.81
  13   1  13   -2.86    5.62
 -13  -1  13    5.14    4.48
  13  -1 -13    1.33    4.67
 -13   1 -13   -4.09    5.90
  13  -1  14    6.95    6.09
 -13   1  14   13.52    5.24
  13   1 -14    0.86    4.29
 -13  -1 -14   21.52    8.67
  13   1  14   12.38    7.24
 -13  -1  14    5.52    4.67
  13  -1 -14    2.48    4.76
 -13   1 -14    0.19   80.56
  13  -1  15   -1.90    6.19
 -13   1  15    0.86    4.29
  13   1 -15    0.86    4.29
 -13  -1 -15   12.00    7.14
  13   1  15   -2.19    6.19
 -13  -1  15    3.43    4.95
  13  -1 -15   -2.10    4.67
 -13   1 -15   -0.38    6.76
  13  -2   0   -2.00    5.33
 -13   2   0   13.05    5.52
  13  -2   1   94.09   12.28
 -13  -2  -1   60.76    9.81
  13  -2  -1   57.14    8.28
 -13   2  -1   93.90   12.28
  13  -2   2    7.43    6.57
 -13   2   2   -0.19    3.71
 -13  -2  -2   11.71    7.05
  13  -2  -2   10.48    4.48
 -13   2  -2   -1.52    5.90
  13  -2   3  361.11   37.42
 -13   2   3  319.49   31.14
 -13  -2  -3  349.01   36.47
  13   2   3  324.16   34.09
  13  -2  -3  305.87   30.00
 -13   2  -3  294.35   31.23
  13  -2   4   14.28    7.43
 -13   2   4   18.00    3.24
 -13  -2  -4   17.24    7.62
  13   2   4   21.24    8.09
  13  -2  -4   14.57    2.86
 -13   2  -4    8.00    7.05
 -13  -2  -5   44.28   10.28
 -13   2  -5   73.90   12.28
  13  -2   6   -3.24    7.90
 -13  -2  -6    6.29    8.57
  13   2   6    8.00    8.67
 -13   2  -6   12.09    8.38
  13  -2   7   81.42   14.09
 -13  -2  -7   38.09   11.52
  13   2   7   39.23   11.24
  13  -2  -7   36.28    5.62
 -13   2  -7   25.62   10.38
  13  -2   8    1.14    9.62
 -13   2   8    9.05    4.76
 -13  -2  -8   11.62    9.90
  13   2   8   11.62    9.71
  13  -2  -8    9.05    5.14
 -13   2  -8    8.28   10.00
  13  -2   9   20.86    9.24
 -13   2   9   11.90    4.57
  13   2  -9    5.81    5.90
 -13  -2  -9    6.57    8.19
  13   2   9   12.09    8.67
 -13  -2   9   16.47    5.90
  13  -2  -9   12.47    5.33
 -13   2  -9   29.71   10.09
  13  -2  10    2.95    7.43
 -13   2  10    1.14    4.19
  13   2 -10    7.90    5.81
 -13  -2 -10    8.76    8.00
  13   2  10    4.86    7.14
 -13  -2  10    5.90    4.76
  13  -2 -10    6.67    5.14
 -13   2 -10   12.86    8.00
  13  -2  11   31.23    9.24
 -13   2  11   10.67    4.86
  13   2 -11    9.05    5.05
 -13  -2 -11   21.05    8.38
  13   2  11   20.76    8.38
 -13  -2  11   14.57    5.14
  13  -2 -11    7.71    5.52
 -13   2 -11   14.28    8.00
  13  -2  12   -4.38    6.00
 -13   2  12    3.33    4.19
  13   2 -12   -2.48    4.48
 -13  -2 -12    2.95    6.38
  13   2  12    2.19    6.19
 -13  -2  12    3.90    4.48
  13  -2 -12   -3.43    4.57
 -13   2 -12   -6.76    6.48
  13  -2  13    5.90    6.29
 -13   2  13    1.62   23.81
  13   2 -13   18.09    5.90
 -13  -2 -13   -0.38    9.24
  13   2  13    3.43    6.29
 -13  -2  13    3.33    4.57
  13  -2 -13    3.14    4.76
 -13   2 -13   -0.19    6.67
  13  -2  14    1.05    6.19
 -13   2  14   -4.19    4.00
  13   2 -14   -4.29   23.90
 -13  -2 -14   -0.29    6.48
  13   2  14   -9.24    6.09
 -13  -2  14   -0.29    4.19
  13  -2 -14    4.57    4.67
 -13   2 -14   -1.43    6.38
  13  -2  15    4.86    6.48
 -13   2  15    9.14    4.86
  13   2 -15   -3.62    6.48
 -13  -2 -15   -2.10    6.76
  13   2  15   -7.81    6.29
 -13  -2  15    7.81    5.14
  13  -2 -15   -1.71   10.86
 -13   2 -15    7.62    7.71
  13  -3   0    8.57    5.24
 -13   3   0    8.38    5.05
  13  -3   1   69.04   10.00
 -13   3   1   48.38    7.71
  13  -3  -1   82.09   10.19
 -13   3  -1   76.47   10.76
  13  -3   2  510.71   51.33
 -13   3   2  524.23   51.04
  13  -3  -2  459.10   44.95
 -13   3  -2  574.13   57.23
  13  -3   3   28.28    7.81
 -13   3   3   20.00    4.29
 -13  -3  -3   14.86    7.71
  13   3   3   34.09    8.57
  13  -3  -3   19.33    4.48
 -13   3  -3   28.38    8.67
 -13  -3  -4   33.81    9.33
  13   3   4    6.00    7.33
 -13   3  -4    3.71    6.67
  13  -3   5   25.71    8.57
 -13  -3  -5   38.57   10.38
  13   3   5   57.04   11.71
 -13   3  -5   31.62    8.76
  13  -3   6  103.80   15.24
 -13  -3  -6  108.18   16.28
  13   3   6  101.04   15.62
 -13   3  -6   88.28   13.90
  13  -3   7   -0.38    9.24
 -13  -3  -7   17.71   10.09
  13   3   7    7.71    9.52
  13  -3   8   28.00   10.28
 -13  -3  -8   19.81   10.28
  13   3   8   18.28   10.38
  13  -3  -8   29.24    6.38
 -13   3  -8   17.43   10.48
  13  -3   9    6.76    8.19
 -13   3   9    5.24    4.57
 -13  -3  -9    5.90    8.09
  13   3   9   -2.57    7.62
 -13  -3   9    8.09    5.90
  13  -3  -9    0.48    5.05
 -13   3  -9   -3.71    8.19
  13  -3  10    6.95    7.90
 -13   3  10    3.62    4.57
 -13  -3 -10    8.48    7.90
  13   3  10   -2.10    6.76
  13  -3 -10    7.14    5.05
 -13   3 -10    2.57    7.62
  13  -3  11   -0.67    6.38
 -13   3  11    4.38    4.57
  13   3 -11    4.76    5.33
 -13  -3 -11    9.62    7.62
  13   3  11    7.05    7.14
 -13  -3  11    9.90    4.67
  13  -3 -11   -1.43    4.86
 -13   3 -11    2.00    6.95
  13  -3  12   -1.43    6.29
 -13   3  12   -3.24    4.09
  13   3 -12    4.67    4.86
 -13  -3 -12    1.05    6.00
  13   3  12    3.24    6.67
 -13  -3  12    1.33    4.19
  13  -3 -12   -0.67    4.57
 -13   3 -12    1.90    6.57
  13  -3  13    8.86    6.48
 -13   3  13    3.71    4.29
  13   3 -13    9.43    5.43
 -13  -3 -13    3.81    6.67
  13   3  13    5.33    6.57
 -13  -3  13    8.86    4.76
  13  -3 -13   12.19    5.24
 -13   3 -13    5.52    6.57
  13  -3  14    0.95    6.29
 -13   3  14   -1.05    4.19
  13   3 -14    2.67    4.95
 -13  -3 -14    6.67    7.05
  13   3  14    1.90    6.76
 -13  -3  14    1.14    4.86
  13  -3 -14    2.76    4.57
 -13   3 -14    6.76    7.05
  13  -3  15    0.19    6.29
 -13   3  15    0.57    4.38
  13   3 -15   -4.48    4.67
 -13  -3 -15    3.52    6.57
  13   3  15    9.71    7.14
 -13  -3  15    7.71   86.28
  13  -3 -15   -3.71    4.67
 -13   3 -15   14.09    7.90
  13  -4   0    0.19    4.86
 -13   4   0   -0.95    5.24
  13  -4   1    6.95    5.52
 -13   4   1   -1.24    5.05
  13  -4  -1    0.57    4.57
 -13   4  -1    5.14    5.62
  13  -4   2   11.24    6.19
 -13   4   2    6.09    4.76
  13  -4  -2   -0.29    4.57
 -13   4  -2   -1.24    5.81
  13  -4   4    6.76    6.57
 -13  -4  -4   -4.19    8.00
  13   4   4   15.24    8.09
 -13   4  -4    0.38    6.38
  13  -4   5    2.76    6.57
 -13  -4  -5    6.57    8.48
  13   4   5    6.00    8.09
 -13   4  -5    1.33    6.67
  13  -4   6   -2.76    8.48
 -13  -4  -6    7.14    9.05
  13   4   6   17.05    9.05
 -13   4  -6    0.76    7.62
  13  -4   7   40.76   10.95
 -13  -4  -7   32.57   11.43
  13   4   7   25.33   11.05
 -13   4  -7   57.61   11.71
  13  -4   8    8.38    8.86
 -13  -4  -8    6.09    9.81
  13   4   8    0.19    9.05
 -13   4  -8    6.76    9.05
  13  -4   9    6.09    8.00
 -13  -4  -9   -0.67    7.81
  13   4   9   -2.95    7.71
 -13   4  -9    7.81    8.48
  13  -4  10   -6.67    6.57
 -13   4  10    0.86    4.67
 -13  -4 -10    1.71    7.14
  13   4  10  -10.28    6.95
 -13  -4  10    2.67    5.14
  13  -4 -10    0.67    5.05
 -13   4 -10    2.57    7.24
  13  -4  11    5.14    6.67
 -13   4  11    5.52    4.86
  13   4 -11    2.38    4.86
 -13  -4 -11   -3.52    6.38
  13   4  11    6.86    6.86
 -13  -4  11   14.57    5.43
  13  -4 -11    2.10    5.05
 -13   4 -11    5.33    7.14
  13  -4  12    0.19    6.38
 -13   4  12    3.05    4.48
  13   4 -12   -3.24    4.95
 -13  -4 -12   -2.76    5.62
  13   4  12    5.24    6.38
 -13  -4  12   -1.24    4.48
  13  -4 -12   -1.90    5.52
 -13   4 -12    3.43    6.57
  13  -4  13   10.57    6.67
 -13   4  13    6.19    4.38
  13   4 -13    1.14    4.95
 -13  -4 -13    3.71    6.19
  13   4  13   -3.62    6.09
 -13  -4  13    2.10    4.48
  13  -4 -13    6.48    4.86
 -13   4 -13    1.43    6.48
  13  -4  14   -2.57    5.90
 -13   4  14    1.14    4.29
  13   4 -14   -1.24    4.67
 -13  -4 -14    8.09    7.14
  13   4  14    5.05    6.00
 -13  -4  14    0.57    4.48
  13  -4 -14   -3.05   19.90
 -13   4 -14   -9.24    5.81
  13  -4  15   -5.05    6.29
 -13   4  15   -3.33    4.38
  13   4 -15    0.95    4.76
 -13  -4 -15   -4.76    6.09
  13   4  15    1.14    6.86
 -13  -4  15    1.81    4.76
  13  -4 -15    3.81    4.95
 -13   4 -15   10.67    7.71
  13  -5   0   27.14    6.86
 -13   5   0   34.09    7.43
  13  -5   1  155.32   17.71
 -13   5   1  119.04   14.00
  13  -5  -1  135.89   15.43
 -13   5  -1  133.13   15.90
  13  -5   2 1704.59  164.65
 -13   5  -2 1749.35  168.94
  13  -5   3   14.19    6.29
 -13   5  -3    8.38    6.67
  13  -5   5  159.41   19.24
 -13   5  -5  153.41   19.14
  13  -5   7    9.62    7.71
 -13  -5  -7   26.00   10.95
  13   5   7    0.00    9.52
 -13   5  -7    4.09    8.09
  13  -5   8   90.09   14.28
 -13  -5  -8   81.13   14.76
 -13   5  -8   54.28   11.62
  13  -5   9    7.81    7.43
 -13  -5  -9   20.19    9.43
  13   5   9   -0.67    7.52
 -13   5  -9   20.76    8.19
  13  -5  10   14.00    7.52
 -13  -5 -10    0.57    8.00
  13   5  10   13.62    8.09
 -13   5 -10   12.86    7.14
  13  -5  11    5.43    6.48
 -13  -5 -11    1.62    6.86
  13   5  11    5.14    7.43
 -13  -5  11   -3.62    4.67
  13  -5 -11    5.71    5.43
 -13   5 -11   -7.05    5.81
  13  -5  12   45.04   10.09
  13   5 -12   55.04    9.52
 -13  -5 -12   47.52   10.57
  13   5  12   43.90   10.19
 -13  -5  12   42.28    8.00
  13  -5 -12   37.81    7.62
 -13   5 -12   74.75   12.67
  13  -5  13   11.24    6.86
 -13   5  13   13.90    5.33
  13   5 -13    8.00    5.62
 -13  -5 -13   14.67    6.95
  13   5  13   14.38    7.24
 -13  -5  13    3.62    5.33
  13  -5 -13   11.43    5.52
 -13   5 -13   10.48    6.95
  13  -5  14    9.05    6.95
 -13   5  14    1.33    4.48
  13   5 -14    5.71    5.43
 -13  -5 -14   14.00    8.09
  13   5  14    1.81    6.48
 -13  -5  14   10.67    5.24
  13  -5 -14    6.76    5.05
 -13   5 -14    4.95    6.86
  13  -5  15    1.24    6.38
 -13   5  15    0.19    4.86
  13   5 -15   -2.29    4.76
 -13  -5 -15    7.33    6.57
  13   5  15    4.19    6.19
 -13  -5  15    2.57    4.95
  13  -5 -15    4.57    4.95
 -13   5 -15    8.86    7.52
  13  -6   0    8.95    6.00
 -13   6   0    1.81    5.71
  13  -6   1   31.52    7.62
 -13   6  -1   31.14    7.81
  13  -6   2   12.19    6.38
 -13   6  -2   11.90    6.86
  13  -6   4    1.43    6.38
 -13   6  -4    1.52    6.67
  13  -6   6   15.43    8.28
 -13   6  -6    1.62    7.52
 -13  -6  -7   53.80   13.43
 -13   6  -7   84.66   13.81
  13  -6   8   -4.67    7.24
 -13  -6  -8   17.90    9.43
  13   6   8   16.86    8.95
 -13   6  -8    7.14    7.71
  13  -6   9   22.00    7.71
 -13  -6  -9   18.28    9.14
  13   6   9   16.09    8.38
  13  -6  10    2.38    5.90
 -13  -6 -10   -1.24    7.52
  13   6  10    3.33    7.43
 -13   6 -10   -0.29    6.19
  13  -6  11   39.81    9.14
 -13  -6 -11   46.09   10.95
  13   6  11   53.52   11.33
 -13   6 -11   26.95    8.38
  13  -6  12   -0.19    5.52
 -13  -6 -12    1.14    6.76
  13   6  12   -0.76   93.04
 -13  -6  12   -0.29    4.86
 -13   6 -12    4.19    5.43
  13  -6  13    4.57    6.19
  13   6 -13    4.57    5.52
 -13  -6 -13    3.52    6.19
  13   6  13    0.86    6.57
 -13  -6  13    7.90    5.43
  13  -6 -13   -0.86   12.00
 -13   6 -13    9.33    5.71
  13  -6  14    5.81    6.76
 -13   6  14   -7.52    4.38
  13   6 -14   -3.43    5.14
 -13  -6 -14    3.81    6.95
  13   6  14   -3.90    6.00
 -13  -6  14    6.48    5.33
  13  -6 -14    1.90    4.95
 -13   6 -14    3.43    5.43
  13  -6  15   16.57    8.48
 -13   6  15   11.24    5.81
  13   6 -15    0.48    5.52
 -13  -6 -15    8.09    6.95
 -13  -6  15    3.43    5.14
  13  -6 -15    6.67    9.14
 -13   6 -15    6.00    6.67
  13  -7   1   18.28    6.95
 -13   7  -1    8.76    6.29
  13  -7   3    6.38    6.29
 -13   7  -3    1.05    6.48
  13  -7   4  151.22   18.38
 -13   7  -4  216.93   24.85
  13  -7   5    1.62    6.95
 -13   7  -5   11.81    8.38
  13  -7   6    8.19    7.71
 -13   7  -6    5.71    8.19
  13  -7   7    3.71    7.24
 -13   7  -7   14.38    8.38
  13  -7   8   12.19    7.71
 -13   7  -8   10.95    8.09
  13  -7   9    3.33    6.57
 -13  -7  -9   -1.90    8.48
 -13   7  -9    5.05    6.95
  13  -7  10   26.09    7.52
 -13  -7 -10   36.57   10.19
  13   7  10   25.14    8.95
 -13   7 -10   58.47   11.05
  13  -7  11   -0.38    5.52
 -13  -7 -11    7.52    7.14
  13   7  11    6.00    6.76
 -13   7 -11    5.24    5.81
  13  -7  12    2.00    5.71
 -13  -7 -12   10.48    7.43
  13   7  12    2.57    5.90
 -13   7 -12    0.19    5.52
  13  -7  13    4.09    5.52
 -13  -7 -13    7.71    6.67
  13   7  13    6.95    6.76
 -13  -7  13   -0.57    4.95
 -13   7 -13    8.67    6.00
  13  -7  14    0.48    7.90
  13   7 -14   -1.05    5.52
 -13  -7 -14    5.62    7.62
  13   7  14    2.10    6.00
 -13  -7  14    8.76    5.52
  13  -7 -14    2.10    5.05
 -13   7 -14    2.48    5.52
  13   7 -15   -3.05   11.81
 -13  -7 -15    3.33    7.14
 -13  -7  15   -1.71    7.71
  13  -7 -15    4.29    6.00
 -13   7 -15   -0.38    6.57
  13  -8   3  302.26   32.47
 -13   8  -3  238.26   26.76
  13  -8   4   70.28   12.09
 -13   8  -4  123.32   16.86
  13  -8   5   11.14    8.09
 -13   8  -5    9.14    8.28
  13  -8   8    1.52    7.24
 -13   8  -8    5.52    7.81
  13  -8   9    0.67    5.90
 -13   8  -9    8.48    6.76
  13  -8  10    4.00    5.62
 -13  -8 -10   11.05    8.00
 -13   8 -10    5.33    6.19
  13  -8  11   -2.95    5.52
 -13  -8 -11   -2.38    6.86
  13   8  11    7.71    7.33
 -13   8 -11   17.14    7.52
  13  -8  12   14.86   11.33
 -13  -8 -12   24.09    8.57
  13   8  12   12.19    6.67
 -13   8 -12    4.29    5.90
  13  -8  13   25.71    7.90
 -13  -8 -13   13.90    8.28
  13   8  13   27.71    8.76
 -13   8 -13   28.95    8.38
  13  -8  14    2.48    5.52
 -13  -8 -14    4.48    7.24
  13   8  14    4.95    6.48
 -13  -8  14   -0.86    5.14
 -13   8 -14   -0.19    5.62
  13  -9   3    6.86    7.81
 -13   9  -3    6.86    7.90
  13  -9   4   24.28    9.24
 -13   9  -4   16.28    8.86
  13  -9   5    2.19    7.90
 -13   9  -5   -6.76    7.81
  13  -9   6   29.90    9.33
 -13   9  -6   14.76    8.67
  13  -9   7   -2.76    6.86
 -13   9  -7    3.33    8.00
  13  -9   8   -0.29    6.57
 -13   9  -8    3.24    7.52
  13  -9   9    6.09    6.00
 -13   9  -9    2.29    6.29
  13  -9  10   -2.76    5.52
 -13   9 -10   -3.81    5.43
  13  -9  11   -1.14    5.24
 -13   9 -11   -0.57    5.81
  13  -9  12   19.81    7.62
 -13  -9 -12    1.43    6.48
 -13   9 -12   16.47    7.14
  13  -9  13   -4.86    4.95
 -13  -9 -13   -2.48    6.67
  13   9  13   -4.57   26.57
 -13   9 -13   -9.52    5.52
  13  -9  14    8.38    5.62
 -13  -9 -14    9.05    8.19
  13   9  14   -7.43   24.00
 -13   9 -14    4.95    6.57
  13 -10   4   49.52   10.86
 -13  10  -4   28.95    9.71
  13 -10   5  132.27   18.00
 -13  10  -5  129.32   17.81
  13 -10   6    6.48    8.38
 -13  10  -6   40.28   10.95
  13 -10   7   59.52   11.90
 -13  10  -7   49.33   11.14
  13 -10   8    3.43    6.19
 -13  10  -8    2.10    6.86
  13 -10   9    9.05    6.09
 -13  10  -9    1.71    6.38
  13 -10  10   -1.90    5.33
 -13  10 -10   -3.24    6.00
  13 -10  11    4.86    6.19
 -13  10 -11   11.43    7.14
  13 -10  12   -1.24    5.43
 -13  10 -12    2.86    5.71
  13 -10  13    2.38    5.62
 -13 -10 -13   11.14    7.33
 -13  10 -13   15.24    6.95
  13 -10  14    8.57    6.38
 -13 -10 -14    3.81    7.14
 -13  10 -14    2.57    6.00
  13 -11   5    6.19    8.38
 -13  11  -5    0.86    8.00
  13 -11   6   13.81    8.48
 -13  11  -6   32.66    9.71
  13 -11   7   -1.71    7.24
 -13  11  -7    4.86    7.43
  13 -11   8    7.05    6.76
 -13  11  -8   32.95    9.05
  13 -11   9    0.76    5.52
 -13  11  -9    2.76    6.19
  13 -11  10   -0.19    5.71
 -13  11 -10    0.10    6.09
  13 -11  11    1.05    5.71
 -13  11 -11   -3.90    5.90
  13 -11  12    9.43    6.19
 -13  11 -12   -1.14    5.71
  13 -11  13  -12.00    5.33
 -13  11 -13    5.14    5.90
 -13  11 -14    6.38    6.48
  13 -12   6    3.81    7.24
 -13  12  -6    2.48    7.43
  13 -12   7   -7.33    6.38
 -13  12  -7    5.43    6.95
  13 -12   8    1.62    6.09
 -13  12  -8  -13.71    6.09
  13 -12   9    3.33    6.38
 -13  12  -9    5.81    6.67
  13 -12  10    0.10   20.00
 -13  12 -10    8.86    6.67
  13 -12  11    1.62    5.71
 -13  12 -11    0.67    6.00
  13 -12  12    2.76    5.33
 -13  12 -12   -7.90    5.81
  13 -12  13   16.57    7.05
 -13  12 -13    5.62    6.57
  13 -13   7    7.05    6.76
  13 -13   8   56.18   11.43
 -13  13  -8   34.57    9.62
  13 -13   9   10.09    7.05
 -13  13  -9    3.71    7.24
  13 -13  10   28.76    8.57
 -13  13 -10   30.66    8.95
  13 -13  11    2.38    6.29
 -13  13 -11    0.00    6.38
  13 -13  12    6.19    6.00
 -13  13 -12    8.67    6.76
 -13  13 -13   -0.48    6.09
  13 -14   8    9.33    6.76
  13 -14   9    2.19   25.90
 -13  14  -9    1.33    6.57
  13 -14  10    2.29    6.09
 -13  14 -10    6.67    6.67
  13 -14  11   17.71    7.43
 -13  14 -11   18.09    8.00
  13 -14  12   -1.62    6.38
 -13  14 -12    2.19    6.38
  13 -15   9    4.19    6.38
  13 -15  10   32.38    9.14
 -13  15 -10   19.14    8.00
  13 -15  11    0.00    5.81
 -13  15 -11    2.86    6.09
  13 -15  12    9.71    8.00
 -13  15 -12   12.57    8.00
  13 -16  10    6.76    7.05
  13 -16  11   19.52    8.57
 -13  16 -11   18.76    8.76
  14   0   0   87.13   11.62
 -14   0   0   67.33    9.71
  14   0   1    9.24    6.48
 -14   0   1    6.48    4.76
  14   0  -1   14.00    5.71
 -14   0  -1    1.52    5.81
  14   0   2    7.81    6.95
 -14   0   2    9.62    4.38
  14   0  -2    4.86    4.57
 -14   0  -2   14.76    6.76
  14   0   3  260.45   28.66
 -14   0  -3  313.30   33.43
  14   0   4   15.43    8.19
 -14   0  -4    1.14    7.81
  14   0   5  771.54   77.23
 -14   0  -5  888.39   88.28
  14   0   6  211.60   25.24
 -14   0  -6  227.50   26.85
  14   0   7  166.36   21.90
 -14   0   7  162.65   16.57
 -14   0  -7  234.93   28.09
  14   0   8   47.04   11.14
 -14   0  -8   44.38   11.43
  14   0   9  130.37   18.00
 -14   0  -9  144.27   19.71
 -14   0  10   -0.29    4.00
  14   0 -10    2.48    4.19
  14   0  11   27.43    9.14
 -14   0  11   29.33    6.09
  14   0 -11   24.00    5.71
 -14   0 -11   19.05    9.05
  14   0  12   41.71   10.00
 -14   0  12   28.66    6.48
 -14   0 -12   31.23    9.43
  14   0  13    0.19    5.71
  14   0 -13    4.67    5.05
 -14   0 -13   18.86    7.14
  14   0  14   12.47    7.05
 -14   0  14   12.95    5.43
  14   0 -14   12.28    5.43
 -14   0 -14   16.38    7.43
  14   0  15    0.29    5.90
 -14   0  15   -0.76    4.48
  14   0 -15    1.90    4.67
 -14   0 -15    7.62    6.48
 -14  -1   0   28.47    6.86
  14  -1   0   44.76    8.00
 -14   1   0   32.85    6.76
  14  -1   1    9.24    6.19
 -14   1   1   18.00    5.43
  14   1  -1    6.76    5.24
 -14  -1  -1   14.57    6.38
  14   1   1    8.48    6.48
 -14  -1   1    4.00    5.24
  14  -1  -1   10.95    5.24
 -14   1  -1    4.48    5.90
  14  -1   2   11.81    6.76
 -14   1   2   18.47    4.86
 -14  -1  -2   25.90    7.71
  14   1   2   16.66    7.52
  14  -1  -2   28.19    5.81
 -14   1  -2   23.90    7.43
  14  -1   3   12.19    7.14
 -14   1   3    2.57    3.43
 -14  -1  -3   10.38    7.05
  14   1   3   -7.52    6.86
  14  -1  -3    5.43    3.90
 -14   1  -3   -3.81    6.38
 -14   1   4   12.86    3.33
 -14  -1  -4   18.38    8.48
  14   1   4   19.62    8.57
  14  -1  -4   34.28    4.95
 -14   1  -4   21.05    8.38
  14  -1   5    1.90    8.00
 -14  -1  -5   12.00    8.57
  14   1   5   11.52    8.38
 -14   1  -5    2.48    7.52
  14  -1   6    4.76    8.95
 -14   1   6   11.52    2.19
 -14  -1  -6    6.57    8.76
  14   1   6   12.09    9.43
  14  -1  -6    6.67    2.48
  14  -1   7   21.52   10.09
 -14   1   7   24.38    4.38
 -14  -1  -7    5.90    9.62
  14   1   7   14.95    9.81
  14  -1  -7   19.14    3.81
 -14   1  -7   14.09    9.62
  14  -1   8   16.57    8.57
 -14  -1  -8   -3.62    8.57
  14   1   8    4.95    8.28
 -14  -1   8    4.86    4.76
  14  -1  -8    4.76    4.19
 -14   1  -8    5.24    8.67
  14  -1   9   14.95    8.09
 -14   1   9   17.81    4.67
  14   1  -9    0.86    4.95
 -14  -1  -9   -0.76    7.71
  14   1   9   -0.67    7.62
 -14  -1   9   -1.33    4.19
  14  -1  -9    4.09    4.67
 -14   1  -9    9.81    8.00
  14  -1  10    9.52    6.95
 -14   1  10   26.38    5.52
  14   1 -10    4.95    4.38
 -14  -1 -10    1.71    7.62
  14   1  10    0.19    6.95
 -14  -1  10    2.95    4.00
  14  -1 -10    8.76    4.76
 -14   1 -10   -4.29    7.05
  14  -1  11   -2.10    6.57
 -14   1  11   11.33    4.48
  14   1 -11    1.43    4.29
 -14  -1 -11    0.10    7.05
  14   1  11   -0.29    7.14
 -14  -1  11    3.71    4.00
  14  -1 -11   -0.38    4.48
 -14   1 -11    0.67    6.76
  14  -1  12    1.62    6.00
 -14   1  12    7.71    4.09
  14   1 -12    1.81    4.48
 -14  -1 -12    2.29    6.00
  14   1  12   -0.95    6.00
 -14  -1  12   -0.57    4.00
  14  -1 -12    4.95    4.76
 -14   1 -12    5.33    6.09
  14  -1  13   -1.43    5.62
 -14   1  13    1.90    4.76
  14   1 -13   -1.14    4.29
 -14  -1 -13   -3.62    5.43
  14   1  13   -0.29    6.09
 -14  -1  13   -1.62    4.00
  14  -1 -13    0.00    4.67
 -14   1 -13   -2.76    5.81
  14  -1  14    3.43    6.48
 -14   1  14    1.43   12.47
  14   1 -14    0.95    4.48
 -14  -1 -14   -0.10    6.09
  14   1  14   -2.29    5.81
 -14  -1  14    4.09    4.86
  14  -1 -14   -0.19    4.57
 -14   1 -14    4.00    6.19
  14  -1  15    0.76    6.09
 -14   1  15    1.43    4.38
  14   1 -15    2.76    4.38
 -14  -1 -15   12.00    7.33
  14   1  15   -6.95    5.43
 -14  -1  15   -3.71   34.57
  14  -1 -15    0.38    4.57
 -14   1 -15    1.14    6.00
 -14  -2   0   13.81    6.09
  14  -2   0   14.67    5.90
  14  -2   1   31.33    7.43
 -14   2   1   12.38    5.14
  14  -2  -1   35.43    6.67
 -14   2  -1   19.81    6.38
  14  -2   2   -2.38    6.38
 -14   2   2    3.24    4.29
 -14  -2  -2    2.67    6.86
  14   2   2   -9.24    6.38
  14  -2  -2    7.43    4.57
 -14   2  -2   11.43    6.57
 -14   2   3   33.23    4.95
 -14  -2  -3   34.00    9.33
  14   2   3   22.85    8.38
  14  -2  -3   19.62    4.38
 -14   2  -3    7.33    6.95
  14  -2   4    5.62    7.81
 -14   2   4   -3.71    2.57
 -14  -2  -4   -3.52    7.81
  14   2   4    1.52    8.00
  14  -2  -4    3.43    2.67
 -14   2  -4   10.38    7.14
  14  -2   5    8.00    8.38
 -14  -2  -5    4.57    7.81
  14   2   5    4.76    8.38
 -14   2  -5   -0.10    7.52
  14  -2   6   34.28   10.67
 -14  -2  -6   35.71   10.57
  14   2   6   18.09    9.52
 -14   2  -6   28.00    9.81
  14  -2   7   34.00   10.86
 -14  -2  -7   28.09   11.05
  14  -2  -7   56.28    6.95
  14  -2   8    9.43    8.57
 -14   2   8    3.81    3.62
 -14  -2  -8   13.43    8.67
  14   2   8   -5.81    7.90
  14  -2  -8    2.76    4.00
 -14   2  -8    2.48    8.95
  14  -2   9    2.86    7.81
 -14   2   9    9.05    3.81
 -14  -2  -9   -0.10    6.76
  14   2   9   -3.71    7.05
 -14  -2   9    3.05    4.76
  14  -2  -9    5.05    4.48
 -14   2  -9    7.14    7.81
  14  -2  10   -2.57    6.67
 -14   2  10    1.43    3.81
  14   2 -10   -1.43    4.76
 -14  -2 -10   -7.52    6.57
  14   2  10   -2.95    6.67
 -14  -2  10    0.86    3.90
  14  -2 -10   -2.95    4.48
 -14   2 -10    2.57    7.62
  14  -2  11    4.57    6.67
 -14   2  11    2.38    4.09
  14   2 -11    4.86    4.38
 -14  -2 -11    7.43    6.95
  14   2  11    2.86    6.76
  14  -2 -11   -2.86    4.67
 -14   2 -11   -4.67    6.95
  14  -2  12   -2.00    5.43
 -14   2  12    1.62    3.62
  14   2 -12   -2.76    5.43
 -14  -2 -12    6.09    6.38
  14   2  12   -2.38    5.90
 -14  -2  12    0.76    4.38
  14  -2 -12    2.19    4.67
 -14   2 -12   -0.38    6.67
  14  -2  13   -4.29    5.90
 -14   2  13   -0.95    3.81
  14   2 -13   -0.29    4.57
 -14  -2 -13    5.62    6.38
  14   2  13    0.76    6.09
 -14  -2  13    0.86    4.19
  14  -2 -13    2.67    4.57
 -14   2 -13    1.52    6.48
  14  -2  14    5.33    5.90
 -14   2  14    4.67    4.19
  14   2 -14    2.38    4.29
 -14  -2 -14   -2.29    5.62
  14   2  14   -3.14    6.00
 -14  -2  14   -2.48    4.19
  14  -2 -14   -0.38   11.24
 -14   2 -14   -1.43    6.19
  14  -2  15   -3.71 3391.09
 -14   2  15    2.29    4.29
  14   2 -15    4.29    4.86
 -14  -2 -15    0.10    6.19
  14   2  15   10.00    7.24
 -14  -2  15   -5.24    4.29
  14  -2 -15    2.38   42.19
 -14   2 -15   -0.86    6.19
  14  -3   0  369.77   37.23
 -14   3   0  309.78   31.71
  14  -3   1    6.19    5.81
 -14   3   1    2.00    4.48
  14  -3  -1    7.43    4.76
 -14   3  -1    3.24    5.43
  14  -3   2    9.43    6.76
 -14   3   2    8.48    4.48
 -14  -3  -2   45.80    9.52
  14  -3  -2   17.14    4.67
 -14   3  -2   15.43    6.48
  14  -3   3   20.00    7.43
 -14   3   3    1.05    3.52
 -14  -3  -3    3.05    7.71
  14   3   3   -0.76    7.24
  14  -3  -3    9.90    3.90
 -14   3  -3    5.71    6.57
  14  -3   4   54.38   10.48
  14   3   4   25.62    9.14
 -14   3  -4   18.47    8.00
  14  -3   5   18.00    8.76
 -14  -3  -5   33.33   10.48
  14   3   5   25.24    9.90
 -14   3  -5   32.66    9.24
  14  -3   6  230.07   26.66
 -14  -3  -6  171.13   22.00
  14   3   6  178.93   22.57
  14  -3   7   -7.52    8.86
 -14  -3  -7    9.81    9.71
  14   3   7   -5.24    9.05
 -14   3  -7    8.95    8.76
  14  -3   8    4.29    8.09
 -14  -3  -8   11.14    8.48
  14   3   8   -0.29    8.19
 -14   3  -8   -9.24    7.81
  14  -3   9    2.19    7.43
 -14   3   9    3.71    4.00
 -14  -3  -9   -4.19    6.86
  14   3   9    4.29    7.62
  14  -3  -9    9.05    5.43
 -14   3  -9   19.05    8.95
  14  -3  10    6.57    6.95
 -14   3  10   26.85    5.62
 -14  -3 -10   -4.48    6.67
  14   3  10    4.57    6.95
 -14  -3  10   12.86    5.14
  14  -3 -10    4.86    4.67
 -14   3 -10    5.62    7.52
  14  -3  11    2.67    6.67
 -14   3  11   -2.48    3.90
  14   3 -11    5.90    4.95
 -14  -3 -11    1.62    6.29
  14   3  11    5.52    7.33
 -14  -3  11    5.24   18.86
  14  -3 -11   -5.52    4.57
 -14   3 -11    6.76    6.67
  14  -3  12    4.76    6.57
 -14   3  12   -1.33    3.71
  14   3 -12   20.19    6.19
  14   3  12   14.19    7.14
 -14  -3  12   -0.95    4.29
  14  -3 -12    9.43    4.76
 -14   3 -12   -4.95    6.29
  14  -3  13   -5.81    6.48
 -14   3  13   -1.71    3.71
  14   3 -13    0.10    4.57
 -14  -3 -13   -3.71    5.52
  14   3  13   -6.38    5.81
 -14  -3  13    3.14    4.57
  14  -3 -13   -1.71    4.57
 -14   3 -13   11.43    6.86
  14  -3  14   -1.24    6.57
 -14   3  14    2.57   97.42
  14   3 -14    5.05    5.14
 -14  -3 -14   24.00    8.00
  14   3  14   14.57    7.05
 -14  -3  14   21.33    6.29
  14  -3 -14    2.29    6.09
 -14   3 -14   13.14    7.52
  14  -3  15    4.67    6.76
 -14   3  15   -1.24    4.19
  14   3 -15   -1.24    4.57
 -14  -3 -15    0.76    5.81
  14   3  15   -4.29    8.86
 -14  -3  15    0.38   54.28
  14  -3 -15   -4.38    4.19
 -14   3 -15    6.19    6.86
  14  -4   0    5.33    5.14
 -14   4   0    4.38    5.24
  14  -4   1    1.71    5.24
 -14   4   1    8.57    5.14
  14  -4  -1    3.33    4.48
 -14   4  -1    5.52    5.62
  14  -4   2    9.52    6.09
 -14   4   2    3.43    4.76
  14  -4  -2   -2.95    4.57
 -14   4  -2   14.38    6.19
  14  -4   3    2.29    5.90
 -14   4  -3    3.52    6.38
  14  -4   4    2.38    6.67
 -14  -4  -4   32.38    9.81
  14   4   4    4.38    8.09
 -14   4  -4   -3.52    6.57
  14  -4   5   15.43    7.71
 -14  -4  -5   19.90    9.62
  14   4   5   23.33    9.43
 -14   4  -5   42.47    9.71
  14  -4   6    1.52    8.19
 -14  -4  -6    7.33    9.43
  14   4   6    2.10    9.05
 -14   4  -6    1.62    7.81
  14  -4   7   22.85    9.05
 -14  -4  -7   25.62   10.95
  14   4   7    5.90    9.52
 -14   4  -7   20.86    8.86
  14  -4   8   10.86    8.48
 -14  -4  -8   -4.95    8.38
  14   4   8   12.19    8.28
 -14   4  -8    4.00    8.48
  14  -4   9    0.29    7.33
 -14  -4  -9    8.48    7.43
  14   4   9   -1.81    7.14
 -14   4  -9   15.52    8.09
  14  -4  10   -1.81    6.57
 -14  -4 -10   -2.57    6.86
  14   4  10   -2.57    6.86
  14  -4 -10    0.10    4.57
 -14   4 -10   -0.48    7.05
  14  -4  11    5.05    6.48
 -14   4  11    1.52    4.48
 -14  -4 -11    1.24    6.38
  14   4  11    2.57    6.29
 -14  -4  11    0.86    4.48
  14  -4 -11    0.48    4.76
 -14   4 -11   -0.29    6.67
  14  -4  12    1.62    6.09
 -14   4  12    4.95    4.19
  14   4 -12    2.19    5.14
 -14  -4 -12    1.62    5.90
  14   4  12    0.86    6.09
 -14  -4  12    1.62    4.67
  14  -4 -12   -0.29    4.48
 -14   4 -12    9.71   23.33
  14  -4  13    1.05    6.48
 -14   4  13    0.10   25.05
  14   4 -13    2.00    4.86
 -14  -4 -13    6.95    5.90
  14   4  13   -1.52    6.29
 -14  -4  13    5.33    4.57
  14  -4 -13    0.19    8.19
 -14   4 -13    3.24    6.19
  14  -4  14    2.10    5.90
 -14   4  14   -0.10    3.90
  14   4 -14    5.81    5.05
 -14  -4 -14   -5.71    5.33
  14   4  14   -3.90    6.19
 -14  -4  14   -1.71    4.38
  14  -4 -14   -2.48    4.29
 -14   4 -14    4.38    7.43
 -14   4  15    2.76    4.29
  14   4 -15    1.81    4.86
 -14  -4 -15    5.33    6.86
 -14  -4  15    1.52    4.67
  14  -4 -15   -2.00    9.71
 -14   4 -15   -1.71    6.57
  14  -5   0  163.60   18.19
 -14   5   0  213.31   23.05
  14  -5   1    5.05    5.43
 -14   5   1    2.86    5.05
  14  -5  -1    0.76    5.33
 -14   5  -1    2.19    5.71
  14  -5   2  156.46   18.09
 -14   5  -2  193.31   22.00
  14  -5   3   19.14    6.95
 -14   5  -3    8.76    6.48
  14  -5   4  251.40   27.62
 -14   5  -4  188.65   22.09
  14  -5   5  132.94   17.52
 -14  -5  -5  126.46   18.00
 -14   5  -5  154.27   19.43
 -14  -5  -6  179.89   23.33
 -14   5  -6  222.74   26.00
  14  -5   7   35.33    9.81
 -14  -5  -7    6.67    9.62
  14   5   7    6.38    8.95
 -14   5  -7   29.43    9.52
  14  -5   8    5.24    6.95
 -14  -5  -8   11.81    9.05
  14   5   8    3.62    7.71
 -14   5  -8    9.43    7.62
  14  -5   9    7.52    6.57
 -14  -5  -9   11.52    8.48
  14   5   9   29.14    9.71
 -14   5  -9   14.38    8.00
  14  -5  10    6.29    6.48
 -14  -5 -10    2.67    7.90
  14   5  10    2.29    7.24
 -14   5 -10    0.19    6.38
  14  -5  11    6.19    6.48
 -14  -5 -11    3.14    6.86
  14   5  11    9.33    7.05
  14  -5 -11   -3.71    4.57
 -14   5 -11   -4.00    5.62
  14  -5  12    3.71    6.57
 -14  -5 -12   20.95    8.28
  14   5  12   13.33    7.43
 -14  -5  12   10.57    5.43
  14  -5 -12    8.95    5.14
 -14   5 -12   17.71    7.81
  14  -5  13    2.00    6.38
 -14   5  13    7.05    4.76
  14   5 -13   -3.14    4.76
 -14  -5 -13    1.14    5.81
  14   5  13   -0.76    6.09
 -14  -5  13    5.43    5.05
  14  -5 -13   -1.52    4.57
 -14   5 -13   -1.90    5.90
  14  -5  14   17.14    8.00
 -14   5  14   27.43    6.57
  14   5 -14   13.24    6.00
 -14  -5 -14   19.14    7.62
  14   5  14   12.19    7.05
 -14  -5  14   18.19    6.19
  14  -5 -14   11.52    5.43
 -14   5 -14    6.38    7.05
 -14   5  15    4.19    7.71
  14   5 -15    2.48    5.43
 -14  -5 -15    2.10    6.29
 -14  -5  15    6.48    5.62
  14  -5 -15    1.05  164.84
 -14   5 -15    1.05    6.57
  14  -6   0    3.14    5.90
 -14   6   0   12.76    6.09
  14  -6   1   -1.43    5.62
 -14   6  -1    9.33    6.29
  14  -6   2   19.52    6.76
 -14   6  -2   21.71    7.24
  14  -6   3   12.38    6.76
 -14   6  -3    1.90    7.14
  14  -6   4    6.00    7.24
 -14   6  -4    4.00    7.62
  14  -6   5    8.95    7.43
 -14   6  -5    2.76    8.00
  14  -6   6   -3.24    7.24
 -14   6  -6   -7.62    7.33
  14  -6   7   14.28    8.19
 -14  -6  -7    7.05    9.14
  14  -6   8   13.71    7.52
 -14  -6  -8    8.67    8.57
  14   6   8    4.86    7.90
 -14   6  -8    5.05    7.43
  14  -6   9   16.66    7.24
 -14  -6  -9   24.47    9.33
  14   6   9    8.28    7.90
 -14   6  -9   21.43    7.62
  14  -6  10    1.62    5.43
 -14  -6 -10    6.19    7.71
  14   6  10   -2.67    6.76
 -14   6 -10    0.67    5.71
  14  -6  11    6.19    5.90
 -14  -6 -11   11.71    7.62
  14   6  11    8.48    7.05
 -14   6 -11    0.76    5.62
  14  -6  12   -2.00    5.43
 -14  -6 -12    3.52    6.57
  14   6  12    1.24    6.38
 -14   6 -12    5.52    6.09
  14  -6  13   -2.57    5.81
 -14  -6 -13   -2.38    5.62
  14   6  13    6.09    6.67
 -14  -6  13    4.95    5.14
  14  -6 -13    2.38    4.76
 -14   6 -13   11.05    6.29
  14  -6  14   -6.09    5.62
 -14   6  14   -0.48    4.76
  14   6 -14   -3.52    4.76
 -14  -6 -14   -3.14    5.62
  14   6  14   -3.43    6.00
 -14  -6  14    2.48    4.86
  14  -6 -14   -4.09    8.19
 -14   6 -14    6.09    5.71
 -14  -6  15    0.67  108.08
  14  -6 -15   -1.90    6.19
  14  -7   1   -4.00    6.76
 -14   7  -1   -2.48    6.19
  14  -7   2   14.47    7.43
 -14   7  -2   19.90    7.71
  14  -7   3    5.81    7.05
 -14   7  -3   18.95    7.81
  14  -7   4   14.67    7.90
 -14   7  -4   12.76    8.19
  14  -7   5   17.05    8.00
 -14   7  -5   36.95   10.00
  14  -7   6    7.62    7.81
 -14   7  -6   28.38    9.14
  14  -7   7    2.67    7.05
 -14   7  -7    6.95    8.09
  14  -7   8    1.33    6.67
 -14   7  -8   18.00    8.00
  14  -7   9    6.00    6.57
 -14  -7  -9   -6.29    7.43
  14   7   9    6.86    7.24
 -14   7  -9    4.38    6.09
  14  -7  10   -2.86    5.52
 -14  -7 -10   27.52    9.52
  14   7  10    5.62    7.43
 -14   7 -10    2.76    5.81
  14  -7  11    6.19    6.09
 -14  -7 -11   -6.57    6.19
  14   7  11    2.95    6.29
 -14   7 -11    6.86    6.48
  14  -7  12   -2.86    5.05
 -14  -7 -12    2.86    6.67
  14   7  12    9.14    7.05
 -14   7 -12    1.24    5.81
  14  -7  13    1.62    5.90
 -14  -7 -13   -3.14    6.29
  14   7  13    2.10    6.38
 -14   7 -13    3.33    5.62
  14  -7  14    6.57    6.19
 -14  -7 -14    9.52    7.24
  14   7  14   25.05    8.76
 -14  -7  14   25.43    6.86
  14  -7 -14    7.24    5.33
 -14   7 -14   15.71    7.14
  14  -8   1   36.76    9.05
  14  -8   2   32.95    9.43
 -14   8  -2   21.43    8.48
  14  -8   3  435.77   45.14
 -14   8  -3  442.62   45.90
  14  -8   4   12.28    7.52
 -14   8  -4   -1.14    7.81
  14  -8   5  231.69   26.47
 -14   8  -5  164.36   20.57
  14  -8   6    0.48    7.52
 -14   8  -6    8.86    8.00
  14  -8   7   13.14    7.62
 -14   8  -7    4.29    7.62
  14  -8   8   -7.43    5.81
 -14   8  -8    8.67    6.95
  14  -8   9   53.71   10.28
 -14   8  -9   35.43    9.14
  14  -8  10    3.81    5.62
 -14  -8 -10   -3.43    6.86
 -14   8 -10    7.52    6.29
  14  -8  11   34.19    8.86
 -14  -8 -11    6.09    6.86
  14   8  11    0.86    6.48
 -14   8 -11   11.90    6.86
  14  -8  12    3.81    5.43
 -14  -8 -12    6.95    6.95
  14   8  12    4.86    6.29
 -14   8 -12    3.24    6.09
  14  -8  13    6.67    5.90
 -14  -8 -13   -1.52   40.28
  14   8  13   -2.00    5.90
 -14   8 -13   -6.09    5.14
  14  -8  14   -4.19   17.52
 -14  -8 -14   -3.81    6.57
  14   8  14    1.52    6.19
 -14   8 -14    9.43    5.71
  14  -9   2   -1.62    7.52
  14  -9   3   16.76    8.57
 -14   9  -3    3.81    8.00
  14  -9   4   22.28    8.76
 -14   9  -4   23.71    8.95
  14  -9   5    7.33    8.38
 -14   9  -5    4.86    7.90
  14  -9   6   -2.48    7.14
 -14   9  -6    1.14    7.43
  14  -9   7    0.29    6.67
 -14   9  -7   -2.10    7.14
  14  -9   8    1.71    5.62
 -14   9  -8    2.67    6.67
  14  -9   9   -0.67    5.33
 -14   9  -9    3.52    6.00
  14  -9  10    1.33    5.33
 -14   9 -10    5.14    5.81
  14  -9  11    1.81    5.71
 -14   9 -11   -4.38    5.71
  14  -9  12    8.00    5.81
 -14  -9 -12   -2.86    6.19
 -14   9 -12    4.48    6.19
  14  -9  13   -0.10    5.24
 -14  -9 -13    2.29    7.05
  14   9  13    4.38    6.86
 -14   9 -13    1.14    6.19
 -14  -9 -14   -0.86    6.76
 -14   9 -14    2.00   24.95
  14 -10   3   50.95   10.86
  14 -10   4    7.81    8.57
 -14  10  -4   10.00    8.48
  14 -10   5  172.84   21.81
 -14  10  -5  131.61   18.19
  14 -10   6   66.18   12.19
 -14  10  -6   76.94   13.24
  14 -10   7    6.19    6.48
 -14  10  -7    6.95    6.86
  14 -10   8   12.57    6.48
 -14  10  -8    6.95    6.19
  14 -10   9    3.52    5.81
 -14  10  -9    0.95    6.38
  14 -10  10    3.81    5.90
 -14  10 -10    1.90    6.09
  14 -10  11   -6.00    5.24
 -14  10 -11   -0.86    5.81
  14 -10  12    2.19    5.33
 -14  10 -12    3.90    6.48
  14 -10  13    1.33    5.43
 -14 -10 -13    2.48    6.48
 -14  10 -13    1.14    5.81
  14 -11   4   13.62    8.28
  14 -11   5    1.52    7.90
 -14  11  -5   -7.14    7.05
  14 -11   6   13.90    7.90
 -14  11  -6   21.81    9.14
  14 -11   7   -0.95    6.09
 -14  11  -7    3.14    6.86
  14 -11   8    0.19    5.52
 -14  11  -8   11.14    6.95
  14 -11   9    4.48    5.52
 -14  11  -9    4.67    6.29
  14 -11  10    2.00    5.62
 -14  11 -10   -3.05    6.00
  14 -11  11    2.00    5.81
 -14  11 -11   -2.86    5.62
  14 -11  12    3.05    5.62
 -14  11 -12    0.86    6.09
  14 -11  13    3.90   54.38
 -14  11 -13    7.33    6.38
  14 -12   5  103.70   15.52
  14 -12   6    3.90    6.67
 -14  12  -6    9.33    6.57
  14 -12   7    3.62    6.48
 -14  12  -7    7.81    6.67
  14 -12   8   -4.00    6.00
 -14  12  -8   -7.14    6.09
  14 -12   9   19.90    7.90
 -14  12  -9   22.66    8.28
  14 -12  10   -0.67    5.52
 -14  12 -10    5.24    6.38
  14 -12  11    4.38    5.90
 -14  12 -11   11.90    6.67
  14 -12  12    2.57    5.62
 -14  12 -12    2.00    6.09
  14 -12  13    7.43    7.05
 -14  12 -13   -2.38    6.38
  14 -13   6  157.79   20.09
  14 -13   7   -1.62    6.09
 -14  13  -7    8.76    6.67
  14 -13   8    7.90    6.67
 -14  13  -8   30.85    9.14
  14 -13   9   -2.00    6.09
 -14  13  -9   -2.48    6.00
  14 -13  10    9.05    7.05
 -14  13 -10   20.38    7.90
  14 -13  11    5.05    5.71
 -14  13 -11   13.62    7.62
  14 -13  12    4.57   19.71
 -14  13 -12    0.95    6.09
  14 -14   7   11.24    7.05
  14 -14   8    0.67    6.38
 -14  14  -8   14.57    7.14
  14 -14   9    9.62    6.67
 -14  14  -9   -4.09    6.09
  14 -14  10    2.10    6.19
 -14  14 -10   -4.86    6.19
  14 -14  11   -2.19    6.00
 -14  14 -11    4.95    6.95
  14 -14  12   -0.95    5.71
 -14  14 -12    1.43    6.76
  14 -15   8    7.43    6.48
  14 -15   9   -3.90    6.19
 -14  15  -9   -3.14    6.48
  14 -15  10    3.24    6.48
 -14  15 -10    2.48    6.00
  14 -15  11    1.81    6.29
 -14  15 -11    5.05    6.38
  14 -16   9    3.43    6.67
  14 -16  10   -1.05    6.00
 -14  16 -10    3.05    6.95
  14 -16  11    1.81    7.24
 -14  16 -11    3.14    6.76
  14 -17  10    1.71    5.81
  15   0   0   -5.62    7.05
 -15   0   0   -0.76    6.48
  15   0   1   31.62    8.09
 -15   0   1   40.76    7.33
  15   0  -1   57.33    8.95
 -15   0  -1   41.90    8.57
  15   0   2   11.90    7.71
 -15   0   2    7.05    4.76
  15   0  -2   21.71    5.90
 -15   0  -2    2.38    7.33
  15   0   3   52.66   10.67
 -15   0   3   31.33    5.62
  15   0  -3   38.95    6.48
 -15   0  -3   43.33    9.90
  15   0   4   26.38    9.33
 -15   0  -4   38.28    9.81
  15   0   5  620.80   63.04
 -15   0  -5  426.43   45.04
  15   0   6   32.95   11.33
 -15   0  -6   32.09   10.67
  15   0   7   17.62    9.24
 -15   0  -7   21.62    9.52
  15   0   8    0.48    7.43
 -15   0   8    4.76    3.62
  15   0  -8   16.19    4.48
 -15   0  -8    5.62    8.00
  15   0   9   26.09    8.95
 -15   0   9   17.24    4.29
  15   0  -9   28.57    5.33
 -15   0  -9   17.90    8.48
 -15   0  10    1.52    3.33
  15   0 -10    3.14    3.71
 -15   0  11   17.90    4.95
  15   0 -11   10.00    4.57
  15   0  12    9.33    7.24
  15   0 -12    3.33    4.19
 -15   0 -12   20.57    8.19
  15   0  13   18.66    8.00
  15   0 -13   21.71    6.09
 -15   0 -13   15.71    7.71
  15   0  14   17.43    7.52
 -15   0  14    8.95    6.86
  15   0 -14   15.90    5.81
 -15   0 -14   11.14    7.05
 -15   0  15   -1.14    4.95
  15   0 -15    4.76    4.95
 -15   0 -15   -5.14    6.48
  15   1   0   -0.19    6.00
 -15  -1   0    7.33    6.19
  15  -1   0   -0.19    5.81
 -15   1   0   21.71    6.48
  15  -1   1    6.86    6.48
 -15   1   1   14.00    5.71
 -15  -1  -1    7.52    6.67
  15   1   1    4.86    7.14
 -15  -1   1    7.62    5.90
  15  -1  -1    4.29    5.33
 -15   1  -1    7.05    6.29
  15  -1   2   15.90    7.81
 -15   1   2    7.90    4.76
 -15  -1  -2    1.33    7.33
  15   1   2   30.19    8.86
  15  -1  -2   -1.62    4.76
 -15   1  -2   11.81    7.14
  15  -1   3   -0.86    7.05
 -15   1   3    3.62    3.81
 -15  -1  -3    0.29    7.14
  15   1   3   -0.48    7.43
  15  -1  -3    3.52    4.38
 -15   1  -3    5.24    7.24
  15  -1   4   34.85    9.71
 -15   1   4   32.85    4.76
  15   1   4   77.90   13.33
  15  -1  -4   37.23    5.52
 -15   1  -4   29.71    9.33
  15  -1   5   35.23   10.09
 -15   1   5    5.24    2.48
 -15  -1  -5   12.57    9.05
  15   1   5    8.38    8.57
 -15   1  -5   20.00    8.95
  15  -1   6    7.81    9.05
 -15  -1  -6   31.43   10.28
  15   1   6   30.38   10.76
 -15   1  -6    4.76    9.33
  15  -1   7    8.00    8.67
 -15   1   7    7.81    2.95
 -15  -1  -7    2.38    8.19
  15   1   7   -4.09    7.81
  15  -1  -7    1.43    2.86
 -15   1  -7    4.00    8.38
  15  -1   8    2.48    7.05
 -15   1   8    8.09    3.43
 -15  -1  -8   24.76    9.33
  15   1   8   14.57    8.19
 -15  -1   8    8.57    4.29
  15  -1  -8    1.62    3.24
 -15   1  -8   12.86    8.19
  15  -1   9    7.33    6.95
 -15   1   9   -0.29    3.43
  15   1  -9   -1.05    4.29
 -15  -1  -9    2.95    7.90
  15   1   9    4.76    7.71
 -15  -1   9   -1.71    3.71
  15  -1  -9    4.09    3.90
 -15   1  -9    8.76    7.71
  15  -1  10   11.14    7.81
 -15   1  10    4.86    3.81
  15   1 -10    6.57    4.09
 -15  -1 -10    6.86    7.81
  15   1  10   39.81   10.38
 -15  -1  10    0.95    3.71
  15  -1 -10    3.33    4.09
 -15   1 -10    2.67    7.24
  15  -1  11   -2.86    6.00
 -15   1  11    3.24    4.29
  15   1 -11    2.00    4.19
 -15  -1 -11    0.86    6.95
  15   1  11    6.19    6.48
 -15  -1  11    0.00    3.71
  15  -1 -11    2.00    4.29
 -15   1 -11    5.24    6.48
  15  -1  12   -1.52    5.90
 -15   1  12   -0.48    3.43
  15   1 -12    1.43    4.38
 -15  -1 -12    3.81    6.86
  15   1  12   -2.57    6.09
 -15  -1  12   -4.76    3.71
  15  -1 -12    2.48    4.19
 -15   1 -12   -2.86    6.00
  15  -1  13    7.14    6.38
 -15   1  13    2.00    3.90
  15   1 -13   -0.10    4.09
 -15  -1 -13    4.76    5.90
  15   1  13   -2.19    5.90
 -15  -1  13    3.14    4.00
  15  -1 -13    2.38    4.48
 -15   1 -13    2.38    6.29
  15  -1  14    5.52    6.48
 -15   1  14    4.48    4.29
  15   1 -14    7.62    4.67
 -15  -1 -14    3.71    6.38
  15   1  14    4.19    5.90
 -15  -1  14   -0.76    4.00
  15  -1 -14    2.57    4.76
 -15   1 -14    5.81    6.38
 -15   1  15   -4.00    4.19
  15   1 -15   -0.19    4.09
 -15  -1 -15    5.71  598.32
 -15  -1  15   -1.24    4.67
  15  -1 -15   -3.81    7.90
 -15   1 -15    0.48    6.38
 -15  -2   0    6.29    6.38
  15  -2   0    8.95    5.90
 -15   2   0   -1.33    5.05
  15  -2   1    8.48    6.57
 -15   2   1    3.43    5.24
  15   2   1   25.33    8.09
  15  -2  -1   11.24    5.43
 -15   2  -1   -0.76    6.00
  15  -2   2   11.62    6.86
 -15   2   2    6.09    4.67
 -15  -2  -2    6.95    7.24
  15   2   2    2.95    7.24
  15  -2  -2    4.19    4.76
 -15   2  -2    5.52    6.67
  15  -2   3   -0.19    7.14
 -15   2   3    4.57    3.52
 -15  -2  -3    4.86    7.81
  15   2   3    5.05    7.90
  15  -2  -3    2.19    4.19
 -15   2  -3    3.05    7.05
  15  -2   4    6.76    8.19
 -15   2   4    5.62    2.95
 -15  -2  -4   11.81    8.19
  15   2   4   -1.14    8.28
  15  -2  -4   18.57    4.19
 -15   2  -4    6.48    7.81
  15  -2   5   53.71   11.71
 -15  -2  -5   43.23   10.95
  15   2   5   30.38   10.00
  15  -2  -5   36.09    4.38
 -15   2  -5   46.66   11.14
  15  -2   6    8.76    9.71
 -15  -2  -6   -2.76    8.86
  15   2   6   -3.24    8.95
 -15   2  -6   10.19    8.86
  15  -2   7   -1.14    8.09
 -15  -2  -7   14.67    8.57
  15   2   7    7.05    8.38
  15  -2  -7    4.76    2.86
 -15   2  -7   -1.24    8.00
  15  -2   8    5.14    7.14
 -15   2   8    0.00    2.95
 -15  -2  -8   -1.14    7.14
  15   2   8   -4.00    7.05
  15  -2  -8    2.10    3.33
 -15   2  -8    9.52    8.19
  15  -2   9    2.76    6.95
 -15   2   9    7.43    3.52
 -15  -2  -9   16.28    8.38
  15   2   9   10.76    7.52
 -15  -2   9    6.19    4.29
  15  -2  -9    2.95    3.90
 -15   2  -9    0.76    7.52
  15  -2  10    2.67    6.95
 -15   2  10    2.19    3.43
  15   2 -10    7.24    4.86
 -15  -2 -10   -0.57    7.14
  15   2  10    8.86    6.95
 -15  -2  10    1.14    3.90
  15  -2 -10   -0.67    4.19
 -15   2 -10    2.38    7.24
  15  -2  11    7.05    6.09
 -15   2  11   -1.90    3.52
  15   2 -11    0.86    4.67
 -15  -2 -11    8.00    6.86
  15   2  11   -1.81    6.19
 -15  -2  11    0.95    3.81
  15  -2 -11    4.38    4.48
 -15   2 -11    8.67    7.33
  15  -2  12   -0.10    6.09
 -15   2  12    1.62  436.62
  15   2 -12    0.38    4.29
 -15  -2 -12   -4.19    5.62
  15   2  12   -5.05    6.38
 -15  -2  12    2.29    3.90
  15  -2 -12    2.95    4.38
 -15   2 -12    2.48    6.38
  15  -2  13   -3.52    5.43
 -15   2  13   -0.38    3.71
  15   2 -13    3.33    4.48
 -15  -2 -13    0.48    5.62
  15   2  13   -2.76    5.90
 -15  -2  13    9.52    4.86
  15  -2 -13   -3.62    4.76
 -15   2 -13   -4.19    6.29
  15  -2  14   -1.05    5.71
 -15   2  14    2.48    4.67
  15   2 -14   -2.67    4.29
 -15  -2 -14   -1.81    6.09
  15   2  14   -7.62    5.43
 -15  -2  14    0.38    4.00
  15  -2 -14   -2.38    4.57
 -15   2 -14   -5.62   24.28
 -15   2  15    0.10  245.59
 -15  -2  15    1.81    4.48
  15  -2 -15    3.14  207.88
 -15   2 -15   -1.43   44.47
  15  -3   0    3.33    5.05
 -15   3   0    3.14    4.86
  15  -3   1    9.81    6.38
 -15   3   1    1.90    4.76
  15  -3  -1    2.19    4.67
 -15   3  -1   -0.38    5.43
  15  -3   2    2.48    6.76
 -15   3   2    8.67    4.48
 -15  -3  -2    8.38    7.62
  15  -3  -2   -0.76    4.19
 -15   3  -2   24.47    7.62
  15  -3   3    5.90    7.14
 -15   3   3    8.00    4.00
 -15  -3  -3    1.62    8.00
  15   3   3   -1.52    7.90
  15  -3  -3    2.10    3.90
 -15   3  -3    0.67    6.86
  15  -3   4   22.66    8.76
 -15   3   4   16.00    3.90
  15   3   4   27.33    9.33
  15  -3  -4   15.62    4.38
 -15   3  -4   20.66    8.57
  15  -3   5    5.90    8.57
 -15  -3  -5    4.76    9.24
  15   3   5    1.52    8.95
 -15   3  -5   25.05    9.71
  15  -3   6   14.09    9.24
 -15  -3  -6   22.28    9.81
  15   3   6    5.81    9.05
 -15   3  -6   20.47    9.43
  15  -3   7    8.57    8.19
 -15  -3  -7   13.14    8.28
  15   3   7    3.71    8.28
 -15   3  -7   -0.57    7.62
  15  -3   8    2.19    7.24
 -15  -3  -8    6.09    7.43
  15   3   8   10.67    7.81
 -15   3  -8    3.24    7.33
  15  -3   9   -2.38    6.95
 -15   3   9    1.14    3.52
 -15  -3  -9   -4.09    6.86
  15   3   9   -1.90    6.76
  15  -3  -9   -2.67    3.81
 -15   3  -9   -3.24    7.05
  15  -3  10    8.57    7.33
 -15  -3 -10    1.43    6.95
  15   3  10    3.05    6.95
 -15  -3  10   -0.29    4.09
  15  -3 -10    7.90    4.67
 -15   3 -10    9.81    7.24
  15  -3  11    0.57    6.38
 -15   3  11    1.71    3.52
  15   3 -11    7.24    4.95
 -15  -3 -11    0.38    6.29
  15   3  11    0.00    6.19
 -15  -3  11    4.38    4.29
  15  -3 -11   -2.86    4.09
 -15   3 -11    2.95    6.57
  15  -3  12    3.90    6.29
 -15   3  12    1.81    4.67
  15   3 -12    0.29    4.76
 -15  -3 -12    2.19    6.57
  15   3  12    3.52    6.09
 -15  -3  12    4.09    4.09
  15  -3 -12    9.43    4.76
 -15   3 -12   -3.62    6.19
  15  -3  13    4.67    6.29
 -15   3  13   -0.48    3.71
  15   3 -13    6.19    4.57
 -15  -3 -13    5.14    6.19
  15   3  13   -2.76    5.81
 -15  -3  13   -1.43    4.00
  15  -3 -13   -2.29    5.05
 -15   3 -13   -0.76    6.86
  15  -3  14    1.14    6.67
 -15   3  14    4.19    4.09
  15   3 -14    4.29    4.48
 -15  -3 -14   -2.67    6.00
  15   3  14   -6.29    5.81
 -15  -3  14   -1.24    4.19
  15  -3 -14   -2.38    4.48
 -15   3 -14    7.33    6.86
  15  -4   0   -1.90    4.86
 -15   4   0   -2.48    5.14
  15  -4   1    8.48    6.00
 -15   4   1    0.76    4.95
  15  -4  -1    2.57    4.76
 -15   4  -1   27.14    7.05
  15  -4   2   -2.38    5.81
 -15   4   2    2.00    4.86
  15  -4  -2    2.38    4.67
 -15   4  -2    2.19    5.90
  15  -4   3   -4.86    6.48
 -15   4   3   16.95    4.95
 -15  -4  -3    0.10    8.00
  15  -4  -3    9.14    5.05
 -15   4  -3   16.76    7.43
  15  -4   4    3.81    7.43
 -15  -4  -4   10.19    8.86
  15   4   4    2.38    8.38
 -15   4  -4    8.67    7.62
  15  -4   5    2.76    8.00
 -15  -4  -5   18.09   10.38
  15   4   5    2.48    9.14
 -15   4  -5   20.09    8.67
  15  -4   6    3.62    8.19
 -15  -4  -6    5.81    9.33
  15   4   6   -5.81    8.76
 -15   4  -6    7.24    9.05
  15  -4   7    0.38    7.90
 -15  -4  -7    3.24    8.57
  15   4   7   -2.29    7.52
 -15   4  -7    9.14    8.00
  15  -4   8   -4.00    6.95
 -15  -4  -8    1.90    7.24
  15   4   8    0.29    7.52
 -15   4  -8    3.90    7.05
  15  -4   9    1.81    6.48
 -15  -4  -9   -0.57    6.95
  15   4   9    6.67    7.33
 -15   4  -9    3.33    7.05
  15  -4  10   -5.62    6.00
 -15  -4 -10    5.71    7.05
  15   4  10    1.52    6.86
  15  -4 -10    1.24    4.57
 -15   4 -10   -2.19    6.29
  15  -4  11    4.86    6.19
 -15   4  11   -5.81    3.71
 -15  -4 -11    6.86    6.57
  15   4  11   -0.76    6.00
 -15  -4  11    1.05    4.29
  15  -4 -11   -6.29    4.38
 -15   4 -11   -5.62    6.19
  15  -4  12   -3.62    5.90
 -15   4  12   -0.86    3.81
  15   4 -12    0.86    5.05
 -15  -4 -12   -1.81    6.29
  15   4  12   -4.76    6.09
 -15  -4  12    0.76    4.48
  15  -4 -12    6.00    4.57
 -15   4 -12   -2.38    6.76
  15  -4  13   -6.57    6.95
 -15   4  13    2.95    4.29
  15   4 -13    2.38    4.95
 -15  -4 -13    0.19    5.81
  15   4  13   -2.48    6.19
 -15  -4  13    4.19    4.57
  15  -4 -13    1.33    4.57
 -15   4 -13    9.24    7.14
  15  -4  14    3.90  459.95
 -15   4  14    1.05    4.00
  15   4 -14    2.00    4.86
 -15  -4 -14    3.71   17.33
  15   4  14   -2.38  150.46
 -15  -4  14   -0.76    4.38
  15  -4 -14   -6.86    4.29
 -15   4 -14   -1.90    6.00
  15  -5   1   24.19    6.76
 -15   5   1   53.23    8.57
  15  -5  -1   21.14    6.48
 -15   5  -1   21.24    6.95
  15  -5   2   17.71    6.86
 -15   5   2   17.33    5.81
  15  -5  -2   21.33    6.19
 -15   5  -2   20.66    7.62
  15  -5   3   -3.81    6.57
 -15   5  -3   10.48    7.14
  15  -5   4  549.18   55.71
 -15   5  -4  483.67   49.80
  15  -5   5   17.05    8.09
 -15  -5  -5    5.81   10.09
 -15   5  -5   16.86    8.38
  15  -5   6   47.42   10.38
 -15  -5  -6   79.23   14.47
  15   5   6   27.52   10.00
 -15   5  -6   65.52   12.00
  15  -5   7   -0.10    7.24
 -15  -5  -7   -0.29    8.09
  15   5   7    3.62    7.90
 -15   5  -7   -2.57    7.05
  15  -5   8   11.33    6.86
  15   5   8   10.48    7.43
 -15   5  -8   -1.24    6.76
  15  -5   9    3.43    6.57
 -15  -5  -9    2.10    7.52
  15   5   9    1.05    7.33
 -15   5  -9    6.95    6.48
  15  -5  10   12.19    7.05
 -15  -5 -10    7.14    7.33
  15   5  10    0.86    6.86
 -15   5 -10    4.38    6.09
  15  -5  11    7.14    6.76
 -15  -5 -11    1.24    6.09
  15   5  11   -6.76    5.81
 -15   5 -11    0.57    6.19
  15  -5  12    7.05    6.09
 -15  -5 -12   -8.09    5.90
  15   5  12   -0.29    6.19
 -15  -5  12    3.52    4.86
  15  -5 -12   -2.00    4.29
 -15   5 -12    8.67    6.76
  15  -5  13   17.90    7.52
 -15   5  13    1.71    4.00
  15   5 -13   -2.00    4.95
 -15  -5 -13   -1.71    5.81
  15   5  13    3.14    6.19
 -15  -5  13    4.76    4.95
  15  -5 -13    0.38    4.57
 -15   5 -13    4.48    6.67
  15  -5  14    5.62    6.48
 -15   5  14   10.28   10.19
  15   5 -14    3.05    5.43
 -15  -5 -14    2.86    6.29
  15   5  14    0.19    6.48
 -15  -5  14   11.90    5.71
  15  -5 -14    6.67    5.81
 -15   5 -14    4.57   24.76
  15  -6   0    3.43    6.29
 -15   6   0    4.00    6.19
  15  -6   1    9.14    6.38
 -15   6   1    1.71    6.09
  15  -6  -1   12.38    6.19
 -15   6  -1    3.90    6.48
  15  -6   2   -2.67    6.29
 -15   6  -2   -0.67    6.57
  15  -6   3   -6.09    6.86
 -15   6  -3   14.09    7.90
  15  -6   4   21.90    8.38
 -15   6  -4   13.62    8.09
  15  -6   5   34.76    9.24
 -15   6  -5   32.95    9.33
  15  -6   6    3.90    7.52
 -15   6  -6   -1.81    7.43
  15  -6   7    4.67    6.86
 -15  -6  -7  -10.38    7.52
  15   6   7    5.43    7.43
 -15   6  -7   10.28    7.24
  15  -6   8    7.33    6.19
 -15  -6  -8    8.19    8.19
  15   6   8    4.19    7.52
 -15   6  -8   -3.24    6.29
  15  -6   9    7.81    6.19
 -15  -6  -9    5.05    7.81
  15   6   9   18.19    8.38
 -15   6  -9   14.00    6.67
  15  -6  10    6.19    5.90
 -15  -6 -10    4.00    7.24
  15   6  10    0.95    6.19
 -15   6 -10   -6.95    5.52
  15  -6  11    2.67    5.14
 -15  -6 -11   -0.48    6.86
  15   6  11   -2.86    6.09
 -15   6 -11   -0.38    6.00
  15  -6  12    1.81    5.52
 -15  -6 -12    2.38    6.57
  15   6  12    6.09    6.86
 -15   6 -12    1.90    6.09
  15  -6  13    6.09    6.48
 -15  -6 -13    4.38    6.19
  15   6  13   -1.33    6.38
 -15  -6  13    9.62    5.24
  15  -6 -13    2.38    4.57
 -15   6 -13   -0.38    6.09
  15  -6  14    3.24    5.81
  15   6 -14    2.67    5.43
 -15  -6 -14   -1.14    5.33
  15   6  14    5.14    6.95
 -15  -6  14    2.48    4.86
  15  -6 -14    2.38   14.28
 -15   6 -14   -2.10    5.43
  15  -7   0    4.67    7.05
 -15   7   0   12.57    6.95
  15  -7   1    8.00    7.14
 -15   7  -1   11.14    7.33
  15  -7   2   22.95    8.00
 -15   7  -2   20.95    8.28
  15  -7   3   16.66    7.71
 -15   7  -3   32.28    9.24
  15  -7   4    6.00    7.43
 -15   7  -4   -1.24    7.43
  15  -7   5   -4.67    7.14
 -15   7  -5    1.05    7.71
  15  -7   6   12.57    7.71
 -15   7  -6    6.48    7.62
  15  -7   7   -0.38    6.57
 -15   7  -7    5.33    7.14
  15  -7   8   13.43    6.67
 -15  -7  -8    1.33    7.43
 -15   7  -8    0.76    6.00
  15  -7   9    9.71    6.00
 -15  -7  -9    6.29    8.09
  15   7   9    3.24    7.05
 -15   7  -9   -0.95    5.81
  15  -7  10    4.57    5.81
 -15  -7 -10   16.19    8.28
  15   7  10   16.19    7.81
 -15   7 -10    2.86    6.29
  15  -7  11   -3.90    5.43
 -15  -7 -11    6.48    6.95
  15   7  11    3.52    6.29
 -15   7 -11    3.05    5.90
  15  -7  12    3.71    5.52
 -15  -7 -12   -4.86    6.48
  15   7  12   -0.67    6.48
 -15   7 -12   -1.33    5.71
  15  -7  13   -3.71    5.33
 -15  -7 -13   -2.00    6.67
  15   7  13   -2.76    6.00
 -15   7 -13    0.76    5.81
  15  -7  14   -4.29    5.71
 -15  -7 -14   -1.62    6.76
 -15  -7  14    1.81    5.14
 -15   7 -14    4.19    5.71
  15  -8   2   10.28    7.71
 -15   8  -2   12.00    8.48
  15  -8   4   12.19    7.71
 -15   8  -4   13.05    7.90
  15  -8   5   -1.71    7.24
 -15   8  -5    7.62    8.28
  15  -8   6    6.95    7.33
 -15   8  -6    5.33    7.62
  15  -8   7   14.47    6.95
 -15   8  -7   11.14    7.33
  15  -8   8   20.57    7.05
 -15   8  -8   -1.05    6.19
  15  -8   9    2.29    5.43
 -15   8  -9    6.29    6.19
  15  -8  10    4.19    5.71
 -15  -8 -10   -0.29    7.05
 -15   8 -10    1.62    6.00
  15  -8  11    6.67    5.81
 -15  -8 -11   18.76    8.86
  15   8  11   25.62    8.57
 -15   8 -11   10.95    6.67
  15  -8  12    4.67    5.62
 -15  -8 -12    6.57    7.05
  15   8  12    3.14    5.90
 -15   8 -12    4.57    6.19
  15  -8  13   -0.67    5.62
 -15  -8 -13   -0.86    6.38
  15   8  13   -2.86    6.38
 -15   8 -13   19.62    7.81
 -15  -8 -14   -0.38    6.76
 -15   8 -14    5.90    6.29
  15  -9   2   10.57    8.09
 -15   9  -2   23.62    8.76
  15  -9   3    8.48    8.28
 -15   9  -3    3.24    7.90
  15  -9   4   11.81    8.67
 -15   9  -4   10.76    8.76
  15  -9   5    3.33    6.86
 -15   9  -5    1.90    7.52
  15  -9   6   15.71    7.81
 -15   9  -6    7.81    7.62
  15  -9   7    2.67    5.81
 -15   9  -7    5.43    6.19
  15  -9   8   -0.67    5.52
 -15   9  -8   -5.14    5.71
  15  -9   9    3.90    5.43
 -15   9  -9    3.71    6.19
  15  -9  10    7.43    6.09
 -15   9 -10    9.24    7.14
  15  -9  11    0.67    5.14
 -15  -9 -11    1.14    6.95
 -15   9 -11   -7.24    5.52
  15  -9  12    4.00    5.62
 -15  -9 -12   -1.33    6.67
 -15   9 -12    1.24    5.90
  15  -9  13    1.90    5.52
 -15  -9 -13    0.29    6.76
  15   9  13   -6.00    6.09
 -15   9 -13    0.10    6.09
  15 -10   3   24.19    9.33
 -15  10  -3    7.52    8.00
  15 -10   4    2.38    7.71
 -15  10  -4    6.86    7.81
  15 -10   5   47.04   10.76
 -15  10  -5   31.71    9.71
  15 -10   6    3.71    6.57
 -15  10  -6   13.43    7.14
  15 -10   7    1.81    6.00
 -15  10  -7    2.48    6.19
  15 -10   8    2.67    5.52
 -15  10  -8    2.57    5.81
  15 -10   9    1.14    5.90
 -15  10  -9    6.00    6.29
  15 -10  10   -3.33    5.43
 -15  10 -10    8.57    6.48
  15 -10  11    7.81    5.90
 -15  10 -11    3.81    5.90
  15 -10  12    1.90    5.62
 -15  10 -12   -2.76    6.19
  15 -10  13   15.05    7.14
 -15 -10 -13    4.57    6.38
 -15  10 -13    4.09    6.38
  15 -11   4    4.48    7.33
  15 -11   5   14.86    7.43
 -15  11  -5    9.24    7.33
  15 -11   6   -8.28    6.38
 -15  11  -6    1.05    6.29
  15 -11   7    6.76    6.19
 -15  11  -7    0.10    6.00
  15 -11   8    1.71    5.62
 -15  11  -8    0.38    6.19
  15 -11   9    0.57    5.33
 -15  11  -9    1.90    6.19
  15 -11  10    7.81    6.38
 -15  11 -10    5.43    6.48
  15 -11  11   -2.95    5.05
 -15  11 -11    1.33    5.62
  15 -11  12    5.62    6.76
 -15  11 -12    9.43    6.48
  15 -11  13   -0.10    5.90
 -15  11 -13    1.33    6.09
  15 -12   5    3.43    6.86
  15 -12   6   -9.05    6.19
 -15  12  -6    9.14    6.57
  15 -12   7   -0.76    6.38
 -15  12  -7   -2.57    5.90
  15 -12   8   -2.38    5.90
 -15  12  -8   -5.90    6.00
  15 -12   9    6.19    5.62
 -15  12  -9    4.00    6.38
  15 -12  10    0.29    5.52
 -15  12 -10    4.67    6.48
  15 -12  11    3.24    6.09
 -15  12 -11   25.24    8.38
  15 -12  12    2.38    5.52
 -15  12 -12    3.05    6.29
  15 -13   6   20.57    7.90
  15 -13   7    0.76    6.48
 -15  13  -7    4.86    6.29
  15 -13   8   14.38    7.14
 -15  13  -8    2.38    6.67
  15 -13   9   -2.95    6.19
 -15  13  -9   -1.05    6.38
  15 -13  10    8.76    6.76
 -15  13 -10    1.81    6.67
  15 -13  11   -0.95   65.52
 -15  13 -11    6.00    6.57
  15 -13  12    6.00    6.29
 -15  13 -12    6.48    7.05
  15 -14   7   -1.81    6.19
  15 -14   8    3.81    6.19
 -15  14  -8    7.71    6.57
  15 -14   9    0.29    6.19
 -15  14  -9    4.19    6.09
  15 -14  10    4.86    6.38
 -15  14 -10    1.24    6.09
  15 -14  11    7.43    6.19
 -15  14 -11   -4.57    6.29
  15 -15   8    7.62    6.86
  15 -15   9   -1.81    6.00
 -15  15  -9    5.71    6.48
  15 -15  10   -3.81    6.19
 -15  15 -10    4.57    6.29
  15 -15  11   -1.62    6.09
 -15  15 -11    3.24    6.95
  15 -16   9    6.67    6.57
  15 -16  10    2.38   12.09
 -15  16 -10    1.43    6.29
  16   0   0 4125.30  394.82
 -16   0   0 4021.50  384.91
  16   0   1   76.66   12.00
 -16   0   1  100.09   12.47
  16   0  -1  105.32   13.24
 -16   0  -1   92.94   13.05
  16   0   2  711.74   70.85
 -16   0   2 1046.56  101.13
  16   0  -2 1035.13  100.09
 -16   0  -2  826.30   81.61
  16   0   3    5.33    8.09
 -16   0  -3   17.24    8.48
  16   0   5   33.52   10.57
 -16   0  -5   25.71   10.00
  16   0   6   26.66    9.62
 -16   0  -6   27.24    9.52
  16   0   7    8.09    7.81
 -16   0  -7   13.24    8.19
  16   0   8  103.89   15.43
 -16   0   8  100.47   10.86
 -16   0  -8   72.75   12.95
  16   0   9   15.14    7.81
 -16   0   9   30.57    4.95
  16   0  -9   13.05    3.90
 -16   0  -9    8.19    7.81
  16   0  10   32.95    9.14
 -16   0  10    8.09    3.52
  16   0 -10   11.71    4.09
  16   0  11    0.76    6.19
 -16   0  11    8.09    3.71
  16   0 -11    1.14    3.81
 -16   0 -11   11.24    7.14
 -16   0  12    4.67    4.19
  16   0 -12    0.86    3.90
  16   0  13   18.57    7.90
 -16   0  13    1.52   30.47
  16   0 -13    1.71    4.57
 -16   0 -13   29.33    8.95
  16   0  14   14.76    7.52
 -16   0  14   29.90    6.57
  16   0 -14   45.90    8.09
  16   1   0   -3.62    6.38
 -16  -1   0    3.14    6.57
  16  -1   0   -1.14    6.19
 -16   1   0   -2.57    5.81
  16  -1   1  114.18   14.86
 -16   1   1  174.74   19.14
  16   1  -1   96.56   12.67
 -16  -1  -1  149.70   18.00
  16   1   1  106.56   14.47
 -16  -1   1  117.42   14.38
  16  -1  -1  109.80   13.62
 -16   1  -1  103.32   13.90
  16  -1   2    6.67    7.43
 -16   1   2   10.76    5.33
 -16  -1  -2   27.33    8.38
 -16  -1   2   11.05    5.81
 -16   1  -2    3.81    7.14
  16  -1   3   22.85    8.76
 -16   1   3   19.05    4.86
 -16  -1  -3   41.14   10.00
  16   1   3   13.05    8.57
  16  -1  -3   28.57    6.00
 -16   1  -3   38.09    9.71
  16  -1   4    8.95    8.86
 -16   1   4   -0.29    3.33
 -16  -1  -4   14.67    9.24
  16   1   4   32.38   10.09
  16  -1  -4   -2.10    4.09
 -16   1  -4   -0.19    8.19
  16  -1   5    0.29    8.57
 -16   1   5   12.38    3.05
 -16  -1  -5   13.81    9.81
  16   1   5    8.67    9.33
 -16   1  -5    5.71    9.24
  16  -1   6    7.33    8.19
 -16  -1  -6   -3.81    8.19
  16   1   6   -2.38    8.19
 -16   1  -6   -6.95    7.62
  16  -1   7    7.43    7.81
 -16   1   7   18.19    2.76
 -16  -1  -7   13.14    8.09
  16   1   7    3.71    7.81
 -16   1  -7   19.62    8.48
  16  -1   8   -5.62    6.57
 -16   1   8    0.67    2.76
 -16  -1  -8   11.90    7.43
  16   1   8   19.71    8.28
  16  -1  -8    5.05    2.95
 -16   1  -8    0.38    7.81
  16  -1   9   22.19    8.48
 -16  -1  -9   10.57    8.19
 -16  -1   9    2.48    3.43
  16  -1  -9    9.24    3.33
 -16   1  -9   -2.57    6.95
  16  -1  10    5.71    6.29
 -16   1  10    0.29    3.33
  16   1 -10    1.90    4.00
 -16  -1 -10    3.43    6.67
  16   1  10   -1.43    6.48
 -16  -1  10    5.05    3.62
  16  -1 -10    6.09    4.09
 -16   1 -10    8.76    6.67
  16  -1  11    3.43    6.29
 -16   1  11    1.14    3.43
  16   1 -11   -2.19    3.81
 -16  -1 -11    8.09    6.86
  16   1  11   -2.86    6.29
 -16  -1  11    2.95    4.00
  16  -1 -11    2.00    4.19
 -16   1 -11    3.52    6.00
  16  -1  12    3.71    5.81
 -16   1  12    1.14    3.71
  16   1 -12    1.90    4.19
 -16  -1 -12   -4.48    5.81
  16   1  12    0.86    6.00
 -16  -1  12    1.62    3.90
  16  -1 -12    3.24    4.29
 -16   1 -12   -3.52    6.00
  16  -1  13   -0.19    6.29
 -16   1  13    4.09    4.48
  16   1 -13    3.33    4.19
 -16  -1 -13   -0.57    6.57
  16   1  13   -2.10   21.24
 -16  -1  13    0.76    3.90
  16  -1 -13    0.19    4.38
 -16   1 -13    2.48    6.19
  16  -1  14    9.14    6.57
 -16   1  14    3.43    4.09
  16   1 -14    2.19    4.09
 -16  -1 -14   -3.33 1499.85
  16   1  14    2.19    6.57
 -16  -1  14    0.38    4.09
  16  -1 -14   -2.10    4.48
 -16   1 -14    3.81    7.05
 -16  -2   0   99.99   13.43
  16  -2   0   65.71   10.48
  16  -2   1   -0.48    6.76
 -16   2   1    1.33    5.81
 -16  -2  -1   15.14    7.52
  16   2   1   24.19    8.09
  16  -2  -1   13.05    6.19
 -16   2  -1   -2.57    6.29
  16  -2   2   27.52    8.67
 -16   2   2   40.09    7.14
 -16  -2  -2   28.66    8.95
  16  -2  -2   36.47    7.05
  16  -2   3    4.67    8.19
 -16   2   3    5.71    4.38
 -16  -2  -3    2.76    8.00
  16   2   3    7.81    8.38
  16  -2  -3    5.24    4.86
 -16   2  -3    4.29    7.62
  16  -2   4   -0.57    8.76
 -16   2   4    7.62    3.24
 -16  -2  -4    1.90    8.57
  16   2   4   11.71    9.24
  16  -2  -4   18.19    4.57
 -16   2  -4   15.90    8.57
  16  -2   5   22.28    9.90
 -16   2   5   30.76    4.09
 -16  -2  -5   19.33    9.71
  16   2   5   31.23   10.86
  16  -2  -5   14.38    3.43
 -16   2  -5   17.90    8.95
  16  -2   6    0.48    7.43
 -16  -2  -6    8.09    7.71
  16   2   6    2.67    8.19
 -16   2  -6    2.95    7.90
  16  -2   7    3.43    7.24
 -16  -2  -7    1.05    7.62
  16   2   7   10.86    8.00
  16  -2  -7    0.67    2.19
 -16   2  -7    6.67    7.43
  16  -2   8    4.38    7.33
 -16   2   8    7.62    3.24
 -16  -2  -8   13.43    7.52
  16   2   8   17.05    8.09
  16  -2  -8    7.43    3.05
 -16   2  -8    2.76    6.86
  16  -2   9    1.43    6.48
 -16   2   9    1.05    2.95
 -16  -2  -9   -3.52    6.76
  16   2   9    2.76    7.33
  16  -2  -9    0.95    3.43
 -16   2  -9    4.19    7.43
  16  -2  10   -0.76    5.71
 -16   2  10   -2.57    5.33
 -16  -2 -10    4.57    7.05
  16   2  10    1.43    6.38
 -16  -2  10    0.67    3.71
  16  -2 -10    6.09    3.90
 -16   2 -10    5.52    7.33
  16  -2  11   10.67    6.29
 -16   2  11    1.90    3.43
  16   2 -11   -2.95    5.24
 -16  -2 -11    1.24    5.90
  16   2  11    0.67    6.38
 -16  -2  11   12.47    4.38
  16  -2 -11    2.38    4.09
 -16   2 -11    4.09    6.86
  16  -2  12   -0.19    5.90
 -16   2  12    3.90    3.62
  16   2 -12    5.14    4.29
 -16  -2 -12    5.24    6.57
  16   2  12   -3.62    5.71
 -16  -2  12    1.71    4.00
  16  -2 -12    3.24    4.19
 -16   2 -12    0.95    6.38
  16  -2  13    6.19    6.38
 -16   2  13    0.76    3.62
  16   2 -13    6.95    4.57
 -16  -2 -13    2.29    6.38
  16   2  13   -0.67    6.29
 -16  -2  13    3.33    8.09
  16  -2 -13    0.86    4.19
 -16   2 -13    2.76    6.38
  16  -2  14    5.62   13.24
 -16   2  14    0.19    3.81
  16   2 -14    3.14    4.67
 -16  -2 -14    8.38    6.67
  16   2  14    3.24    6.67
 -16  -2  14   -1.24    4.09
  16  -2 -14   -0.57    4.48
 -16   2 -14   18.00    7.90
 -16   3   1  126.08   14.76
  16  -3  -1  137.80   15.81
 -16   3  -1  116.85   14.86
  16  -3   2   20.57    8.00
 -16   3   2   14.57    5.43
 -16  -3  -2    1.24    7.81
  16   3   2   32.95    9.33
  16  -3  -2   24.19    6.00
 -16   3  -2   36.28    8.76
  16  -3   3   22.57    8.86
 -16   3   3   17.90    4.86
 -16  -3  -3   28.47    9.43
  16   3   3    6.09    8.57
  16  -3  -3   22.38    5.33
 -16   3  -3    4.86    7.81
  16  -3   4   14.95    8.76
 -16   3   4   29.90    4.86
 -16  -3  -4   47.14   11.90
  16   3   4   37.33   11.24
 -16   3  -4   37.71   10.09
  16  -3   5    5.81    8.48
 -16  -3  -5    5.52    9.14
  16   3   5   -4.29    9.05
 -16   3  -5   17.81    8.67
  16  -3   6   -6.29    7.62
 -16  -3  -6   -3.52    7.05
  16   3   6    9.62    8.28
 -16   3  -6   10.86    8.19
  16  -3   7    3.24    7.43
 -16  -3  -7   -0.95    7.33
  16   3   7   11.81    7.62
 -16   3  -7    9.05    7.52
  16  -3   8    3.33    6.76
 -16  -3  -8    5.43    7.33
  16   3   8   -4.09    7.05
 -16   3  -8    7.62    6.48
  16  -3   9    0.76    6.67
 -16  -3  -9   -2.00    7.05
  16   3   9    2.86    7.05
  16  -3  -9   -6.76    3.52
 -16   3  -9    0.76    6.95
  16  -3  10    6.67    6.57
 -16   3  10    2.57    3.33
 -16  -3 -10   -2.29    6.29
  16   3  10   -1.14    6.29
  16  -3 -10    2.38    3.81
 -16   3 -10   -4.57    8.67
  16  -3  11    4.57    6.57
 -16   3  11    2.10    3.33
 -16  -3 -11    6.38    6.76
  16   3  11    0.86    6.19
 -16  -3  11    8.67    4.38
  16  -3 -11    2.19    4.00
 -16   3 -11    1.43    6.57
  16  -3  12   12.57    7.24
 -16   3  12    8.57    3.90
  16   3 -12    2.57    4.95
 -16  -3 -12    7.71    6.57
  16   3  12    1.24    6.00
 -16  -3  12    6.76    4.48
  16  -3 -12    6.95    4.38
 -16   3 -12   12.67    7.62
  16  -3  13    7.33   10.95
 -16   3  13   -4.76    3.52
  16   3 -13    8.57    4.86
 -16  -3 -13   -4.38    6.00
  16   3  13    3.90    5.90
 -16  -3  13   -2.57    4.00
  16  -3 -13   -1.62    4.19
 -16   3 -13   -1.14    6.67
  16  -3  14   -3.43    6.19
 -16   3  14   -1.24    3.90
  16   3 -14   -4.19    4.29
 -16  -3 -14    7.05    6.57
  16   3  14   -0.67    6.00
 -16  -3  14   -1.14    4.09
  16  -3 -14   -2.48    4.19
 -16   3 -14    1.33    6.57
  16  -4   0  111.99   14.00
 -16   4   0   93.51   12.38
  16  -4   1   25.24    7.33
 -16   4   1    9.14    6.29
  16  -4  -1    9.90    5.81
 -16   4  -1    2.95    6.48
  16  -4   2    1.52    6.67
 -16   4   2    9.62    5.52
  16  -4  -2   13.62    5.71
 -16   4  -2   16.09    7.43
  16  -4   3    5.52    7.14
 -16   4   3    1.43    4.76
 -16  -4  -3   -0.86    9.05
  16  -4  -3    6.95    5.24
 -16   4  -3   -3.43    6.76
 -16  -4  -4   19.52    9.62
  16   4   4   10.57    9.43
 -16   4  -4   18.38    8.28
  16  -4   5   10.19    8.28
 -16  -4  -5   10.67    8.95
  16   4   5    1.33    8.67
 -16   4  -5   -1.33    7.52
  16  -4   6   10.67    7.81
 -16  -4  -6    3.33    8.00
  16   4   6    2.29    7.71
 -16   4  -6   -0.95    7.14
  16  -4   7    3.05    7.33
 -16  -4  -7   10.28    7.81
  16   4   7    1.90    7.43
 -16   4  -7   -5.24    6.86
  16  -4   8   -3.71    6.57
 -16  -4  -8    2.76    6.95
  16   4   8    2.95    7.33
 -16   4  -8    1.52    6.48
  16  -4   9    8.19    6.76
 -16  -4  -9    7.24    6.67
  16   4   9    0.19    6.95
 -16   4  -9   -6.09    6.09
  16  -4  10   -3.52    6.19
 -16  -4 -10   -2.67    6.09
  16   4  10   -1.43    6.29
  16  -4 -10   -0.76    4.09
 -16   4 -10    3.62    6.67
  16  -4  11    1.52    6.29
 -16   4  11    0.86    3.62
 -16  -4 -11   -1.81    6.38
  16   4  11   -1.14    6.19
  16  -4 -11    0.19  194.08
 -16   4 -11   -3.90    9.62
  16  -4  12   -2.95    5.81
 -16   4  12    4.86    3.81
 -16  -4 -12   -0.29    6.00
  16   4  12   -3.90    5.62
 -16  -4  12    1.43    4.57
  16  -4 -12   -1.14    4.00
 -16   4 -12   -1.05    6.00
  16  -4  13   -5.90    6.00
 -16   4  13    0.38    3.90
  16   4 -13   -0.29    4.76
 -16  -4 -13    3.33    6.38
  16   4  13    0.67    5.71
 -16  -4  13    1.24    4.38
  16  -4 -13    1.90    4.09
 -16   4 -13    2.29    6.38
  16  -4  14    7.43    8.28
 -16   4  14   -1.43   44.57
  16   4 -14   -2.57    4.76
 -16  -4 -14   -1.90    5.90
  16   4  14   13.90    7.14
 -16  -4  14    3.33    4.48
  16  -4 -14    1.05    9.14
 -16   4 -14   -3.81    6.00
  16  -5   1 1290.35  125.32
 -16   5   1 1359.86  131.32
  16  -5  -1  998.00   96.94
 -16   5  -1 1147.50  111.80
  16  -5   2  265.02   28.66
 -16   5   2  255.78   26.57
  16  -5  -2  265.31   27.52
 -16   5  -2  258.07   28.19
  16  -5   4    1.52    7.05
 -16   5  -4   -0.19    7.05
  16  -5   5   -0.38    7.43
 -16  -5  -5   12.28    8.67
 -16   5  -5    2.00    8.00
  16  -5   6    1.90    6.76
 -16   5  -6    5.33    7.24
  16  -5   7   30.00    8.48
 -16  -5  -7   27.71    8.95
  16   5   7   34.00    9.43
 -16   5  -7   69.61   12.38
  16  -5   8    5.14    7.05
  16   5   8    7.24    7.52
 -16   5  -8   22.19    7.71
  16  -5   9   31.14    8.67
 -16  -5  -9   52.85   11.90
  16   5   9   26.09    9.05
 -16   5  -9   34.66    8.67
  16  -5  10    2.00    6.29
 -16  -5 -10   -0.76    6.86
  16   5  10    4.48    6.57
  16  -5  11    9.43    6.48
 -16  -5 -11   -3.05    5.90
  16   5  11    5.90    6.57
 -16   5 -11   12.09    7.14
  16  -5  12    5.62    6.00
 -16  -5 -12    5.33    6.38
  16   5  12    8.67    6.86
  16  -5 -12    5.71    4.86
 -16   5 -12   -0.19    6.48
  16  -5  13   -2.76    6.00
 -16   5  13    3.24   16.47
 -16  -5 -13    4.86    6.67
  16   5  13    5.05    6.57
 -16  -5  13    4.19    4.95
  16  -5 -13   12.67    5.24
 -16   5 -13   -2.19    6.76
  16  -5  14  -10.28    6.57
 -16   5  14    5.81   13.43
  16   5 -14    1.90   28.76
 -16  -5 -14    2.19    6.00
 -16  -5  14    5.62    4.95
 -16   5 -14    6.09   64.09
  16  -6   0  109.42   14.09
 -16   6   0   90.85   12.57
  16  -6   1   -1.52    6.29
 -16   6   1    8.76    6.09
  16  -6  -1    4.29    6.57
 -16   6  -1   13.24    7.05
  16  -6   2   18.95    7.43
 -16   6  -2   27.24    8.48
  16  -6   3   -7.05    6.95
 -16   6  -3    7.52    7.62
  16  -6   4   26.95    8.67
 -16   6  -4   30.00    9.05
  16  -6   5   11.14    7.81
 -16   6  -5    3.05    7.43
  16  -6   6   -7.81    6.57
 -16  -6  -6    1.62    7.62
 -16   6  -6    9.33    7.14
  16  -6   7    8.09    6.57
 -16  -6  -7    5.24    7.62
  16   6   7   11.71    7.52
 -16   6  -7    5.71    6.76
  16  -6   8   13.52    6.48
 -16  -6  -8   14.28    8.48
  16   6   8    9.14    7.81
 -16   6  -8    5.24    6.00
  16  -6   9    2.00    5.52
 -16  -6  -9    1.71    7.05
  16   6   9   -1.14    6.38
 -16   6  -9    4.48    5.90
  16  -6  10    0.48    5.33
 -16  -6 -10    2.48    6.95
  16   6  10   10.38    6.95
 -16   6 -10    5.05    6.48
  16  -6  11   -0.86    5.24
 -16  -6 -11    0.86    6.67
  16   6  11    3.62    6.57
 -16   6 -11    0.48    5.90
  16  -6  12    4.00    6.09
 -16  -6 -12    5.81    7.24
  16   6  12    1.43   30.95
 -16   6 -12   -2.76    5.71
  16  -6  13   -0.95    6.19
 -16  -6 -13    1.71    6.00
  16   6  13   -2.38    6.29
  16  -6 -13    1.62    4.19
 -16   6 -13   -4.38    5.43
 -16  -6 -14    8.28    6.57
 -16  -6  14    2.00   20.47
  16  -6 -14    1.52   16.47
 -16   6 -14   -1.14    6.86
  16  -7   0    3.90    6.67
 -16   7   0    1.90    6.76
  16  -7   1  110.27   14.76
 -16   7  -1  109.89   14.76
  16  -7   2   -0.86    6.86
 -16   7  -2    7.90    7.33
  16  -7   3   10.00    7.24
 -16   7  -3    3.81    7.33
  16  -7   4   13.90    8.28
 -16   7  -4    9.90    8.38
  16  -7   5   15.81    7.71
 -16   7  -5    9.90    7.62
  16  -7   6   -0.38    6.48
 -16   7  -6    7.43    7.24
  16  -7   7   18.57    7.24
 -16   7  -7   16.28    7.05
  16  -7   8    1.14    5.62
 -16  -7  -8    3.71    8.00
 -16   7  -8   12.95    6.19
  16  -7   9    2.57    5.62
 -16  -7  -9   23.52    8.86
 -16   7  -9    2.19    5.90
  16  -7  10    2.95    5.71
 -16  -7 -10    2.38    6.57
  16   7  10    8.09    6.86
 -16   7 -10    7.05    6.00
  16  -7  11   -0.19    5.33
 -16  -7 -11   -5.14   15.24
  16   7  11    6.57    6.67
 -16   7 -11    5.43    6.19
  16  -7  12   -0.10    5.24
 -16  -7 -12   -3.90    6.57
  16   7  12   -2.67    6.00
 -16   7 -12   14.67    6.86
  16  -7  13    3.43    5.71
 -16  -7 -13    8.09    8.09
  16   7  13   -3.14    5.90
 -16   7 -13    1.62    5.90
  16  -8   0   49.23    9.90
  16  -8   1   61.80   11.24
 -16   8  -1   54.09   10.57
  16  -8   2   13.71    8.19
 -16   8  -2   38.47    9.43
  16  -8   3    5.81    7.52
 -16   8  -3    0.86    8.00
  16  -8   4   44.09   10.09
 -16   8  -4   35.81    9.81
  16  -8   5   -1.62    6.86
 -16   8  -5   -3.52    6.86
  16  -8   6   -5.33    6.09
 -16   8  -6    6.38    7.05
  16  -8   7   25.43    7.90
 -16   8  -7    6.95    7.24
  16  -8   8   -2.48    5.14
 -16   8  -8    2.10    5.43
  16  -8   9    5.05    5.62
 -16   8  -9    8.86    6.38
  16  -8  10    5.33    5.62
 -16  -8 -10   -5.81    6.57
 -16   8 -10    2.19    6.19
 -16  -8 -11    7.24    7.24
  16   8  11   20.57    7.71
 -16   8 -11   14.86    6.95
  16  -8  12   -0.48    4.95
 -16  -8 -12    6.29    6.86
  16   8  12    4.67    6.38
 -16   8 -12    2.38    5.81
  16  -8  13    8.19    6.09
 -16  -8 -13   -8.76    6.19
  16   8  13   10.09    7.24
 -16   8 -13   -1.14    5.71
  16  -9   1   19.90    8.38
  16  -9   2    3.24    7.71
 -16   9  -2    4.19    7.71
  16  -9   3   -0.67    7.43
 -16   9  -3    5.90    7.71
  16  -9   4   -1.52    7.52
 -16   9  -4   -1.81    7.14
  16  -9   5   12.67    7.14
 -16   9  -5   11.71    7.05
  16  -9   6    2.95    5.71
 -16   9  -6   -4.19    6.19
  16  -9   7    0.48    5.71
 -16   9  -7    1.81    5.81
  16  -9   8    2.57    5.43
 -16   9  -8   -5.62    5.24
  16  -9   9   -4.57    4.95
 -16   9  -9    2.95    6.48
  16  -9  10    0.48    5.14
 -16   9 -10    2.38    6.00
  16  -9  11    5.33    5.81
 -16  -9 -11    1.33    6.76
 -16   9 -11    8.76    6.86
  16  -9  12    3.05    5.43
 -16  -9 -12    0.95    6.76
 -16   9 -12    6.29    5.62
  16  -9  13   -1.33    5.43
 -16  -9 -13    8.95    7.90
  16   9  13    1.62    7.05
 -16   9 -13    2.29    6.38
  16 -10   2  118.94   16.47
  16 -10   3    2.86    7.43
 -16  10  -3    5.24    7.71
  16 -10   4   42.28    9.90
 -16  10  -4   34.47    9.24
  16 -10   5    2.00    6.48
 -16  10  -5   15.90    7.71
  16 -10   6    6.95    5.90
 -16  10  -6   14.67    6.95
  16 -10   7    9.14    6.00
 -16  10  -7    3.62    5.62
  16 -10   8    3.90    5.81
 -16  10  -8   -0.67    5.81
  16 -10   9    6.57    6.00
 -16  10  -9    6.76    6.38
  16 -10  10   -0.10    5.33
 -16  10 -10   -1.71    5.71
  16 -10  11    4.48    5.90
 -16  10 -11   -1.33    6.00
  16 -10  12    4.38    5.52
 -16  10 -12    2.10    5.62
  16 -11   3    9.71    7.71
  16 -11   4    0.38    6.57
 -16  11  -4   -2.29    6.67
  16 -11   5   -2.57    6.29
 -16  11  -5    5.14    6.48
  16 -11   6    9.14    6.67
 -16  11  -6    4.86    6.09
  16 -11   7   16.19    6.95
 -16  11  -7   15.62    7.33
  16 -11   8   -2.95    5.71
 -16  11  -8    2.10    5.71
  16 -11   9    5.52    5.90
 -16  11  -9    5.05    6.00
  16 -11  10    4.29    5.33
 -16  11 -10    2.86    6.00
  16 -11  11    0.57    5.33
 -16  11 -11   -1.81    6.00
  16 -11  12    1.05    5.62
 -16  11 -12    6.19    6.86
  16 -12   4    9.24    7.05
  16 -12   5   -4.29    6.09
 -16  12  -5   -4.19    6.19
  16 -12   6   -0.76    6.29
 -16  12  -6   -0.19    5.90
  16 -12   7    6.19    6.38
 -16  12  -7   14.38    6.76
  16 -12   8   16.76    7.43
 -16  12  -8   13.14    7.05
  16 -12   9   -1.52    5.43
 -16  12  -9    1.62    6.29
  16 -12  10   14.38   17.14
 -16  12 -10    6.29    6.09
  16 -12  11    2.38    5.43
 -16  12 -11    1.33    6.19
  16 -12  12    0.48    5.90
 -16  12 -12    0.86   14.47
  16 -13   5    8.57    6.86
  16 -13   6   18.66    7.71
 -16  13  -6   23.90    7.52
  16 -13   7    9.90    6.57
 -16  13  -7    8.00    6.38
  16 -13   8   14.47    7.43
 -16  13  -8   17.43    7.24
  16 -13   9    1.52    6.19
 -16  13  -9   -1.05    5.52
  16 -13  10    3.14    5.62
 -16  13 -10   -2.38    5.43
  16 -13  11    4.67    5.81
 -16  13 -11    5.14    6.38
  16 -14   6    2.29    6.76
  16 -14   7    1.14    6.09
 -16  14  -7    0.29    6.00
  16 -14   8    4.19    6.38
 -16  14  -8    1.33    5.90
  16 -14   9    3.14    6.38
 -16  14  -9   -2.57    6.09
  16 -14  10    8.86    6.76
 -16  14 -10    6.95    6.57
  16 -14  11    0.38    5.62
 -16  14 -11    0.48    6.48
  16 -15   7    8.57    6.86
  16 -15   8   -0.76    6.19
 -16  15  -8    1.81    6.29
  16 -15   9   -0.38    6.00
 -16  15  -9   -0.48    6.29
  16 -15  10    0.48    6.09
 -16  15 -10   -1.05    6.29
  16 -16   8   -4.95    9.52
  16 -16   9    2.67    6.00
 -16  16  -9   -0.76    5.71
  17   0   0  -10.76    8.00
 -17   0   0   -0.38    7.43
  17   0   1   49.14   10.19
 -17   0   1   44.38    8.28
  17   0  -1   20.47    7.24
 -17   0  -1   29.14    8.86
  17   0   2    3.24    8.19
 -17   0   2    0.57    5.33
  17   0  -2    4.29    6.09
 -17   0  -2   18.76    8.67
  17   0   4   42.47   10.95
 -17   0   4   10.57    4.09
 -17   0  -4   17.24    9.24
  17   0   6   68.95   12.38
 -17   0  -6   91.23   14.28
  17   0   7   10.76    8.19
 -17   0  -7    6.29    7.43
  17   0   8   15.52    7.90
 -17   0   8    4.00    2.67
  17   0   9    2.48    6.95
 -17   0   9    4.95    2.86
  17   0  -9    1.05    3.14
 -17   0  -9   -6.67    6.48
 -17   0  10    0.00    5.43
  17   0 -10    3.24    3.43
  17   0  11   15.71    7.33
 -17   0  11   34.66    5.71
 -17   0 -11   38.28    9.90
  17   0  12   27.33    8.28
 -17   0  12   23.14    5.24
 -17   0 -12   32.85    9.52
 -17   0  13    7.81    4.38
  17   0 -13    9.52    4.57
 -17   0 -13   38.38   10.28
 -17   0  14    3.43    4.95
  17   0 -14    6.95    4.95
 -17   0 -14   24.38    9.62
  17   1   0    8.48    7.24
 -17  -1   0   12.09    6.95
  17  -1   0    7.14    6.95
 -17   1   0   30.38    7.71
  17  -1   1   -0.48    7.05
 -17   1   1    1.33    6.00
  17   1  -1    1.24    6.67
 -17  -1  -1    3.52    7.33
  17   1   1   18.00    8.09
 -17  -1   1   11.71    6.76
  17  -1  -1    2.76    6.19
 -17   1  -1    8.48    7.05
  17  -1   2   12.57    7.90
 -17   1   2    3.52    5.33
 -17  -1  -2    3.52    7.62
  17   1   2    1.14    8.09
 -17  -1   2    8.67    6.00
  17  -1  -2    4.38    6.00
  17  -1   3   17.24    8.95
 -17   1   3   11.52    4.76
 -17  -1  -3    2.00    8.09
  17   1   3   16.28    9.24
  17  -1  -3    5.43    5.33
 -17   1  -3    2.29    7.90
  17  -1   4    3.43    8.28
 -17   1   4    1.62    3.33
 -17  -1  -4   22.66    9.14
  17   1   4    3.71    8.76
  17  -1  -4    6.29    4.29
 -17   1  -4   -0.95    7.81
  17  -1   5   13.71    8.19
 -17   1   5   -2.95    2.29
 -17  -1  -5    9.24    8.28
  17   1   5   -1.14    7.71
  17  -1  -5    2.29    3.05
 -17   1  -5    1.05    7.71
  17  -1   6    4.67    7.14
 -17  -1  -6    2.00    7.33
  17   1   6    7.62    7.33
 -17   1  -6    6.76    7.14
  17  -1   7    8.57    6.95
 -17  -1  -7    3.05    6.86
  17   1   7   -3.14    6.76
 -17   1  -7    3.62    7.05
  17  -1   8    4.00    6.48
 -17   1   8    1.90    2.10
 -17  -1  -8   14.95    7.71
  17   1   8   21.52    8.86
  17  -1  -8   -1.62    2.29
 -17   1  -8   -2.38    6.57
  17  -1   9    1.33    6.38
 -17   1   9    8.95    3.05
 -17  -1  -9    9.33    7.33
  17   1   9    5.24    7.14
 -17  -1   9    5.33    3.24
  17  -1  -9    5.14    2.76
 -17   1  -9    7.33    7.05
  17  -1  10    2.29    5.81
 -17   1  10    1.71    3.14
  17   1 -10    0.19    3.90
 -17  -1 -10   -0.10    6.48
  17   1  10   -0.57    5.81
 -17  -1  10   -1.52    3.24
  17  -1 -10   -4.86    3.05
 -17   1 -10   -2.86    6.00
  17  -1  11    8.67    6.29
 -17   1  11   -0.38   92.85
  17   1 -11    1.71    3.81
 -17  -1 -11    4.57    6.19
  17   1  11    6.48    6.38
 -17  -1  11   -0.38    3.52
  17  -1 -11    3.90    4.00
 -17   1 -11    7.81    6.76
  17  -1  12    9.71    6.38
 -17   1  12    1.14    3.52
  17   1 -12    2.00    3.90
 -17  -1 -12    1.24    6.29
  17   1  12    5.71    6.29
 -17  -1  12    1.05   23.33
  17  -1 -12    0.48    4.09
 -17   1 -12    5.14    6.48
  17  -1  13    0.86    6.38
 -17   1  13    1.05    3.52
  17   1 -13    3.90    4.57
 -17  -1 -13    0.29    6.38
  17   1  13    2.95    6.38
 -17  -1  13   -1.24    3.71
  17  -1 -13    1.14    4.29
 -17   1 -13    7.24    6.76
  17   1 -14   -0.29   98.75
 -17  -1 -14   -8.00    6.29
 -17  -1  14    2.29    6.86
  17  -1 -14    2.67    4.76
 -17   1 -14   -2.19    7.24
  17   2   0   26.47    8.19
  17  -2   0    3.71    7.14
 -17   2   0    2.19    6.09
  17  -2   1    5.71    7.24
 -17   2   1   10.57    6.38
 -17  -2  -1   22.28    8.86
  17   2   1   20.38    8.48
  17  -2  -1    2.86    6.67
 -17   2  -1   -4.00    6.86
  17  -2   2    7.14    7.43
 -17   2   2   10.09    5.71
 -17  -2  -2   14.00    8.38
  17   2   2   16.76    8.57
  17  -2  -2   13.71    6.76
 -17   2  -2   -0.10    7.33
  17  -2   3    0.86    8.00
 -17   2   3   20.76    5.24
 -17  -2  -3    7.81    8.76
  17   2   3   -4.19    8.48
  17  -2  -3   10.76    5.52
 -17   2  -3    2.86    7.71
  17  -2   4   50.95   10.86
 -17   2   4   52.76    6.67
 -17  -2  -4   70.28   12.67
  17   2   4   63.23   12.47
  17  -2  -4   50.38    7.05
 -17   2  -4   51.61   10.95
  17  -2   5    9.33    7.90
 -17   2   5   -1.90    2.48
 -17  -2  -5   -0.67    7.52
  17   2   5    0.38    7.62
  17  -2  -5    3.71    3.05
 -17   2  -5   10.76    7.52
  17  -2   6   -4.76    6.86
 -17  -2  -6    7.05    7.43
  17   2   6    8.09    7.33
 -17   2  -6    6.29    7.33
  17  -2   7    2.10    6.48
 -17  -2  -7   -0.19    6.86
  17   2   7   -0.10    7.14
 -17   2  -7   11.52    7.33
  17  -2   8   -1.33    6.19
 -17   2   8    5.52    2.38
 -17  -2  -8    4.95    6.67
  17   2   8   -4.38    6.67
  17  -2  -8   -4.57    2.48
 -17   2  -8   -1.52    6.29
  17  -2   9    1.62    6.09
 -17   2   9    4.19    2.57
 -17  -2  -9    0.29    7.05
  17   2   9   -8.67    6.38
  17  -2  -9    2.95    3.05
 -17   2  -9    1.05    6.29
  17  -2  10    4.67    6.38
 -17   2  10    2.29    2.76
 -17  -2 -10    1.71    6.67
  17   2  10    4.00    5.90
 -17  -2  10   -0.86    3.52
  17  -2 -10    4.38    3.52
 -17   2 -10    5.90    6.76
  17  -2  11   -0.95    5.33
 -17   2  11   -1.14    3.14
  17   2 -11   -4.86    4.09
 -17  -2 -11   -8.00    5.43
  17   2  11   -3.62    5.71
 -17  -2  11    2.76    3.81
  17  -2 -11    2.29    3.71
 -17   2 -11    2.95    6.95
  17  -2  12    8.67    6.57
 -17   2  12    8.28    6.86
  17   2 -12   10.57    4.95
 -17  -2 -12   13.62    7.33
  17   2  12    3.90    6.57
 -17  -2  12    9.81    4.29
  17  -2 -12    8.28    4.38
 -17   2 -12    3.14    6.86
  17  -2  13    5.62    6.29
 -17   2  13    6.57    4.48
  17   2 -13    8.38    4.48
 -17  -2 -13    8.00    6.95
  17   2  13    7.05    6.48
 -17  -2  13    5.71    4.09
  17  -2 -13    3.81    4.57
 -17   2 -13    0.00    6.38
 -17   2  14    2.57    4.19
  17   2 -14    4.95    9.14
 -17  -2 -14    6.38    8.48
 -17  -2  14   10.38    5.05
 -17   2 -14    5.62    7.62
  17  -3   0    2.10    6.76
 -17   3   0    1.24    6.09
 -17   3   1   80.28   10.86
 -17  -3  -1   88.18   13.62
 -17   3  -1   83.13   12.28
  17  -3   2    9.24    7.90
 -17   3   2   17.14    5.43
 -17  -3  -2   40.19   10.48
  17   3   2   12.57    8.28
  17  -3  -2    3.24    5.24
 -17   3  -2    8.28    7.33
  17  -3   3   73.14   12.47
 -17  -3  -3   57.80   12.09
  17   3   3   33.90   10.38
 -17   3  -3   36.00    9.43
  17  -3   4    2.38    7.71
 -17   3   4   10.28    3.90
 -17  -3  -4   25.81    9.43
  17   3   4   -1.43    8.09
  17  -3  -4    5.14    4.00
 -17   3  -4    0.10    7.62
  17  -3   5    4.67    7.71
 -17  -3  -5   -4.67    7.71
  17   3   5    7.52    7.90
  17  -3  -5   13.24    3.81
 -17   3  -5    6.67    7.62
  17  -3   6   -7.71    7.05
 -17  -3  -6   -2.29    7.33
  17   3   6    5.52    7.62
 -17   3  -6   -5.62    6.86
  17  -3   7    6.48    7.05
 -17  -3  -7    6.48    7.33
  17   3   7    2.10    6.95
 -17   3  -7   -0.48    6.57
  17  -3   8    0.29    6.38
 -17  -3  -8    0.95    6.86
  17   3   8    7.90    7.14
 -17   3  -8   -2.00    6.19
  17  -3   9   24.95    8.19
 -17  -3  -9   24.57    8.38
  17   3   9   26.76    8.28
  17  -3  -9   15.81    3.90
 -17   3  -9   19.14    7.52
  17  -3  10    2.95    6.38
 -17   3  10    1.33    3.05
 -17  -3 -10   -3.24    6.00
  17   3  10    1.62    6.00
  17  -3 -10   -2.48    3.33
 -17   3 -10   -1.52   19.52
  17  -3  11    0.95    5.90
 -17  -3 -11    7.90    6.95
  17   3  11    1.43    6.38
 -17  -3  11    0.48    3.81
  17  -3 -11    0.57    3.62
 -17   3 -11    5.33    6.67
  17  -3  12    1.43    6.00
 -17   3  12    2.19    3.33
  17   3 -12    3.24    4.67
 -17  -3 -12   -2.38    6.00
  17   3  12   -3.43    5.52
 -17  -3  12    4.09    4.48
  17  -3 -12    6.48    4.48
 -17   3 -12    1.81    6.48
  17  -3  13   -4.29    6.09
 -17   3  13   -0.38    3.52
  17   3 -13   -0.76    8.67
 -17  -3 -13   -0.67    6.00
  17   3  13   -1.71    6.29
 -17  -3  13   -0.76    4.57
  17  -3 -13    4.86   24.09
 -17   3 -13   -8.67    6.29
  17  -4   0    4.57    6.00
 -17   4   0    0.48    5.62
  17  -4   1   -0.95    6.00
 -17   4   1    1.52    5.62
  17  -4  -1    6.76    5.71
 -17   4  -1    8.48    6.67
  17  -4   2    0.38    6.67
 -17   4   2    3.52    5.14
  17  -4  -2    3.71    5.14
 -17   4  -2    2.19    6.67
  17  -4   3    5.90    7.62
 -17   4   3    4.00    4.76
 -17  -4  -3    2.38    8.28
  17  -4  -3    0.95    4.86
 -17   4  -3    2.19    6.95
  17  -4   4    7.24    7.81
 -17  -4  -4    2.95    8.28
  17   4   4   -0.38    7.81
  17  -4  -4   -2.38    4.76
 -17   4  -4    9.90    7.43
  17  -4   5    3.81    7.52
 -17  -4  -5   11.33    8.00
  17   4   5    7.33    7.71
 -17   4  -5   -5.33    7.05
  17  -4   6    3.14    7.05
 -17  -4  -6   -4.19    7.43
  17   4   6    4.09    7.33
 -17   4  -6    4.38    6.76
  17  -4   7   -0.38    6.48
 -17  -4  -7    5.81    7.43
  17   4   7    3.43    6.95
 -17   4  -7   -6.57    6.00
  17  -4   8   16.09    7.33
 -17  -4  -8    2.57    7.24
  17   4   8    0.38    6.95
 -17   4  -8    1.33    6.09
  17  -4   9    2.00    6.09
 -17  -4  -9    2.67    6.48
  17   4   9    3.05    6.67
 -17   4  -9    4.00    6.19
  17  -4  10   -1.33    5.90
 -17  -4 -10   -4.67    5.90
  17   4  10   -6.38    5.62
  17  -4 -10    4.48    3.81
 -17   4 -10    8.09    6.86
  17  -4  11    0.19    5.81
 -17  -4 -11   -7.24    5.90
  17   4  11    1.05    5.90
  17  -4 -11    1.43    4.00
 -17   4 -11   -0.76    6.48
  17  -4  12    0.67    6.29
 -17   4  12    2.29   25.33
 -17  -4 -12    0.00    6.38
  17   4  12    9.24    6.57
 -17  -4  12    7.62    4.67
  17  -4 -12    4.09    4.19
 -17   4 -12   14.47   13.24
  17  -4  13   -7.33    6.00
 -17   4  13    2.67    3.90
  17   4 -13    3.90    5.05
 -17  -4 -13   -8.57    5.62
  17   4  13   -2.10    6.48
 -17  -4  13    1.43    4.48
  17  -4 -13   -0.76    5.05
 -17   4 -13    9.33  260.35
  17  -5   0   18.66    6.76
 -17   5   0   -2.00    6.00
  17  -5   1   24.85    7.71
 -17   5   1   17.71    6.38
 -17   5  -1   31.23    8.28
  17  -5   2    4.86    6.95
 -17   5   2    3.52    5.71
  17  -5  -2   14.67    5.81
 -17   5  -2    0.38    6.67
  17  -5   3    2.10    6.86
  17  -5  -3    8.48    5.90
 -17   5  -3   15.33    7.81
  17  -5   4   -1.43    6.95
 -17   5  -4    3.33    6.95
  17  -5   5    8.09    6.95
 -17  -5  -5   17.62    8.57
  17   5   5    9.90    7.81
 -17   5  -5    6.00    7.24
  17  -5   6   -6.67    6.19
 -17   5  -6    2.76    6.48
  17  -5   7   19.43    7.71
 -17  -5  -7    6.09    7.43
  17   5   7   15.43    7.90
 -17   5  -7   30.66    8.38
  17  -5   8    9.43    6.67
 -17  -5  -8   37.33    9.81
  17   5   8   28.66    9.14
 -17   5  -8    7.71    6.19
  17  -5   9    9.71    6.38
 -17  -5  -9   -4.57    6.57
  17   5   9   -0.95    6.48
 -17   5  -9    5.52    5.62
  17  -5  10    5.71    6.38
 -17  -5 -10    4.38    6.67
  17   5  10   -2.67    6.00
 -17   5 -10   -2.95    6.19
  17  -5  11   -1.81    6.00
 -17  -5 -11    7.52    6.57
  17   5  11    6.95    6.48
 -17   5 -11   -1.62    6.09
  17  -5  12    6.38    6.57
 -17  -5 -12    2.19    6.29
  17   5  12    5.14    5.81
  17  -5 -12   22.09    5.62
 -17   5 -12   -7.05    6.19
  17  -5  13    4.57    6.67
 -17   5  13    2.95    4.09
 -17  -5 -13    6.29    6.48
  17   5  13   -5.43    5.90
 -17  -5  13    0.95    5.05
  17  -5 -13    0.38    4.29
 -17   5 -13    3.71    6.67
  17  -6   1    6.38    6.48
 -17   6   1    0.67    6.09
  17  -6  -1   12.09    6.86
 -17   6  -1   -0.19    6.57
  17  -6   2   -4.38    6.76
  17  -6  -2    8.95    6.29
 -17   6  -2   16.38    7.90
  17  -6   3    7.90    7.05
 -17   6  -3    3.05    7.52
  17  -6   4   11.43    7.33
 -17   6  -4    7.90    7.43
  17  -6   5    6.67    6.86
 -17   6  -5    5.14    6.86
  17  -6   6    0.76    6.09
 -17  -6  -6   25.24    9.14
 -17   6  -6    1.52    6.19
  17  -6   7    2.48    5.81
 -17  -6  -7   13.62    7.90
  17   6   7    2.19    6.95
 -17   6  -7    6.09    6.29
  17  -6   8    4.00    5.52
 -17  -6  -8   -2.48    7.05
  17   6   8   -0.48    6.95
 -17   6  -8    2.48    5.62
  17  -6   9    1.05    5.43
 -17  -6  -9   -9.62    6.19
  17   6   9    2.38    6.38
 -17   6  -9    0.00    5.43
  17  -6  10    2.19    5.81
 -17  -6 -10    6.67    7.71
  17   6  10    6.09    6.48
 -17   6 -10   -2.48    5.33
  17  -6  11   -2.95    5.62
 -17  -6 -11    7.14    7.33
  17   6  11    6.67    6.48
 -17   6 -11    8.86    6.09
  17  -6  12    3.24    6.29
 -17  -6 -12   -1.14    6.38
  17   6  12    1.43    6.19
 -17   6 -12   -3.14    5.90
  17  -6  13   -3.71    6.00
 -17  -6 -13   -2.86   14.38
  17   6  13   -0.67    6.19
  17  -6 -13    1.81    4.09
 -17   6 -13    0.00    6.38
  17  -7   0    3.90    6.95
 -17   7   0    3.90    6.67
  17  -7   1    7.90    7.14
  17  -7  -1   34.38    8.28
  17  -7   2    2.57    6.95
 -17   7  -2    0.29    7.14
  17  -7   3   83.32   13.05
 -17   7  -3  124.27   16.76
  17  -7   4    7.43    6.86
 -17   7  -4   17.24    8.00
  17  -7   5   64.18   11.24
 -17   7  -5   34.38    9.14
  17  -7   6   -1.24    5.52
 -17   7  -6    4.76    6.19
  17  -7   7    5.71    5.81
 -17   7  -7    7.43    6.09
  17  -7   8   -0.19    5.71
 -17  -7  -8    2.00    6.95
 -17   7  -8    6.38    5.81
  17  -7   9   14.00    7.05
 -17  -7  -9    6.00    7.05
  17   7   9   30.95    9.05
 -17   7  -9    7.52    6.29
  17  -7  10    9.62    6.09
 -17  -7 -10    0.29    6.95
  17   7  10    9.52    6.76
 -17   7 -10    9.52    6.48
  17  -7  11   36.85    9.14
 -17  -7 -11   38.57   10.28
  17   7  11   30.76    9.43
 -17   7 -11   39.81    9.62
  17  -7  12    5.81    5.71
 -17  -7 -12   15.52    7.81
  17   7  12    4.48    6.86
 -17   7 -12    2.38    5.81
  17  -7  13   22.38    8.00
 -17  -7 -13   15.71    8.86
  17   7  13   15.90    8.19
 -17   7 -13   37.14   10.19
  17  -8   0  187.22   21.62
  17  -8   1    7.71    7.43
 -17   8  -1   18.66    7.90
  17  -8   3   38.00    9.05
 -17   8  -3   50.85   10.67
  17  -8   4  193.50   22.85
 -17   8  -4  155.41   19.62
  17  -8   5    8.48    6.29
 -17   8  -5    7.62    6.76
  17  -8   7    9.62    6.00
 -17   8  -7    3.43    5.71
  17  -8   8   10.95    6.48
 -17   8  -8   19.81    7.14
  17  -8   9   16.28    6.86
 -17  -8  -9    5.14    6.57
 -17   8  -9   24.38    7.62
  17  -8  10   42.19    9.62
 -17   8 -10   61.90   11.81
  17  -8  11    9.52    6.29
 -17  -8 -11    0.10    6.57
  17   8  11    1.05    6.09
 -17   8 -11    5.43    5.90
  17  -8  12   27.14    7.90
 -17  -8 -12    5.81    7.43
  17   8  12    9.14    7.52
 -17   8 -12    4.19    6.09
  17  -8  13   -3.05    8.28
  17  -9   1   22.28    8.09
  17  -9   2   -0.10    6.95
 -17   9  -2   -2.95    6.67
  17  -9   3   -5.24    6.67
 -17   9  -3    4.09    7.05
  17  -9   4   -3.71    6.00
 -17   9  -4    6.09    6.48
  17  -9   5    1.14    5.71
 -17   9  -5   -3.81    5.71
  17  -9   6   -1.62    5.33
 -17   9  -6   -8.19    5.52
  17  -9   7    1.14    5.81
 -17   9  -7    6.09    6.29
  17  -9   8    2.76    5.62
 -17   9  -8    2.19   58.47
  17  -9   9    4.95    5.62
 -17   9  -9    6.76    6.00
  17  -9  10   -1.43    5.24
 -17   9 -10    2.29    6.00
  17  -9  11   -6.57    5.14
 -17  -9 -11    2.67    6.95
 -17   9 -11    3.05    6.29
  17  -9  12   -0.19    4.86
 -17  -9 -12    5.14    6.48
  17   9  12   15.14    7.14
 -17   9 -12    0.00    6.00
  17 -10   2   -2.10    6.38
  17 -10   3    2.57    6.76
 -17  10  -3    1.62    6.48
  17 -10   4   19.43    7.52
 -17  10  -4   20.86    8.00
  17 -10   5    1.14    5.52
 -17  10  -5   -4.86    5.81
  17 -10   6   21.05    6.95
 -17  10  -6   10.00    6.29
  17 -10   7    5.81    5.81
 -17  10  -7    1.81    5.90
  17 -10   8   14.67    6.86
 -17  10  -8    4.57    6.09
  17 -10   9   -1.24    6.29
 -17  10  -9    0.57    9.62
  17 -10  10   -1.05    5.14
 -17  10 -10   -1.43    5.81
  17 -10  11    7.81    5.90
 -17  10 -11   -0.29    5.52
  17 -10  12    5.62    5.71
 -17 -10 -12    5.14    7.05
 -17  10 -12   -5.33    5.71
  17 -11   3    5.90    6.48
  17 -11   5    6.57    6.09
 -17  11  -5   15.81    7.14
  17 -11   6    1.14    6.19
 -17  11  -6    7.24    6.09
  17 -11   7   -1.81    5.62
 -17  11  -7   -1.71    5.81
  17 -11   8   -2.00    5.52
 -17  11  -8    6.38    6.09
  17 -11   9    2.19    5.62
 -17  11  -9    8.48    6.48
  17 -11  10    2.57    5.43
 -17  11 -10   -2.86    5.52
  17 -11  11   -0.67    4.76
 -17  11 -11    2.57    6.00
  17 -12   4   81.71   13.05
  17 -12   5    2.57    6.38
 -17  12  -5    4.19    5.81
  17 -12   6   10.38    6.86
 -17  12  -6    3.33    6.19
  17 -12   7   -1.05    6.09
 -17  12  -7   -4.09    5.62
  17 -12   8   25.71    8.00
 -17  12  -8    5.43    6.57
  17 -12   9    0.57    5.43
 -17  12  -9    4.09    6.29
  17 -12  10   30.19    8.48
 -17  12 -10   30.95    9.24
  17 -12  11    3.43    5.71
 -17  12 -11    4.76    5.90
  17 -13   5   97.32   14.76
  17 -13   6   11.43    7.24
 -17  13  -6    0.19    5.90
  17 -13   7    2.29    6.57
 -17  13  -7    0.00    5.62
  17 -13   8    0.38    6.38
 -17  13  -8    5.81    6.19
  17 -13   9   86.28   14.19
 -17  13  -9  114.08   16.86
  17 -13  10   -3.43    5.24
 -17  13 -10    5.24    6.76
 -17  13 -11   23.05   10.48
  17 -14   6   -2.67    5.81
  17 -14   7    3.81    6.29
 -17  14  -7    2.10    6.09
  17 -14   8    6.09    6.19
 -17  14  -8   -5.81    5.71
  17 -14   9    2.57    6.19
 -17  14  -9   -3.71    5.90
  17 -14  10    2.57    6.57
 -17  14 -10   -3.14    6.19
  17 -15   7   -0.57    6.19
  17 -15   8    3.05    6.09
 -17  15  -8    2.38    6.09
  17 -15   9    2.38    6.29
 -17  15  -9    3.43    6.19
  17 -16   8    8.09    6.95
  18   0   0   69.52   11.24
 -18   0   0   62.66   10.28
  18   0   1   28.19    8.57
 -18   0   1   27.52    6.95
  18   0  -1   12.19    6.57
 -18   0  -1   23.52    7.90
  18   0   2   85.04   12.95
 -18   0   2   87.42   10.86
  18   0  -2   78.94   10.76
 -18   0  -2   51.52   10.19
  18   0   3    1.24    7.33
 -18   0   3   11.24    4.67
  18   0  -3    4.76    4.95
 -18   0  -3   13.24    7.62
  18   0   7    5.33    7.05
 -18   0  -7    1.14    6.86
  18   0   9   11.81    6.76
 -18   0   9   19.90    3.71
 -18   0  -9   11.05    7.24
  18   0  10    2.57    6.19
 -18   0  10    6.00    3.33
  18   0 -10    2.00    3.43
 -18   0 -10    2.67    6.29
  18   0  11    5.90    6.67
 -18   0  11    1.90    2.95
  18   0 -11    0.95    3.52
 -18   0 -11   12.57    7.43
  18   0  12   92.09   14.95
  18   0 -12   60.85    8.76
 -18   0 -12   56.85   12.28
  18   0  13   10.48    7.05
 -18   0  13    0.48    3.81
  18   0 -13   -0.86    3.90
 -18   0 -13   15.33    8.09
  18   1   0    0.38    6.67
 -18  -1   0    8.38    6.57
  18  -1   0   -1.05    6.29
 -18   1   0   -3.05    6.00
  18  -1   1   46.19    9.43
 -18   1   1   18.95    6.48
  18   1  -1   11.14    6.57
 -18  -1  -1   19.33    7.52
  18   1   1   22.66    8.48
 -18  -1   1   22.47    7.05
  18  -1  -1   25.52    7.14
 -18   1  -1   12.57    7.14
  18  -1   2   -3.90    6.76
 -18   1   2    5.62    4.86
 -18  -1  -2   -4.76    6.86
  18   1   2    3.62    7.24
 -18  -1   2    6.95    5.33
  18  -1  -2    7.90    5.43
 -18   1  -2    1.33    6.95
  18  -1   3    9.71    7.24
 -18  -1  -3    5.62    7.14
  18   1   3    5.33    7.81
  18  -1  -3   -3.52    4.67
 -18   1  -3   21.81    7.81
  18  -1   4   -0.48    7.05
 -18   1   4    1.71    2.95
 -18  -1  -4    2.10    6.95
  18   1   4   -4.38    7.05
  18  -1  -4    1.05    3.71
 -18   1  -4    7.14    7.43
  18  -1   5    4.67    6.95
 -18   1   5    2.10    2.29
 -18  -1  -5   30.38    8.76
  18   1   5    4.00    7.33
  18  -1  -5    3.24    3.24
 -18   1  -5   -1.43    6.48
  18  -1   6   -4.09    6.29
 -18   1   6    4.09    2.10
 -18  -1  -6   -0.67    6.76
  18   1   6    2.29    7.05
 -18   1  -6   -2.00    6.38
  18  -1   7   22.66    8.48
 -18  -1  -7   44.66   10.19
  18   1   7   48.57   10.57
 -18   1  -7   15.24    7.81
  18  -1   8    5.62    6.86
 -18   1   8    0.48    1.71
 -18  -1  -8    4.67    6.76
  18   1   8   -7.33    6.48
 -18   1  -8    9.71    7.05
  18  -1   9    8.48    6.57
 -18   1   9    2.48    8.76
 -18  -1  -9   11.05    7.14
  18   1   9    8.57    6.86
  18  -1  -9    1.81    2.48
 -18   1  -9    4.09    6.57
  18  -1  10    4.09    6.09
 -18   1  10    3.71    2.95
 -18  -1 -10    3.24    6.29
  18   1  10    2.38    5.71
 -18  -1  10    3.33   41.81
  18  -1 -10    1.62    2.95
 -18   1 -10    4.19    6.00
  18  -1  11   -0.48    5.52
 -18   1  11    4.00    3.33
  18   1 -11    0.38    3.90
 -18  -1 -11    8.76    6.86
  18   1  11   10.57    6.67
 -18  -1  11    4.09    5.24
  18  -1 -11    4.38    3.33
 -18   1 -11    0.57    6.86
  18  -1  12   -0.95    5.52
 -18   1  12    3.81    3.52
  18   1 -12    3.14    4.09
 -18  -1 -12    2.86   23.05
  18   1  12    0.19    6.09
 -18  -1  12    3.81   27.52
  18  -1 -12    0.19    4.00
 -18   1 -12    0.86    6.29
  18  -1  13    0.76    6.09
 -18   1  13   -0.19    3.62
  18   1 -13   -1.90    4.09
 -18  -1 -13   12.67    7.24
  18   1  13    4.95    6.00
 -18  -1  13    1.43    5.43
  18  -1 -13   -1.90    3.81
 -18   1 -13    4.67    6.67
  18   2   0   24.09    7.52
  18  -2   0   30.28    7.90
 -18   2   0   43.33    8.48
  18  -2   1    7.81    6.86
 -18   2   1    5.62    5.90
 -18  -2  -1    5.62    7.33
  18   2   1    6.86    7.33
 -18  -2   1    1.62    5.90
  18  -2  -1   -2.67    5.62
 -18   2  -1    1.05    6.38
  18  -2   2    1.52    6.86
 -18   2   2    5.62    5.05
 -18  -2  -2    5.62    7.52
  18   2   2   -5.24    7.33
  18  -2  -2    1.52    5.05
 -18   2  -2    1.05    6.76
  18  -2   3    2.48    6.95
 -18   2   3    5.62    4.38
 -18  -2  -3    4.76    7.05
  18   2   3    0.00    7.24
  18  -2  -3    1.24    4.48
 -18   2  -3  -10.09    6.38
  18  -2   4   -6.29    6.48
 -18   2   4    4.29    3.33
 -18  -2  -4    1.90    7.43
  18   2   4    4.67    7.62
  18  -2  -4    0.57    3.90
 -18   2  -4   -5.71    6.67
  18  -2   5    3.62    6.95
 -18   2   5    8.28    2.48
 -18  -2  -5    7.62    7.05
  18   2   5   -5.14    6.76
  18  -2  -5    4.29    3.24
 -18   2  -5   -0.19    6.57
  18  -2   6    4.95    6.48
 -18   2   6    3.33    1.71
 -18  -2  -6    2.57    6.67
  18   2   6   -6.29    6.95
  18  -2  -6   -0.38    2.10
 -18   2  -6   -0.86    6.57
  18  -2   7   -1.90    6.48
 -18  -2  -7    5.52    6.86
  18   2   7    2.10    6.76
 -18   2  -7    5.14    7.05
  18  -2   8    4.48    6.67
 -18   2   8   15.71    2.48
 -18  -2  -8    6.09    6.67
  18   2   8   21.71    8.19
  18  -2  -8   20.28    3.33
 -18   2  -8    4.57    6.29
  18  -2   9   -0.10    5.52
 -18   2   9    2.29    2.19
 -18  -2  -9    3.24    6.38
  18   2   9    3.43    6.29
  18  -2  -9   -1.71    2.86
 -18   2  -9    1.14    6.00
  18  -2  10    4.95    6.00
 -18   2  10    2.00    4.09
 -18  -2 -10   -2.67    5.81
  18   2  10    5.90    6.29
  18  -2 -10    2.48    3.33
 -18   2 -10   -2.38    6.00
  18  -2  11   -0.57    5.71
 -18   2  11   -0.38  162.08
 -18  -2 -11    1.05    6.29
  18   2  11   -2.10   11.24
 -18  -2  11    2.00    3.62
  18  -2 -11    1.33    3.90
 -18   2 -11    4.95    6.48
  18  -2  12    8.48    6.57
 -18   2  12    3.05    3.33
  18   2 -12    9.52    4.95
 -18  -2 -12    9.52    7.14
  18   2  12   10.00    6.57
 -18  -2  12    5.71    3.90
  18  -2 -12    5.43    4.57
 -18   2 -12    4.19   14.28
  18  -2  13    0.48    5.33
 -18   2  13    2.19    3.81
  18   2 -13   -0.38    4.38
 -18  -2 -13    6.76    6.29
  18   2  13    1.05    6.00
 -18  -2  13    4.09    3.90
  18  -2 -13    1.90   35.52
 -18   2 -13   -2.48    6.29
  18  -3   0   11.33    6.67
 -18   3   0   -3.24    5.62
  18  -3   1   28.85    8.19
 -18   3   1   29.04    6.95
  18  -3  -1   21.90    7.24
 -18   3  -1   22.95    7.81
  18  -3   2    1.33    6.86
 -18   3   2    7.24    4.86
 -18  -3  -2    6.19    7.62
  18   3   2    1.62    7.43
  18  -3  -2    5.81    5.62
 -18   3  -2    2.38    7.05
  18  -3   3   30.76    8.86
 -18   3   3   25.24    5.33
 -18  -3  -3   26.47    8.76
  18  -3  -3   29.52    6.00
 -18   3  -3    3.43    6.95
  18  -3   4    8.67    7.33
 -18   3   4    8.09    3.71
 -18  -3  -4    8.00    7.81
  18   3   4    7.71    7.71
  18  -3  -4   13.71    4.38
 -18   3  -4    6.48    6.95
  18  -3   5    5.05    7.14
 -18   3   5    1.52    2.67
 -18  -3  -5   11.62    7.05
  18   3   5    3.24    6.95
 -18   3  -5   -7.05    6.86
  18  -3   6   -0.38    6.76
 -18  -3  -6    4.57    6.95
  18   3   6   -1.33    6.76
  18  -3  -6    7.14    2.57
 -18   3  -6    2.38    6.57
  18  -3   7   24.09    8.19
 -18  -3  -7   17.33    7.81
  18   3   7   13.43    7.90
 -18   3  -7   31.14    8.76
  18  -3   8    7.52    6.57
 -18  -3  -8    0.57    6.00
  18   3   8    3.43    6.67
 -18   3  -8   -8.19    5.52
  18  -3   9   -0.95    5.71
 -18  -3  -9    5.90    6.48
  18   3   9    5.14    6.38
  18  -3  -9    5.90    2.86
 -18   3  -9    0.76    5.81
  18  -3  10   -2.57    9.14
 -18   3  10    1.62    2.76
 -18  -3 -10    7.71    6.29
  18   3  10    0.00    6.38
  18  -3 -10    1.81    3.05
 -18   3 -10   -8.00    6.76
  18  -3  11   -0.48    6.57
 -18   3  11    0.29    3.05
 -18  -3 -11    7.90    6.67
  18   3  11    0.48    6.09
  18  -3 -11   -1.43    3.33
 -18   3 -11   -6.29    5.71
  18  -3  12    4.95    6.29
 -18   3  12    5.43    3.43
 -18  -3 -12   -0.19    6.29
  18   3  12    6.09    6.48
 -18  -3  12    2.67    4.09
  18  -3 -12    0.67    6.29
 -18   3 -12   -4.95    6.09
  18  -3  13    0.10    6.00
 -18   3  13    3.24    3.52
  18   3 -13    7.71    6.76
 -18  -3 -13    0.57    6.00
  18   3  13    5.81    6.19
 -18  -3  13    4.38    4.38
  18  -3 -13    3.14   16.47
 -18   3 -13   12.38    7.90
  18  -4   0   15.24    6.76
 -18   4   0   24.09    7.05
  18  -4   1   -3.43    6.00
 -18   4   1    2.38    5.24
  18  -4  -1   -5.05    5.62
 -18   4  -1   -3.24    6.38
  18  -4   2    2.10    7.05
 -18   4   2    4.67    5.05
  18  -4  -2    4.76    5.14
 -18   4  -2   -1.33    6.67
  18  -4   3   -1.71    6.76
 -18   4   3    0.00    4.29
 -18  -4  -3    6.76    7.52
  18  -4  -3    6.09    5.05
 -18   4  -3   -2.10    6.38
  18  -4   4    4.00    6.95
 -18   4   4    0.00    3.62
 -18  -4  -4   -4.95    7.14
  18   4   4   -6.67    6.95
  18  -4  -4   -1.43    4.00
 -18   4  -4    1.81    7.24
  18  -4   5   -0.86    6.76
 -18  -4  -5   -0.86    6.86
  18   4   5   10.19    7.24
  18  -4  -5    2.95    3.81
 -18   4  -5   -3.33    6.19
  18  -4   6   -3.14    6.29
 -18  -4  -6    9.81    7.71
  18   4   6    8.86    7.14
 -18   4  -6    2.48    6.48
  18  -4   7    2.29    6.29
 -18  -4  -7   11.43    7.81
  18   4   7   -8.57    6.76
 -18   4  -7    1.33    6.29
  18  -4   8   -1.24    6.09
 -18  -4  -8   -3.14    6.09
  18   4   8    2.67    6.76
 -18   4  -8    3.71    5.62
  18  -4   9   -3.90    5.52
 -18  -4  -9    7.24    6.29
  18   4   9    2.10    5.71
 -18   4  -9    4.48    5.90
  18  -4  10    3.62    6.19
 -18  -4 -10   -1.05    5.81
  18   4  10    0.29    6.29
 -18   4 -10    3.33    6.48
  18  -4  11   -6.00    6.09
 -18  -4 -11    1.33    6.00
  18   4  11   -9.33    6.00
  18  -4 -11    2.48    3.81
 -18   4 -11   -6.29    5.90
  18  -4  12    5.24   20.57
 -18   4  12    2.10    3.52
 -18  -4 -12   -3.05    6.86
  18   4  12    4.48    5.90
  18  -4 -12   -1.81    3.81
 -18   4 -12    2.95    6.67
  18  -4  13    7.14    6.76
 -18   4  13   -3.43    6.48
 -18  -4 -13   -1.71   46.76
  18   4  13    8.38    6.67
 -18  -4  13    3.33   10.38
  18  -4 -13    2.38    5.24
 -18   4 -13    2.19   10.00
  18  -5   0    1.81    5.81
 -18   5   0   -3.33    6.00
  18  -5   1   32.09    8.19
  18  -5  -1   16.19    6.48
  18  -5   2    0.67    6.67
 -18   5   2    8.76    5.62
  18  -5  -2    4.00    5.33
  18  -5   3   27.33    8.28
 -18   5   3    3.52    4.57
  18  -5  -3   14.28    5.90
 -18   5  -3    4.38    6.48
  18  -5   4    7.14    6.57
 -18  -5  -4   22.38    8.38
  18  -5  -4   21.90    5.81
 -18   5  -4   11.52    7.24
  18  -5   5    1.43    6.09
 -18   5  -5    2.67    5.90
  18  -5   6   10.38    6.48
 -18  -5  -6    8.57    7.90
  18   5   6   11.14    7.43
 -18   5  -6    1.14    6.00
  18  -5   7  101.23   14.76
 -18  -5  -7   69.61   13.05
  18   5   7   57.99   11.43
 -18   5  -7   98.94   14.47
  18  -5   8   -1.71    5.81
 -18  -5  -8   -2.67    6.38
  18   5   8    2.48    6.29
 -18   5  -8    6.86    6.00
  18  -5   9    0.29    5.81
 -18  -5  -9    2.00    6.19
  18   5   9    4.29    6.09
 -18   5  -9   -4.57    5.05
  18  -5  10   -1.43    5.90
 -18  -5 -10    2.76    6.00
  18   5  10    2.00    6.19
 -18   5 -10   -0.29    6.00
  18  -5  11    9.33    6.57
 -18  -5 -11   16.86    7.62
  18   5  11   22.09    8.48
 -18   5 -11    5.90    6.86
  18  -5  12    0.48    6.57
 -18  -5 -12    0.10    6.38
  18   5  12    4.48    6.09
  18  -5 -12    2.19    4.19
 -18   5 -12   -1.81    6.19
  18  -5  13   32.00   12.57
 -18  -5 -13   20.66    9.33
  18   5  13   25.62    9.90
  18  -5 -13   26.00    6.48
 -18   5 -13   18.95    9.14
  18  -6   0   34.76    7.90
 -18   6   0   35.71    8.19
  18  -6   1    3.71    6.48
 -18   6   1    1.24    5.52
  18  -6  -1   -0.10    5.62
 -18   6  -1    0.38    6.38
  18  -6   2    4.00    6.29
 -18   6   2    2.86    5.33
  18  -6  -2    0.19    5.71
 -18   6  -2    2.38    6.48
  18  -6   3    2.67    6.57
  18  -6  -3   13.43    5.71
 -18   6  -3   -0.29    6.48
  18  -6   4    8.00    6.48
 -18   6  -4   25.81    8.28
  18  -6   5    0.57    5.62
 -18   6  -5    3.33    6.09
  18  -6   6    2.67    5.52
 -18  -6  -6    4.76    7.05
 -18   6  -6    5.43    5.52
  18  -6   7    5.71    5.62
 -18  -6  -7   -1.43    6.67
  18   6   7    2.00    6.76
 -18   6  -7   -0.95    5.24
  18  -6   8   14.28    6.29
 -18  -6  -8   12.76    7.24
  18   6   8    0.48    6.48
 -18   6  -8   22.47    7.33
  18  -6   9   -4.29    4.76
 -18  -6  -9    4.57    6.76
  18   6   9    3.24    6.19
 -18   6  -9   -4.67    5.14
  18  -6  10    4.19    6.38
 -18  -6 -10   13.90    7.81
  18   6  10   11.62    7.14
 -18   6 -10    5.43    5.90
  18  -6  11   -1.05    5.71
 -18  -6 -11    8.76    6.67
  18   6  11   -0.10    5.81
 -18   6 -11    5.43   25.05
  18  -6  12   -4.86    6.00
 -18  -6 -12    2.57    6.48
  18   6  12    2.38    5.81
 -18   6 -12    6.09    6.09
  18  -7   0    5.05    6.57
 -18   7   0   -5.81    6.09
  18  -7   1   28.19    7.81
 -18   7   1    4.19    5.62
  18  -7  -1    3.24    6.19
 -18   7  -1    1.43    6.57
  18  -7   2    1.05    6.19
  18  -7  -2    9.05    6.09
 -18   7  -2   -0.48    6.38
  18  -7   3   14.00    6.67
 -18   7  -3    4.76    6.57
  18  -7   4    2.67    6.00
 -18   7  -4    4.29    6.00
  18  -7   5   -0.48    5.71
 -18   7  -5    4.95    6.09
  18  -7   6    2.29    5.62
 -18   7  -6    6.48    5.62
  18  -7   7    8.19    6.00
 -18   7  -7   -1.33    5.62
  18  -7   8   -2.67    5.62
 -18  -7  -8   -0.57    6.86
 -18   7  -8    1.52    5.90
  18  -7   9    1.62    5.71
 -18  -7  -9   14.09    7.43
  18   7   9    7.14    6.57
 -18   7  -9    6.76   16.28
  18  -7  10   -5.62    5.24
 -18  -7 -10    0.38    6.67
  18   7  10    3.62    6.76
 -18   7 -10   -7.52    5.33
  18  -7  11   12.76    6.57
 -18  -7 -11    3.71    6.67
  18   7  11    3.43    6.38
 -18   7 -11   10.00    6.38
  18  -7  12   -1.90    5.62
 -18  -7 -12   -5.81    6.38
  18   7  12    0.95    6.38
 -18   7 -12    5.43    6.00
  18  -8   0   16.76    7.05
 -18   8   0    6.95    6.29
  18  -8   1    3.62    6.57
  18  -8  -1    5.71    6.00
 -18   8  -1    6.00    6.57
  18  -8   2   67.80   10.86
 -18   8  -2   32.76    8.48
  18  -8   3    7.14    6.29
 -18   8  -3    6.95    6.57
  18  -8   4    4.57    5.62
 -18   8  -4    0.76    6.19
  18  -8   5    3.62    5.71
 -18   8  -5    1.71    5.43
  18  -8   6    3.33    5.24
 -18   8  -6    6.29    5.71
  18  -8   7    5.14    5.62
 -18   8  -7   12.00    6.09
  18  -8   8    0.19    5.71
 -18   8  -8    8.95    6.19
  18  -8   9    4.00    5.81
 -18  -8  -9   -3.71    6.09
 -18   8  -9   -0.76    5.43
  18  -8  10   -1.33    5.33
 -18  -8 -10    4.00    6.95
  18   8  10    6.95    6.86
 -18   8 -10   -0.57    5.52
  18  -8  11    2.00   30.66
 -18  -8 -11    1.24    6.95
  18   8  11    3.33    6.38
 -18   8 -11    0.19    5.33
  18  -8  12   16.95    7.05
 -18  -8 -12   -0.57    6.38
  18   8  12   22.95    8.57
  18  -9   0    1.52    6.00
  18  -9   1    9.33    6.86
 -18   9  -1    9.52    6.29
  18  -9   2   -0.95    6.00
 -18   9  -2   -0.19    5.81
  18  -9   3   -0.86    5.33
 -18   9  -3    4.19    6.00
  18  -9   4    2.95    5.71
 -18   9  -4    9.71    6.48
  18  -9   5    7.33    5.43
 -18   9  -5    0.95    5.71
  18  -9   6   -2.19    5.14
 -18   9  -6    2.67    5.43
  18  -9   7    4.38    5.81
 -18   9  -7    0.95    5.43
  18  -9   8    0.10    4.95
 -18   9  -8    5.33    5.81
  18  -9   9    1.43    5.24
 -18   9  -9   -3.33    5.33
  18  -9  10    2.10    5.43
 -18   9 -10    3.24    5.71
  18  -9  11    7.71    6.00
 -18  -9 -11    2.00    6.76
 -18   9 -11   13.71    7.05
  18  -9  12    0.86    6.09
 -18  -9 -12   -2.48    8.86
  18   9  12    3.81   50.66
 -18   9 -12    5.43    6.38
  18 -10   1    5.62    6.19
  18 -10   2    6.86    6.19
 -18  10  -2    1.43    5.90
  18 -10   3    9.62    6.38
 -18  10  -3    5.90    6.00
  18 -10   4   11.24    6.57
 -18  10  -4    7.52    6.29
  18 -10   5   -1.33    5.33
 -18  10  -5    5.05    5.62
  18 -10   6   32.19    8.09
 -18  10  -6   34.19    8.38
  18 -10   7    1.33    5.62
 -18  10  -7   -3.24    5.24
  18 -10   8   -0.10    5.43
 -18  10  -8    0.57    5.24
  18 -10   9   -3.43    5.24
 -18  10  -9    0.48    5.43
  18 -10  10   12.57    6.48
 -18  10 -10    4.29    6.19
  18 -10  11   -3.14    5.24
 -18  10 -11   -6.38    5.52
  18 -11   2   -3.52    5.71
  18 -11   3    6.76    6.09
 -18  11  -3    7.62    6.00
  18 -11   4    0.76    5.81
 -18  11  -4    2.76    5.81
  18 -11   5    5.24    6.38
 -18  11  -5    8.67    6.19
  18 -11   6   -4.48    5.62
 -18  11  -6   -0.10    5.81
  18 -11   7    0.57    5.52
 -18  11  -7    0.10    5.24
  18 -11   8   -4.09    5.33
 -18  11  -8   -3.81    5.14
  18 -11   9    4.67    5.90
 -18  11  -9    6.76    6.19
  18 -11  10   -2.19    5.71
 -18  11 -10   -6.38  227.31
  18 -11  11   -1.33    5.81
 -18  11 -11   -6.00    5.90
  18 -12   3   10.19    6.48
  18 -12   4    2.95    6.09
 -18  12  -4    3.71    6.19
  18 -12   5   -3.05    6.19
 -18  12  -5    3.05    5.71
  18 -12   6    6.19    5.90
 -18  12  -6    7.90    6.48
  18 -12   7    2.10    6.09
 -18  12  -7    6.00    6.00
  18 -12   8    1.33    5.52
 -18  12  -8    0.29    5.81
  18 -12   9    1.71    5.62
 -18  12  -9    0.67    6.00
  18 -12  10    1.81    5.52
 -18  12 -10    2.95    6.09
  18 -13   4   18.57    7.43
  18 -13   5   24.28    8.09
 -18  13  -5    3.62    6.09
  18 -13   6    2.38    5.90
 -18  13  -6    6.76    5.90
  18 -13   7   12.86    6.86
 -18  13  -7   20.57    7.62
  18 -13   8    5.05    6.48
 -18  13  -8    5.05    6.19
  18 -13   9   11.52    6.95
 -18  13  -9    6.57    6.95
  18 -13  10   -0.29    5.71
 -18  13 -10    3.81    6.48
  18 -14   5   -3.90  117.70
  18 -14   6    9.33    6.57
 -18  14  -6    1.43    5.71
  18 -14   7    2.19    6.57
 -18  14  -7    4.95    6.19
  18 -14   8   -6.38    6.29
 -18  14  -8    9.43    6.76
  18 -14   9   10.86    6.86
 -18  14  -9    0.10    5.71
  18 -15   6   -1.52    6.09
  18 -15   7   17.24    7.43
 -18  15  -7    9.71    6.76
  18 -15   8    0.00    6.00
 -18  15  -8    7.52    6.19
  18 -16   7    0.19    6.57
  18 -16   8    2.19    6.86
  19   0   0   -3.52    5.90
 -19   0   0   -1.52    5.43
  19   0   1   30.66    8.09
 -19   0   1   26.95    6.19
 -19   0  -1   21.43    6.86
  19   0   2   -1.52    6.09
 -19   0   2   -0.19    4.19
  19   0  -2   14.28    5.33
 -19   0  -2    0.76    6.19
  19   0   3   -0.48    6.48
 -19   0   3    5.62    3.90
  19   0  -3   13.14    5.05
 -19   0  -3    3.81    6.57
  19   0   4   33.04    8.95
 -19   0   4   22.85    4.38
  19   0   5   10.38    7.62
 -19   0  -5   16.47    8.19
  19   0   7    7.05    6.95
 -19   0  -7    5.14    7.05
  19   0   8   29.90    9.14
 -19   0  -8   11.05    7.05
  19   0   9   14.95    7.52
 -19   0   9    4.86    2.67
  19   0  10   45.42   10.76
  19   0 -10   33.81    5.33
  19   0  11    6.00    6.19
 -19   0  11    1.14    2.76
  19   0 -11   11.81    3.90
 -19   0 -11    3.52    6.67
 -19   0  12    0.67    3.62
  19   0 -12    4.57    3.81
 -19   0 -12   26.85    9.14
  19   1   0    7.24    6.29
 -19  -1   0   -0.38    5.33
  19  -1   0    7.81    5.71
 -19   1   0   -2.95    5.24
  19  -1   1    2.67    6.19
 -19   1   1   11.05    5.24
  19   1  -1    7.24    5.81
 -19  -1  -1   11.24    6.19
  19   1   1    2.95    6.38
 -19  -1   1   14.76    5.81
  19  -1  -1   13.33    5.81
 -19   1  -1    0.48    5.81
  19  -1   2    4.19    6.19
 -19   1   2    0.95    4.19
  19   1  -2    2.29    5.14
 -19  -1  -2   -2.38    6.19
  19   1   2    9.62    6.67
 -19  -1   2    4.38    4.67
  19  -1  -2    2.29    5.05
 -19   1  -2   29.04    7.90
  19  -1   3    2.57    6.38
 -19   1   3    1.52    3.62
 -19  -1  -3    0.76    6.29
  19   1   3   18.86    7.62
 -19  -1   3    2.19    4.19
  19  -1  -3    3.52    4.48
 -19   1  -3    7.71    6.38
  19  -1   4    2.19    6.29
 -19   1   4   -1.52    2.86
 -19  -1  -4   20.86    7.81
  19   1   4   16.09    7.62
  19  -1  -4    0.29    3.81
 -19   1  -4   11.43    6.95
  19  -1   5    9.14    6.95
 -19   1   5    3.62    2.38
 -19  -1  -5    4.76    6.95
  19   1   5   -3.43    6.76
  19  -1  -5    1.43    3.14
 -19   1  -5   15.62    7.14
  19  -1   6    1.71    6.86
 -19   1   6   -0.57    2.00
 -19  -1  -6   16.47    7.52
  19   1   6    4.57    7.14
 -19   1  -6    8.67    7.14
  19  -1   7   -2.10    6.67
 -19  -1  -7    8.09    6.76
  19   1   7    6.19    6.86
 -19   1  -7    2.76    6.38
  19  -1   8   14.38    7.05
 -19   1   8    5.81    1.62
 -19  -1  -8    8.48    6.95
  19   1   8   11.05    7.05
 -19   1  -8   12.09    6.95
  19  -1   9    4.67    6.48
 -19   1   9    2.10    1.90
 -19  -1  -9   -1.05    6.09
  19   1   9    1.43    6.29
  19  -1  -9    8.86   44.09
 -19   1  -9    1.33    5.90
  19  -1  10    7.33    6.38
 -19   1  10    3.62    2.76
 -19  -1 -10    3.62    6.57
  19   1  10   -3.81    5.71
 -19  -1  10    3.43    3.05
  19  -1 -10   -0.38    2.76
 -19   1 -10    0.86    5.52
  19  -1  11    0.95    6.00
 -19   1  11    5.14    3.14
  19   1 -11    6.57    4.09
 -19  -1 -11   -2.48    6.38
  19   1  11    1.62    6.57
 -19  -1  11    3.33    3.24
  19  -1 -11   -5.90   16.66
 -19   1 -11    6.09    9.33
  19  -1  12    3.43    6.00
 -19   1  12    0.95    3.24
  19   1 -12   -2.57    4.00
 -19  -1 -12   -0.48    6.38
  19   1  12   -3.14    6.29
 -19  -1  12    0.00    3.52
  19  -1 -12   -0.19    4.29
 -19   1 -12    8.38   14.67
  19  -2   0    0.86    5.33
 -19   2   0    3.14    5.33
  19  -2   1   -0.57    5.81
 -19   2   1    2.86    5.14
 -19  -2  -1   -1.14    6.09
  19   2   1    7.14    6.48
 -19  -2   1    2.86    5.52
  19  -2  -1    7.52    5.43
 -19   2  -1   -3.33    5.81
  19  -2   2    2.19    6.00
 -19   2   2    1.62    4.48
 -19  -2  -2    4.76    6.67
  19   2   2    1.24    6.48
  19  -2  -2    1.14    4.67
 -19   2  -2    6.67    6.38
  19  -2   3    0.67    6.19
 -19   2   3    4.57    3.90
 -19  -2  -3    1.90    6.48
  19   2   3    2.48    6.67
  19  -2  -3   -0.19    4.57
 -19   2  -3    2.19    6.38
  19  -2   4    6.09    6.29
 -19   2   4    7.52    3.33
 -19  -2  -4   -2.76    6.38
  19   2   4   -0.95    6.76
  19  -2  -4    2.67    3.81
 -19   2  -4    7.90    6.57
  19  -2   5   -5.81    6.48
 -19   2   5    0.00    2.29
 -19  -2  -5    6.57    6.86
  19   2   5   -1.52    6.76
  19  -2  -5    1.33    3.05
 -19   2  -5    5.90    6.67
  19  -2   6    0.76    6.29
 -19   2   6    4.38    1.81
 -19  -2  -6   10.38    7.24
  19   2   6   -8.19    6.29
  19  -2  -6    1.71    2.29
 -19   2  -6    3.62    6.19
  19  -2   7    6.29    6.48
 -19  -2  -7    2.00    6.38
  19   2   7   16.38    7.43
 -19   2  -7    1.90    6.29
  19  -2   8   -1.33    5.81
 -19  -2  -8   -1.62    5.43
  19   2   8    2.76    6.38
 -19   2  -8    3.81    5.71
  19  -2   9   -0.76    5.52
 -19   2   9   -0.19    1.81
 -19  -2  -9    0.29    5.81
  19   2   9    5.24    6.67
  19  -2  -9   -0.86    2.10
 -19   2  -9   -2.76    5.71
  19  -2  10    1.90    5.62
 -19   2  10    1.90    4.19
 -19  -2 -10   -0.48    5.71
  19   2  10   -3.52    6.00
  19  -2 -10    4.57    2.95
 -19   2 -10    3.62    6.00
  19  -2  11    4.86    5.90
 -19   2  11   -3.52    2.67
 -19  -2 -11    6.48    6.09
  19   2  11    2.67    6.19
 -19  -2  11    0.95    3.52
  19  -2 -11    2.48    3.24
 -19   2 -11    4.19    6.86
  19  -2  12   -0.19    8.19
 -19   2  12    3.33    4.19
  19   2 -12   -3.81    4.19
 -19  -2 -12   -2.48    6.48
  19   2  12    5.81    6.76
 -19  -2  12   -0.48    3.71
  19  -2 -12    2.95    9.71
 -19   2 -12   11.14   66.09
  19  -3   0    0.00    5.81
 -19   3   0   -8.19    5.33
  19  -3   1   15.05    6.76
 -19   3   1    4.09    5.52
 -19  -3  -1    2.00    6.09
  19  -3  -1    4.38    5.43
 -19   3  -1   13.14    6.29
  19  -3   2    8.76    6.48
 -19   3   2   -2.19    4.19
 -19  -3  -2   -6.00    6.19
  19   3   2   12.95    7.05
 -19   3  -2    8.28    6.57
  19  -3   3    1.52    6.57
 -19   3   3    3.05    3.81
 -19  -3  -3   30.47    8.57
  19   3   3   -0.29    6.48
 -19   3  -3    8.38    6.67
  19  -3   4    0.57    6.19
 -19   3   4    3.24    2.86
 -19  -3  -4   16.00    7.33
  19   3   4   -2.76    6.57
  19  -3  -4   -1.90    3.62
 -19   3  -4   -4.95    6.09
  19  -3   5    8.38    6.86
 -19  -3  -5    2.86    6.67
  19   3   5   18.28    8.09
  19  -3  -5    5.52    2.95
 -19   3  -5    7.33    6.48
  19  -3   6    2.57    6.48
 -19  -3  -6    4.48    6.86
  19   3   6    0.48    6.76
  19  -3  -6    4.76    2.29
 -19   3  -6    4.48    6.48
  19  -3   7    5.62    6.38
 -19  -3  -7    7.05    6.57
  19   3   7    4.09    6.48
 -19   3  -7    4.29    6.29
  19  -3   8    0.48    6.09
 -19  -3  -8   13.33    6.76
  19   3   8    6.19    6.67
 -19   3  -8    0.00    5.71
  19  -3   9   13.05    6.95
 -19  -3  -9    5.62    6.00
  19   3   9    3.05    6.57
  19  -3  -9    0.29    2.29
 -19   3  -9    5.24    6.00
  19  -3  10   -2.29    5.52
 -19   3  10    5.33   41.23
 -19  -3 -10    8.38    6.38
  19   3  10    3.43    5.90
  19  -3 -10    2.95    2.76
 -19   3 -10   -1.81    8.67
  19  -3  11   -3.43   71.52
 -19   3  11    2.29   32.47
 -19  -3 -11    4.67    6.38
  19   3  11    3.52    6.48
  19  -3 -11    3.14   10.67
 -19   3 -11    4.09   10.38
  19  -3  12   -5.24    6.19
 -19   3  12    0.67    2.95
 -19  -3 -12    6.86    6.38
  19   3  12    5.52    6.00
 -19  -3  12    0.67    4.00
  19  -3 -12   -1.71    3.71
 -19   3 -12    3.62    6.29
  19  -4   0   -1.62    5.43
 -19   4   0    1.81    5.43
  19  -4   1   -0.67    5.90
 -19   4   1    1.05    4.76
  19  -4  -1    9.05    5.43
 -19   4  -1   -0.67    5.24
  19  -4   2   -3.62    5.81
 -19   4   2    0.38    4.48
 -19  -4  -2    9.24    6.67
  19  -4  -2    1.43    4.76
 -19   4  -2    5.81    6.19
  19  -4   3    1.43    6.00
 -19   4   3    3.14    4.00
 -19  -4  -3    4.86    7.24
  19   4   3    4.19    6.95
  19  -4  -3    0.86    4.29
 -19   4  -3   10.38    7.52
  19  -4   4   -1.24    6.09
 -19   4   4    3.05    3.33
 -19  -4  -4    3.24    7.24
  19   4   4   11.52    7.33
  19  -4  -4    1.71    3.71
 -19   4  -4    0.38    5.90
  19  -4   5   -2.86    6.09
 -19  -4  -5    3.43    6.86
  19   4   5   -9.43    6.38
  19  -4  -5   -1.71    3.43
 -19   4  -5   -8.19    5.62
  19  -4   6    1.05    6.09
 -19  -4  -6   -2.76    6.95
  19   4   6    5.14    7.05
 -19   4  -6    1.62    5.43
  19  -4   7    9.71    6.29
 -19  -4  -7    3.71    6.67
  19   4   7    1.81    6.48
 -19   4  -7    5.24  660.41
  19  -4   8    1.52    6.19
 -19  -4  -8   -1.62    5.90
  19   4   8    5.81    6.29
 -19   4  -8   -3.90    5.62
  19  -4   9   -6.48    5.90
 -19  -4  -9    6.09    6.19
  19   4   9    4.00    6.00
 -19   4  -9   -4.19    5.43
  19  -4  10   -0.48    6.19
 -19  -4 -10    2.29    6.09
  19   4  10    0.10    5.81
 -19   4 -10   -3.14    5.52
  19  -4  11   -2.00    5.90
 -19  -4 -11   -5.14    5.14
  19   4  11    1.33    5.62
  19  -4 -11   -1.14    7.62
 -19   4 -11    4.19    6.67
  19  -4  12   -1.81    5.81
 -19   4  12    2.76    3.24
 -19  -4 -12    4.95   52.85
  19   4  12   -0.86    6.19
  19  -4 -12    6.19    3.81
 -19   4 -12    0.00    6.29
  19  -5   0    0.29    5.52
 -19   5   0   -6.38    5.24
  19  -5   1   10.48    6.19
 -19   5   1    9.62    5.33
  19  -5  -1    0.00    5.52
 -19   5  -1   10.00    6.00
  19  -5   2   17.43    6.86
 -19   5   2   23.90    6.00
  19  -5  -2   15.62    5.43
 -19   5  -2   26.57    7.62
  19  -5   3   22.00    7.14
 -19   5   3   46.28    7.05
  19  -5  -3   24.66    5.81
 -19   5  -3   42.95    9.05
  19  -5   4   -2.19    5.33
 -19  -5  -4   -0.76    6.57
  19  -5  -4    4.29    4.29
 -19   5  -4   -0.57    5.24
  19  -5   5   10.09    7.90
  19   5   5    7.62    7.14
 -19   5  -5   11.33    6.29
  19  -5   6    4.57    6.29
 -19  -5  -6   29.43    8.76
  19   5   6    4.67    6.95
 -19   5  -6   18.00    6.86
  19  -5   7    9.05    6.57
 -19  -5  -7    1.81    6.67
  19   5   7    3.71    6.76
 -19   5  -7   11.24    6.09
  19  -5   8    4.95    6.19
 -19  -5  -8    3.81    6.57
  19   5   8    5.52    6.48
 -19   5  -8    7.81    6.19
  19  -5   9    6.86    6.48
 -19  -5  -9   19.62    7.52
  19   5   9    8.57    6.38
 -19   5  -9    3.14    5.71
  19  -5  10    9.14    6.67
 -19  -5 -10    2.10    6.19
  19   5  10    2.48    6.57
 -19   5 -10    4.09    6.09
  19  -5  11   -1.62    5.90
 -19  -5 -11    3.90    6.19
  19   5  11   -4.29    6.00
 -19   5 -11    1.81    6.29
  19  -5  12    8.38    7.14
 -19  -5 -12    1.33    5.81
  19   5  12    6.19    6.67
  19  -5 -12    1.81    4.00
 -19   5 -12    2.95    6.86
  19  -6   0   13.24    6.09
 -19   6   0    0.95    5.24
  19  -6   1   -2.38    5.43
 -19   6   1   -0.76    4.86
  19  -6  -1    5.43    5.24
 -19   6  -1   -2.10    5.52
  19  -6   2   -2.67    5.14
 -19   6   2   -0.19    4.48
  19  -6  -2   -0.29    5.05
 -19   6  -2    1.43    5.81
  19  -6   3    5.43    5.81
  19  -6  -3   -0.86    4.76
 -19   6  -3    0.76    5.43
  19  -6   4    7.05    5.43
 -19   6  -4    6.19    5.81
  19  -6   5    1.43    5.24
 -19   6  -5   -0.76    5.43
  19  -6   6    1.71    5.52
 -19  -6  -6   -8.48    6.29
 -19   6  -6    6.19    5.90
  19  -6   7    1.24    5.14
 -19  -6  -7    4.57    6.38
  19   6   7   -0.95    6.19
 -19   6  -7    6.67    5.90
  19  -6   8    3.52    5.62
 -19  -6  -8    3.81    6.09
  19   6   8   -6.19    5.90
 -19   6  -8   -2.57    5.14
  19  -6   9    7.90    7.05
 -19  -6  -9    2.95    6.00
  19   6   9   -1.33    6.29
 -19   6  -9    2.76    5.33
  19  -6  10    4.95    6.19
 -19  -6 -10   -2.76    6.48
  19   6  10   -4.95    5.90
 -19   6 -10    4.19    5.62
  19  -6  11    0.29    5.90
 -19  -6 -11    4.67    6.57
  19   6  11   -3.33    6.19
 -19   6 -11   -3.24    5.62
  19  -6  12   -3.33    6.48
 -19  -6 -12   -0.29    6.95
  19   6  12    5.14    6.29
 -19   6 -12    1.05    5.71
  19  -7   0    2.95    5.24
 -19   7   0    0.48    5.24
  19  -7   1   -0.95    5.33
 -19   7   1    2.19    4.76
  19  -7  -1   20.76    6.67
 -19   7  -1   11.71    5.81
  19  -7   2   11.05    6.09
  19  -7  -2    7.71    5.43
 -19   7  -2    4.48    5.52
  19  -7   3    8.00    5.90
 -19   7  -3    9.90    6.09
  19  -7   4   -2.57    5.33
 -19   7  -4    1.52    5.71
  19  -7   5   10.86    5.62
 -19   7  -5    2.95    5.24
  19  -7   6    2.29    5.52
 -19   7  -6    9.33    6.57
  19  -7   7    7.33    5.81
 -19  -7  -7    6.00    6.67
 -19   7  -7    7.71    5.71
  19  -7   8    5.81    5.81
 -19  -7  -8   10.09    6.86
  19   7   8    3.71    6.09
 -19   7  -8   -4.38    4.95
  19  -7   9   -3.90    5.24
 -19  -7  -9   11.43    7.24
  19   7   9    4.38    6.29
 -19   7  -9    7.62    5.81
  19  -7  10    3.33    5.81
 -19  -7 -10   -2.10   48.47
  19   7  10   -0.19    6.38
 -19   7 -10   -1.43    5.33
  19  -7  11    8.67    6.19
 -19  -7 -11   -1.52    6.29
  19   7  11    2.29    6.48
 -19   7 -11   -2.29    5.71
  19  -8   0    0.19    5.33
 -19   8   0    2.48    5.24
  19  -8   1    0.95    5.81
  19  -8  -1    6.95    5.62
 -19   8  -1   -4.09    5.52
  19  -8   2   19.43    6.67
 -19   8  -2   33.52    7.81
  19  -8   3    3.33    5.14
 -19   8  -3    4.29    5.90
  19  -8   5   -0.29    5.14
 -19   8  -5   -1.05    5.43
  19  -8   6   14.57    6.38
 -19   8  -6   20.38    7.14
  19  -8   7    4.09    5.62
 -19   8  -7    2.29    5.71
  19  -8   9   -1.90    5.52
 -19  -8  -9   -2.29    6.38
 -19   8  -9    5.43    5.71
  19  -8  10   27.62    8.38
 -19  -8 -10   16.28    7.43
  19   8  10   15.62    7.43
 -19   8 -10    4.95    5.90
  19  -8  11    4.67    5.90
 -19  -8 -11    4.76    6.67
  19   8  11    2.86    5.81
 -19   8 -11    2.29    5.62
  19  -9   0   -5.52    5.33
  19  -9   1   -2.38    5.62
 -19   9  -1   -1.43    5.62
  19  -9   2    7.24    5.81
 -19   9  -2    5.24    5.90
  19  -9   3   -6.48    5.14
 -19   9  -3   -4.86    5.14
  19  -9   4    4.57    5.52
 -19   9  -4   -1.81    5.62
  19  -9   5    6.95    5.71
 -19   9  -5   -0.76    5.90
  19  -9   6    0.10    5.52
 -19   9  -6    3.14    5.90
  19  -9   7    5.71    5.81
 -19   9  -7   -3.62    5.43
  19  -9   8   -0.10    5.14
 -19   9  -8    0.10    5.43
  19  -9   9    1.81    5.52
 -19   9  -9    5.43    5.90
  19  -9  10    4.38    5.90
 -19  -9 -10    0.38    6.76
 -19   9 -10    2.38    5.43
  19  -9  11   -0.86    5.14
 -19  -9 -11    2.29    6.57
 -19   9 -11   -0.10    5.62
  19 -10   1    4.38    6.00
  19 -10   2    8.76    6.09
 -19  10  -2    2.57    5.71
  19 -10   3    8.48    6.00
 -19  10  -3   -5.81    5.71
  19 -10   4    6.29    6.00
 -19  10  -4   11.52    6.57
  19 -10   5   -0.29    5.43
 -19  10  -5    0.38    5.43
  19 -10   6   11.43    6.57
 -19  10  -6    7.33    5.90
  19 -10   7    7.33    6.00
 -19  10  -7    4.19    5.71
  19 -10   8    1.33    5.43
 -19  10  -8    7.81    6.00
  19 -10   9    7.81    7.24
 -19  10  -9    0.38    5.62
  19 -10  10   12.86    6.57
 -19  10 -10    0.38   11.43
  19 -11   2    6.76    6.09
  19 -11   3   14.28    6.57
 -19  11  -3    4.48    6.09
  19 -11   4    0.57    6.09
 -19  11  -4   -0.19    5.52
  19 -11   5    1.52    5.71
 -19  11  -5   -1.33    5.52
  19 -11   6    6.48    5.81
 -19  11  -6   -0.29    5.62
  19 -11   7   -6.67    4.95
 -19  11  -7    4.48    5.62
  19 -11   8    2.19    6.09
 -19  11  -8    1.52    5.71
  19 -11   9    2.19    5.90
 -19  11  -9    3.24    5.90
  19 -11  10   -5.43    5.24
 -19  11 -10    0.67    5.43
  19 -12   3    6.29    6.19
  19 -12   4   13.81    6.95
 -19  12  -4   19.14    7.33
  19 -12   5    1.90    6.09
 -19  12  -5   -4.67    5.05
  19 -12   6    6.00    6.38
 -19  12  -6   10.38    6.19
  19 -12   7    2.38    5.90
 -19  12  -7   -5.24    5.43
  19 -12   8   10.48    6.38
 -19  12  -8   10.76    6.38
  19 -12   9    4.09    5.71
 -19  12  -9    3.43    5.71
  19 -13   4    6.00    6.29
  19 -13   5   16.19    7.05
 -19  13  -5   15.05    6.76
  19 -13   6    5.05    6.48
 -19  13  -6   -3.90    6.09
  19 -13   7    3.52    6.57
 -19  13  -7   -4.00    5.43
  19 -13   8    0.86    6.00
 -19  13  -8    4.09    5.81
  19 -13   9   10.95    6.57
 -19  13  -9   -3.43    5.90
  19 -14   5    1.24    6.00
  19 -14   6    0.57    6.38
 -19  14  -6    5.33    6.00
  19 -14   7    5.43    6.67
 -19  14  -7   -4.00    5.43
  19 -14   8    1.24    6.57
 -19  14  -8   -0.48    6.00
  19 -15   6    0.57    6.19
  19 -15   7    7.24    6.19
 -19  15  -7   -2.95    5.90
  20   0   0  210.93   23.24
 -20   0   0  232.17   24.95
  20   0   1   19.43    6.86
 -20   0   1   13.43    5.24
  20   0  -1    7.05    5.43
 -20   0  -1   15.24    6.38
  20   0   2   -8.95    6.00
 -20   0   2    1.43    4.00
  20   0  -2    1.14    4.86
 -20   0  -2    8.09    6.19
  20   0   3    7.05    6.95
 -20   0   3    1.81    3.62
  20   0  -3   -6.19    4.48
 -20   0  -3    8.38    6.57
  20   0   5    3.43    6.76
 -20   0  -5   14.28    7.62
  20   0   7   10.67   44.47
 -20   0  -7    7.90    6.76
  20   0   9    3.24    6.29
 -20   0  -9    2.38    6.09
  20   0  10   39.52    9.71
 -20   0 -10   40.09    9.81
  20   0  11    3.62    6.29
 -20   0  11    1.81    3.14
  20   0 -11    6.19    3.81
 -20   0 -11   10.76    6.76
  20   0  12   -1.14    6.57
 -20   0  12    3.71    3.43
  20   0 -12    8.67    4.09
 -20   0 -12   13.43    8.38
  20   1   0   20.19    6.48
 -20  -1   0    3.90    5.24
  20  -1   0   -1.62    5.14
 -20   1   0    9.90    5.43
  20  -1   1   -1.81    5.43
 -20   1   1    2.57    4.67
  20   1  -1    5.52    5.43
 -20  -1  -1   -6.00    5.05
  20   1   1    2.38    5.90
 -20  -1   1   16.76    5.62
  20  -1  -1    4.67    5.24
 -20   1  -1   10.48    5.90
  20  -1   2    2.19    6.09
 -20   1   2    1.43    4.19
  20   1  -2    0.29    4.86
 -20  -1  -2    0.86    6.09
  20   1   2   -4.00    5.71
 -20  -1   2   -3.52    4.19
  20  -1  -2   -2.95    4.57
 -20   1  -2    6.00    6.00
  20  -1   3    6.48    6.48
 -20   1   3    6.29    3.81
 -20  -1  -3   19.43    7.24
  20   1   3    3.71    6.29
 -20  -1   3    1.71    4.00
  20  -1  -3    5.14    4.67
 -20   1  -3   20.66    7.05
  20  -1   4    3.71    6.48
 -20   1   4    0.10    2.86
 -20  -1  -4   -1.14    6.00
  20   1   4    0.10    6.86
  20  -1  -4    3.90    3.71
 -20   1  -4    7.24    6.38
  20  -1   5    2.86    6.57
 -20   1   5    6.67    2.67
 -20  -1  -5    4.48    6.67
  20   1   5   25.81    8.28
  20  -1  -5   17.90    4.09
 -20   1  -5    2.00    6.38
  20  -1   6    1.24    5.81
 -20   1   6    7.24    2.10
 -20  -1  -6   -0.86    6.09
  20   1   6   -0.86    6.09
 -20   1  -6   -2.86    5.81
  20  -1   7   -1.62    5.62
 -20  -1  -7    1.81    6.00
  20   1   7   -0.57    5.71
 -20   1  -7   10.28    6.38
  20  -1   8    9.52    6.19
 -20  -1  -8    4.48    6.29
  20   1   8    1.90    6.19
 -20   1  -8    5.05    6.48
  20  -1   9    8.48    6.48
 -20   1   9    0.86    2.00
 -20  -1  -9    9.62    6.38
  20   1   9    9.43    6.38
 -20   1  -9    2.48    6.29
  20  -1  10    9.33    6.38
 -20   1  10    9.62    2.86
 -20  -1 -10    8.38    6.29
  20   1  10   -2.00    5.52
  20  -1 -10   -0.29    2.48
 -20   1 -10    0.95    5.62
  20  -1  11    6.09    6.57
 -20   1  11    1.52    2.86
 -20  -1 -11    5.24    6.48
  20   1  11    7.71    6.57
 -20  -1  11    1.81    4.38
  20  -1 -11    0.00    2.86
 -20   1 -11   -3.52    5.52
  20  -1  12    2.76    6.00
 -20   1  12    2.10    3.81
  20   1 -12    1.14   43.52
 -20  -1 -12    0.57   12.47
  20   1  12    0.29    6.38
 -20  -1  12   -0.67   74.66
  20  -1 -12   -1.90    3.43
 -20   1 -12    2.29    7.43
  20   2   0    8.28    5.90
 -20  -2   0    3.62    5.71
  20  -2   0    0.95    5.14
 -20   2   0    3.24    5.05
  20  -2   1    5.81    6.00
 -20   2   1    0.19    4.57
 -20  -2  -1    1.43    5.71
  20   2   1    7.05    6.19
 -20  -2   1    0.00    4.95
  20  -2  -1    0.10    4.67
 -20   2  -1   -1.90    5.14
  20  -2   2    3.05    6.57
 -20   2   2    3.62    4.09
 -20  -2  -2   14.38    6.57
  20   2   2    0.10    6.19
  20  -2  -2   -0.38    4.29
 -20   2  -2    2.00    5.52
  20  -2   3    1.62    5.90
 -20   2   3    0.00    3.52
 -20  -2  -3   -4.19    5.90
  20   2   3    6.95    6.38
  20  -2  -3    2.95    4.38
 -20   2  -3    4.67    6.09
  20  -2   4    0.00    6.29
 -20   2   4   -0.29    2.95
 -20  -2  -4    6.29    6.38
  20   2   4   -5.33    5.90
  20  -2  -4    2.48    3.71
 -20   2  -4    9.24    6.57
  20  -2   5   -1.62    5.90
 -20   2   5    1.43    2.38
 -20  -2  -5    4.00    6.67
  20   2   5   -1.24    6.48
  20  -2  -5   -0.19    3.14
 -20   2  -5    5.24    6.48
  20  -2   6   -6.67    5.33
 -20   2   6    5.62    2.00
 -20  -2  -6   13.81    7.05
  20   2   6    8.86    6.95
  20  -2  -6    5.52    2.48
 -20   2  -6    6.48    6.19
  20  -2   7    7.24    6.48
 -20  -2  -7    2.00    5.71
  20   2   7   18.47    7.52
 -20   2  -7    2.10    5.71
  20  -2   8    6.67    5.81
 -20  -2  -8    2.86    9.81
  20   2   8    0.29    6.09
 -20   2  -8    6.48    6.38
  20  -2   9   -0.57    6.09
 -20   2   9    1.90   10.09
 -20  -2  -9    0.19    5.90
  20   2   9    4.29    6.29
  20  -2  -9    3.33    2.10
 -20   2  -9    2.57    6.09
  20  -2  10   -1.33    6.09
 -20   2  10    0.86    2.10
 -20  -2 -10   -1.90    5.81
  20   2  10    0.86    6.19
  20  -2 -10    4.48    2.67
 -20   2 -10    3.81   10.76
  20  -2  11    3.90    6.29
 -20   2  11    0.19    2.57
 -20  -2 -11   -0.38   75.71
  20   2  11   -1.14    5.71
  20  -2 -11    3.71    3.33
 -20   2 -11    9.81    7.05
  20  -2  12    7.24    6.67
 -20   2  12    3.81    3.43
 -20  -2 -12    4.57    6.48
  20   2  12   -0.19    6.09
 -20  -2  12    0.38    4.29
  20  -2 -12    1.62    4.57
 -20   2 -12    2.57   62.76
  20  -3   0    4.29    5.33
 -20   3   0    0.86    4.95
  20  -3   1   -0.57    5.43
 -20   3   1   -3.71    4.48
 -20  -3  -1    8.19    6.38
  20   3   1    7.90    6.00
  20  -3  -1   -0.95    4.86
 -20   3  -1    0.38    5.33
  20  -3   2    2.86    5.90
 -20  -3  -2   -0.95    5.90
  20   3   2   -1.52    6.09
  20  -3  -2    7.33    4.67
 -20   3  -2    3.52    5.71
  20  -3   3    5.43    6.09
 -20   3   3    2.67    3.33
 -20  -3  -3   18.86    7.52
  20   3   3    8.09    6.76
  20  -3  -3   15.71    5.05
 -20   3  -3    8.28    5.62
  20  -3   4    0.19    6.09
 -20   3   4    3.62    2.76
 -20  -3  -4    6.38    6.76
  20   3   4    6.67    6.67
  20  -3  -4   17.43    4.67
 -20   3  -4    3.24    6.29
  20  -3   5   14.28    6.86
 -20   3   5    8.09    2.57
 -20  -3  -5   15.62    7.24
  20   3   5   15.33    7.33
  20  -3  -5   23.33    4.09
 -20   3  -5   11.81    6.48
  20  -3   6    3.62    6.19
 -20   3   6    5.62    2.19
 -20  -3  -6    1.62    5.90
  20   3   6    1.71    6.57
  20  -3  -6    4.67    2.38
 -20   3  -6    7.71    6.09
  20  -3   7    6.57    6.19
 -20  -3  -7    5.71    6.29
  20   3   7    2.38    6.67
  20  -3  -7   16.00    2.67
 -20   3  -7    1.24    5.52
  20  -3   8    3.52    6.09
 -20  -3  -8    4.00    6.09
  20   3   8    1.90    6.09
 -20   3  -8    3.05    5.62
  20  -3   9    6.86    6.29
 -20  -3  -9    3.24    5.81
  20   3   9    6.00    6.76
  20  -3  -9   -0.29    2.10
 -20   3  -9    5.33    5.81
  20  -3  10    1.71    6.00
 -20  -3 -10   -0.29    5.90
  20   3  10   -0.29    5.81
  20  -3 -10    1.14    2.95
 -20   3 -10   -1.33  100.94
  20  -3  11   11.71    6.86
 -20   3  11   10.38    3.14
 -20  -3 -11    9.33    6.67
  20   3  11    8.86    6.95
  20  -3 -11   10.67    3.52
 -20   3 -11   13.05    7.52
  20  -4   0    2.95    6.00
 -20   4   0    2.10    4.76
  20  -4   1    0.67    5.24
 -20   4   1   -1.71    4.00
  20  -4  -1   -1.81    4.38
 -20   4  -1   -0.67    4.86
  20  -4   2    0.29    5.71
 -20   4   2    5.14    3.81
 -20  -4  -2    2.95    6.48
  20  -4  -2    0.19    4.19
 -20   4  -2    4.57    5.24
  20  -4   3    2.38    5.81
 -20   4   3    1.90    3.33
 -20  -4  -3    1.52    6.29
  20   4   3   -6.00    6.00
  20  -4  -3    3.90    4.19
 -20   4  -3    0.48    5.52
  20  -4   4   -0.86    5.81
 -20   4   4    0.38    2.95
 -20  -4  -4    4.09  216.26
  20   4   4    6.86    6.67
  20  -4  -4   -4.00    5.24
 -20   4  -4   -1.90    5.52
  20  -4   5    1.81    5.81
 -20   4   5   -0.29    2.57
 -20  -4  -5   -5.14    6.09
  20   4   5   -5.05    5.71
  20  -4  -5    3.81    3.14
 -20   4  -5    5.52    6.00
  20  -4   6   -2.10    5.62
 -20  -4  -6    3.81    6.09
  20   4   6   -5.62    5.81
  20  -4  -6    2.57    2.86
 -20   4  -6   -0.57    5.43
  20  -4   7    4.57    6.09
 -20  -4  -7    0.10    6.00
  20   4   7    1.62    5.90
 -20   4  -7    3.33    5.90
  20  -4   8    5.52    6.19
 -20  -4  -8   -2.19    5.52
  20   4   8    1.52    6.00
 -20   4  -8    0.67    5.52
  20  -4   9    4.57    6.19
 -20  -4  -9   -4.57    5.43
  20   4   9    5.05    5.90
 -20   4  -9    1.71    6.00
  20  -4  10   -0.86    6.00
 -20  -4 -10    1.33    6.00
  20   4  10    2.86    6.19
 -20   4 -10    2.38    5.81
  20  -4  11    4.48    6.19
 -20  -4 -11    5.71    6.19
  20   4  11   -1.05    6.19
  20  -4 -11    6.00    3.33
 -20   4 -11    5.24    6.38
  20  -5   0   27.24    6.67
 -20   5   0   42.57    7.81
  20  -5   1    6.09    5.33
 -20   5   1    3.14    4.19
  20  -5  -1    3.90    4.48
 -20   5  -1   10.28    5.52
  20  -5   2    1.24    4.95
 -20   5   2    0.57    4.00
  20  -5  -2    1.24    4.29
 -20   5  -2   -4.29    5.05
  20  -5   3   34.95    7.81
 -20   5   3   23.52    5.05
  20  -5  -3   17.24    5.05
 -20   5  -3   21.24    6.76
  20  -5   4   -2.19    5.24
 -20   5   4    3.62    3.33
 -20  -5  -4    1.71    6.76
  20  -5  -4    2.76    4.00
 -20   5  -4    2.95    5.14
  20  -5   5   65.61   11.24
  20   5   5   43.90    9.62
  20  -5  -5   36.38    5.90
 -20   5  -5   49.04    9.71
  20  -5   6   -3.33    5.71
 -20  -5  -6    2.86    6.19
  20   5   6   11.14    6.86
 -20   5  -6    3.52    5.71
  20  -5   7    3.05    5.81
  20   5   7    5.90    6.09
 -20   5  -7    5.62    5.62
  20  -5   8   23.52    7.90
 -20  -5  -8    0.57    6.29
  20   5   8    5.62    6.57
 -20   5  -8    1.33    5.62
 -20  -5  -9    4.48    6.48
  20   5   9   11.71    6.76
 -20   5  -9    1.14    5.52
  20  -5  10    1.43    6.38
 -20  -5 -10   -3.43    5.52
  20   5  10    4.76    6.57
 -20   5 -10    4.09    5.81
  20  -5  11   39.52    9.81
 -20  -5 -11   24.28    8.19
  20   5  11   25.33    8.95
 -20   5 -11   22.66    8.28
  20  -6   0    6.67    5.05
 -20   6   0    1.52    4.57
  20  -6   1   -1.43    4.76
 -20   6   1    3.05    4.38
  20  -6  -1    2.86    4.57
 -20   6  -1    7.62    5.24
  20  -6   2   -0.38    5.05
 -20   6   2    1.14    4.09
  20  -6  -2    0.95    4.29
 -20   6  -2   -2.76    4.86
  20  -6   3   -1.62    4.95
 -20   6   3    2.00    3.81
  20  -6  -3    1.52    4.38
 -20   6  -3    0.76    5.14
  20  -6   4    5.81    5.62
  20  -6  -4    3.33    4.38
 -20   6  -4    4.38    5.24
  20  -6   5   10.67    6.00
 -20  -6  -5   12.57    6.86
 -20   6  -5    1.33    5.43
  20  -6   6   -7.24    5.05
 -20  -6  -6    2.00    6.29
 -20   6  -6    7.05    5.81
  20  -6   7   -0.67    5.43
 -20  -6  -7   -8.19    5.90
  20   6   7    5.33    5.81
 -20   6  -7    6.57    5.71
  20  -6   8   -1.43    5.33
 -20  -6  -8    3.05    6.00
  20   6   8    6.09    6.38
 -20   6  -8    6.67    5.71
  20  -6   9    1.62    5.90
 -20  -6  -9    0.48    6.19
  20   6   9   -0.10    6.09
 -20   6  -9    5.62    5.62
  20  -6  10   -1.33   90.37
 -20  -6 -10    1.71    6.29
  20   6  10    3.81    6.29
 -20   6 -10    2.00    5.90
  20  -6  11    2.76    6.48
 -20  -6 -11    1.90    6.00
  20   6  11   -4.48    6.38
 -20   6 -11    1.62    5.52
  20  -7   0   11.43    5.33
 -20   7   0   25.90    6.67
  20  -7   1    4.48    4.95
 -20   7   1    3.05    4.48
  20  -7  -1   -0.48    4.95
 -20   7  -1    0.38    4.76
  20  -7   2   16.19    5.81
 -20   7   2   14.67    4.95
  20  -7  -2   19.05    5.90
 -20   7  -2   17.33    6.57
  20  -7   3   -0.57    5.14
  20  -7  -3    3.33    4.67
 -20   7  -3    1.52    5.24
  20  -7   4    8.57    5.52
 -20   7  -4   20.47    6.86
  20  -7   5   -4.38    4.86
 -20   7  -5    1.05    5.24
  20  -7   6   17.52    6.57
 -20   7  -6    8.95    5.81
  20  -7   7    6.38    6.09
 -20  -7  -7    4.57    6.38
 -20   7  -7    1.43    5.43
  20  -7   8   40.09    9.24
 -20  -7  -8   16.47    7.71
  20   7   8   14.38    7.43
 -20   7  -8   39.52    9.14
  20  -7   9    4.19    5.81
 -20  -7  -9    0.38    6.29
  20   7   9   -0.29    6.19
 -20   7  -9   10.86    6.09
  20  -7  10   15.24    6.95
 -20  -7 -10    5.81    6.86
  20   7  10    1.05    9.14
 -20   7 -10    8.86    6.09
  20  -7  11    5.43    6.48
 -20  -7 -11    1.90    7.05
  20   7  11    7.62    6.86
 -20   7 -11    3.90    5.43
  20  -8   0   77.23   11.33
 -20   8   0   99.89   13.24
  20  -8   1   20.86    6.29
 -20   8   1   22.66    6.09
  20  -8  -1   10.00    5.52
 -20   8  -1   10.57    5.81
  20  -8   2    2.29    5.43
  20  -8  -2   -1.24    5.05
 -20   8  -2   12.57    5.90
  20  -8   3    2.48    5.33
 -20   8  -3    1.81    5.33
  20  -8   4   10.95    6.00
 -20   8  -4    8.28    6.09
  20  -8   5   11.71    6.29
 -20   8  -5   16.47    6.67
  20  -8   6   23.43    7.43
 -20   8  -6   19.33    7.14
  20  -8   7   64.95   11.52
 -20   8  -7   34.28    8.48
  20  -8   8   -2.95    5.24
 -20   8  -8    1.24    5.33
 -20  -8  -9    5.43    6.19
 -20   8  -9   17.05    7.24
  20  -8  10   13.33    6.76
 -20  -8 -10   22.00    8.38
  20   8  10   10.00    6.95
 -20   8 -10   11.05    7.05
  20  -9   0    3.05    5.81
 -20   9   0    6.19    5.14
  20  -9   1    4.38    5.62
  20  -9  -1   10.19    5.90
 -20   9  -1   -1.14    5.33
  20  -9   2   -0.38    4.95
 -20   9  -2    2.86    5.52
  20  -9   3    5.62    5.43
 -20   9  -3    5.33    5.62
  20  -9   4    6.38    5.43
 -20   9  -4    4.19    5.71
  20  -9   5    1.24    5.43
 -20   9  -5    4.57    5.43
  20  -9   6   -0.29    5.05
 -20   9  -6    1.90    5.33
  20  -9   7    4.67    5.62
 -20   9  -7    1.90    5.62
  20  -9   8   -1.33    5.71
 -20   9  -8    0.57    6.57
  20  -9   9    8.95    6.19
 -20   9  -9    1.62    5.62
  20  -9  10   -1.24    5.43
 -20  -9 -10   -5.05    6.38
 -20   9 -10    1.81    5.33
  20 -10   0    8.76    6.09
  20 -10   1    8.00    6.09
 -20  10  -1    3.24    5.14
  20 -10   2   -3.62    5.43
 -20  10  -2    0.29    5.62
  20 -10   3   -4.48    5.43
 -20  10  -3   -0.95    5.43
  20 -10   4    5.24    5.52
 -20  10  -4    0.38    5.33
  20 -10   5    6.19    5.90
 -20  10  -5    4.09    5.71
  20 -10   6    7.52    5.62
 -20  10  -6    2.67    5.43
  20 -10   7    6.00    5.43
 -20  10  -7   -4.38    5.14
  20 -10   8    6.09    6.29
 -20  10  -8   -2.57    5.52
  20 -10   9    0.19    5.52
 -20  10  -9    0.29    5.33
  20 -10  10    2.29    6.48
 -20  10 -10    4.95    5.90
  20 -11   1    3.43    5.62
  20 -11   2    6.29    6.09
 -20  11  -2    3.43    5.71
  20 -11   3    4.57    6.09
 -20  11  -3    0.29    5.52
  20 -11   4    2.29    5.90
 -20  11  -4   -0.38    5.43
  20 -11   5   -3.24    4.86
 -20  11  -5    1.52    5.43
  20 -11   6   -0.29    5.62
 -20  11  -6    5.52    5.71
  20 -11   7   12.57    6.29
 -20  11  -7    1.71    5.62
  20 -11   8   10.48    6.00
 -20  11  -8    0.57    5.71
  20 -11   9   -0.48    5.62
 -20  11  -9    2.57    5.81
  20 -12   2   -0.29    5.62
  20 -12   3    6.29    6.09
 -20  12  -3    1.90    5.52
  20 -12   4    6.09    6.29
 -20  12  -4   12.00    6.38
  20 -12   5    0.29    6.00
 -20  12  -5    4.00    6.00
  20 -12   6    5.05    5.81
 -20  12  -6    5.05    6.00
  20 -12   7   16.19    7.14
 -20  12  -7    7.52    6.19
  20 -12   8    3.05    5.62
 -20  12  -8    5.05    6.00
  20 -12   9   -0.67    6.00
  20 -13   3    2.29    6.29
  20 -13   4   12.09    6.95
 -20  13  -4   12.00    6.19
  20 -13   5   13.43    7.24
 -20  13  -5   38.76    9.43
  20 -13   6   19.33    7.52
 -20  13  -6   21.43    7.81
  20 -13   7   18.86    7.81
 -20  13  -7    7.62    6.57
  20 -13   8    9.52    6.86
 -20  13  -8   14.00    7.14
  20 -14   4    5.14    6.00
  20 -14   5    3.05    5.90
 -20  14  -5    2.10    5.90
  20 -14   6    6.48    6.48
 -20  14  -6   -5.05    5.05
  20 -14   7    2.48    6.29
 -20  14  -7    0.67    6.00
  20 -15   5    3.71    6.09
  20 -15   6   -1.62    6.48
 -20  15  -6    3.43    6.19
  21   0   0    4.38    5.52
 -21   0   0    1.33    4.76
  21   0   1   79.04   11.90
 -21   0   1   93.61   11.90
  21   0  -1   87.61   11.90
  21   0   2   13.81    6.67
 -21   0   2    8.67    4.29
  21   0  -2   11.81    5.33
 -21   0  -2   17.71    6.57
 -21   0   3  135.70   14.86
  21   0  -3  148.56   16.66
  21   0   4    5.62    6.48
 -21   0   4   -0.29    3.14
  21   0  -4   10.95    4.19
 -21   0  -4   -1.52    5.62
  21   0   5    7.62    6.29
 -21   0   5   15.14    3.33
 -21   0  -5   15.62    6.67
  21   0   6   11.90    6.67
 -21   0  -6   22.66    7.43
  21   0   7   55.80   10.86
 -21   0  -7   61.90   11.33
  21   0   8   30.00    8.67
 -21   0  -8   39.52    9.52
  21   0   9   61.61   11.90
 -21   0  -9  101.04   15.33
  21   0  10   17.43    7.90
 -21   0  10    1.24    7.43
 -21   0 -10    7.05    6.38
  21   0  11   38.09    9.81
 -21   0  11   57.80    7.33
 -21   0 -11   39.90   10.28
  21   1   0    8.95    5.71
 -21  -1   0    0.19    4.86
 -21   1   0    1.33    4.86
  21  -1   1    4.38    5.43
 -21   1   1   -0.67    4.09
  21   1  -1    4.67    5.24
 -21  -1  -1    2.10    5.14
  21   1   1   -1.43    5.62
 -21  -1   1    0.19    4.76
  21  -1  -1    0.67    5.05
 -21   1  -1    7.05    5.33
  21  -1   2    9.71    6.38
 -21   1   2    4.67    4.09
 -21  -1  -2   -0.10    5.52
  21   1   2   12.76    6.67
 -21  -1   2    2.95    4.19
  21  -1  -2    1.81    4.57
 -21   1  -2   27.71    7.33
  21  -1   3    3.33    6.09
 -21   1   3    3.24    3.52
 -21  -1  -3    4.00    6.00
  21   1   3    2.19    5.81
 -21  -1   3    3.81    3.71
  21  -1  -3    3.71    4.48
 -21   1  -3    5.33    6.00
  21  -1   4    6.76    6.29
 -21   1   4   10.28    3.43
  21   1   4   32.00    8.48
  21  -1  -4    7.24    4.09
 -21   1  -4    9.81    6.38
  21  -1   5   10.76    6.48
 -21   1   5    4.29    2.48
 -21  -1  -5    3.71    5.71
  21   1   5    2.48    6.09
  21  -1  -5    1.24    3.05
 -21   1  -5    3.52    5.43
  21  -1   6    8.09   19.14
 -21   1   6   10.67    2.38
 -21  -1  -6   28.85    8.00
  21   1   6    5.71    5.90
 -21   1  -6   20.47    7.43
  21  -1   7   -1.52    5.71
 -21  -1  -7   -2.67   15.81
  21   1   7   -3.62    5.90
 -21   1  -7    0.38    5.71
  21  -1   8   10.76    6.67
 -21  -1  -8   18.95    7.24
  21   1   8    2.00    6.38
 -21   1  -8    3.52    5.90
  21  -1   9    2.48   93.23
 -21   1   9    1.05    1.71
 -21  -1  -9    6.38  200.17
  21   1   9    1.14    5.90
 -21   1  -9    0.38    5.52
  21  -1  10    9.14    6.67
 -21   1  10   20.00    3.24
  21   1  10    2.29    6.29
  21  -1 -10    9.62    2.95
 -21   1 -10    5.90    6.48
  21  -1  11   -4.00    6.00
 -21   1  11    0.48    2.76
 -21  -1 -11    2.00    6.29
  21   1  11    0.86    6.48
 -21  -1  11    2.00    3.24
  21  -1 -11    4.57    4.00
 -21   1 -11    5.81    8.67
  21   2   0    6.19    5.81
 -21  -2   0    1.71    5.24
  21  -2   0    4.57    5.33
 -21   2   0    1.24    4.67
  21  -2   1   -0.10    5.52
 -21   2   1   -0.19    4.09
  21   2   1   -5.71    5.62
 -21  -2   1   18.95    5.71
  21  -2  -1    5.05    4.86
 -21   2  -1    0.00    5.24
  21  -2   2    2.00    5.62
 -21   2   2    0.10    3.90
 -21  -2  -2   -4.57    5.43
  21   2   2    4.76    5.90
  21  -2  -2   -0.10    4.48
 -21   2  -2    0.67    5.43
  21  -2   3   16.38    6.67
 -21   2   3   11.14    3.90
 -21  -2  -3    7.62    6.19
  21   2   3   18.47    7.24
  21  -2  -3    8.95    4.57
 -21   2  -3   10.67    6.19
  21  -2   4    4.09    5.81
 -21   2   4    1.81    2.95
 -21  -2  -4   -2.10    5.33
  21   2   4    2.95    5.90
  21  -2  -4    1.71    3.62
 -21   2  -4    1.90    5.62
  21  -2   5   -1.05    5.81
 -21   2   5    4.76    2.57
 -21  -2  -5    6.00    6.00
  21   2   5   -5.90    5.81
  21  -2  -5    2.29    3.14
 -21   2  -5    4.19    5.62
  21  -2   6   -3.62    5.43
 -21   2   6    1.71    2.00
 -21  -2  -6    0.19    5.62
  21   2   6    1.43    6.19
  21  -2  -6    1.52    2.38
 -21   2  -6    7.33    5.62
  21  -2   7    1.81    5.62
 -21   2   7    3.90    1.62
 -21  -2  -7    9.90    6.38
  21   2   7   -0.57    5.62
  21  -2  -7    0.67    1.71
 -21   2  -7    2.67    5.05
  21  -2   8    5.81    9.05
 -21  -2  -8   -0.76    5.62
  21   2   8    7.43    6.57
 -21   2  -8   -0.95    5.52
  21  -2   9    9.81    6.67
 -21  -2  -9    6.48    6.19
  21   2   9   16.19    7.43
 -21   2  -9    7.81    6.48
  21  -2  10   -0.19   11.43
 -21   2  10    3.24    2.19
 -21  -2 -10    0.48    6.00
  21   2  10    0.10    6.29
  21  -2 -10    2.95    5.52
 -21   2 -10    0.48    5.81
  21  -2  11   15.71   17.62
 -21   2  11    5.33    6.86
 -21  -2 -11   15.43    7.43
  21   2  11    5.71    6.86
  21  -2 -11    2.76    2.86
 -21   2 -11    3.81   15.14
 -21  -3   0    6.86    5.62
  21  -3   0    8.86    5.52
 -21   3   0    5.14    4.48
  21  -3   1   -7.62    5.14
 -21   3   1   -0.86    3.90
 -21  -3  -1   10.09    6.09
  21   3   1    1.62    5.81
  21  -3  -1    5.33    4.67
 -21   3  -1   11.90    5.62
  21  -3   2   17.81    6.86
 -21   3   2    7.43    4.09
 -21  -3  -2   16.66    7.05
  21   3   2    9.33    6.38
  21  -3  -2   16.86    5.24
 -21   3  -2    3.05    5.24
  21  -3   3    9.24    6.48
 -21   3   3    9.71    3.52
 -21  -3  -3    8.57    6.38
  21   3   3   11.33    6.48
  21  -3  -3   11.81    4.76
 -21   3  -3   11.24    5.81
  21  -3   4   -0.48    5.90
 -21  -3  -4    5.14    6.29
  21   3   4   -0.67    6.00
  21  -3  -4   13.24    4.29
 -21   3  -4   -6.76    5.43
  21  -3   5   -4.57    5.33
 -21   3   5    5.81    2.57
 -21  -3  -5    7.62    6.00
  21   3   5   -1.14    6.09
  21  -3  -5    1.62    3.24
 -21   3  -5   -2.38    5.14
  21  -3   6   10.76    6.19
 -21   3   6    6.67    2.19
 -21  -3  -6    0.00    5.71
  21   3   6   -4.86    5.71
  21  -3  -6    2.38    2.48
 -21   3  -6   13.05    6.67
  21  -3   7    4.38    6.19
 -21  -3  -7   -0.48    5.52
  21   3   7   -1.43    5.81
  21  -3  -7    2.10    2.29
 -21   3  -7    4.95    5.71
  21  -3   8    2.19    6.29
 -21  -3  -8    2.10    5.71
  21   3   8   -3.43    5.90
 -21   3  -8    3.81    6.00
  21  -3   9   -1.24    5.62
 -21  -3  -9    1.90    8.57
  21   3   9    5.43    6.29
  21  -3  -9    5.52    2.00
 -21   3  -9    9.24    6.29
  21  -3  10   10.57    6.86
 -21  -3 -10    6.76    6.76
  21   3  10    4.48    7.14
  21  -3 -10   10.19    2.76
 -21   3 -10   12.28    6.67
  21  -3  11    1.90    6.86
 -21   3  11    0.95    4.29
 -21  -3 -11   -2.57    6.19
  21   3  11   -0.86    5.90
  21  -3 -11    4.95  215.98
 -21   3 -11    1.43   11.52
  21  -4   0   -1.24    4.76
 -21   4   0   -4.76    4.00
  21  -4   1   -1.05    5.33
 -21   4   1    2.38    4.09
  21  -4  -1   -3.90    4.48
 -21   4  -1    4.95    4.67
  21  -4   2    3.62    5.43
 -21   4   2    3.52    3.52
 -21  -4  -2   10.57    6.38
  21  -4  -2    2.67    4.00
 -21   4  -2    4.57    5.14
  21  -4   3   -5.90    5.33
 -21   4   3    0.86    3.24
 -21  -4  -3    7.43    6.19
  21   4   3    9.52    6.19
  21  -4  -3    4.00    3.90
 -21   4  -3   -5.14    5.14
  21  -4   4    2.10    5.62
 -21   4   4   -1.43    4.57
 -21  -4  -4    3.81    5.71
  21   4   4    1.52    6.38
  21  -4  -4   -1.14    3.43
 -21   4  -4   -5.71    5.24
  21  -4   5    4.95    5.81
 -21   4   5    2.29    2.67
 -21  -4  -5    0.00    5.62
  21   4   5   -0.29    6.09
  21  -4  -5    0.57    3.24
 -21   4  -5   -0.19    5.43
  21  -4   6   -2.29    5.90
 -21  -4  -6   -0.57    5.90
  21   4   6    3.14    6.00
  21  -4  -6    5.14    3.05
 -21   4  -6   -1.81    5.52
  21  -4   7    0.38    5.81
 -21  -4  -7    1.05    5.52
  21   4   7    9.90    6.48
 -21   4  -7    1.90    5.62
  21  -4   8    9.90   69.14
 -21  -4  -8   -4.38    5.43
  21   4   8    0.48    6.00
 -21   4  -8    7.71    5.90
  21  -4   9    0.29    6.00
 -21  -4  -9    0.00    6.09
  21   4   9    3.81    6.38
 -21   4  -9   -4.09    4.86
  21  -4  10    4.57    6.19
 -21  -4 -10   -0.76    5.90
  21   4  10   -0.10    6.29
 -21   4 -10   -1.71    6.09
  21  -4  11    1.81    7.14
 -21  -4 -11   -2.19    7.43
  21   4  11   -1.33    6.38
  21  -4 -11    2.00    3.24
 -21   4 -11    6.76    6.00
  21  -5   0   -1.14    4.57
 -21   5   0    1.71    4.38
  21  -5   1    3.81    4.76
 -21   5   1    2.48    3.90
  21  -5  -1    3.33    4.38
 -21   5  -1    3.81    4.86
  21  -5   2   37.71    8.00
 -21   5   2   61.52    8.57
  21  -5  -2   45.52    7.52
 -21   5  -2   46.28    8.76
  21  -5   3   19.43    6.48
 -21   5   3   12.76    4.29
 -21   5  -3   26.28    7.33
  21  -5   4   57.14   10.38
 -21   5   4   50.28    6.95
 -21   5  -4   74.28   11.81
  21  -5   5   -0.67    5.62
 -21  -5  -5    3.71    6.09
  21   5   5    1.05    6.09
  21  -5  -5   -4.19    3.62
 -21   5  -5    1.24    5.14
  21  -5   6   14.28    6.48
 -21  -5  -6    0.57    5.90
  21   5   6    1.71    6.09
 -21   5  -6    0.95    5.81
  21  -5   7   11.62    6.86
 -21  -5  -7   20.38    7.33
  21   5   7    6.29    6.48
 -21   5  -7   18.00    7.05
  21  -5   8   19.81    7.62
 -21  -5  -8   16.19    7.81
  21   5   8   35.52    9.05
 -21   5  -8   31.52    8.57
  21  -5   9    6.38    6.57
 -21  -5  -9   -7.24    5.81
  21   5   9   11.43    7.05
 -21   5  -9    7.52    6.29
  21  -6   0    1.43    4.57
 -21   6   0    0.86    4.38
  21  -6   1    7.14    5.14
 -21   6   1    4.95    4.48
  21  -6  -1   -1.05    4.57
 -21   6  -1   20.47    6.09
  21  -6   2   -3.43    4.95
 -21   6   2   -2.67    4.00
  21  -6  -2    3.24    4.38
 -21   6  -2    1.24    4.76
  21  -6   3    1.24    5.05
 -21   6   3   -0.57    3.71
  21  -6  -3    2.48    4.38
 -21   6  -3    6.00    5.33
  21  -6   4    0.29    5.14
  21  -6  -4    2.29    4.38
 -21   6  -4    2.10   36.38
  21  -6   5    2.19    5.43
 -21  -6  -5    2.19    6.00
 -21   6  -5    4.86    5.52
  21  -6   6   -5.52    5.24
 -21  -6  -6    1.52    6.09
  21   6   6    0.95    6.09
 -21   6  -6    6.67    5.71
  21  -6   7    6.95    5.62
 -21  -6  -7   10.38    7.05
  21   6   7    7.14    6.86
 -21   6  -7   -4.19    4.95
  21  -6   8    6.95    6.29
 -21  -6  -8    0.48    6.19
  21   6   8   -3.05    5.81
 -21   6  -8    4.09    5.14
  21  -6   9    1.24    5.90
 -21  -6  -9   15.90    7.62
  21   6   9    2.86    6.19
 -21   6  -9    1.62   57.42
  21  -6  10    4.38    6.29
 -21  -6 -10    8.76 1059.89
  21   6  10   -6.67    5.90
 -21   6 -10    8.48    6.00
  21  -7   0    7.05  123.70
 -21   7   0   21.33    6.09
  21  -7   1    0.10    4.95
 -21   7   1    0.86    4.38
  21  -7  -1   -2.76    4.67
 -21   7  -1    3.81    4.95
  21  -7   2   20.86    6.67
 -21   7   2   18.47    5.43
  21  -7  -2   16.76    6.00
 -21   7  -2   45.23    8.86
  21  -7   3    0.86    5.14
  21  -7  -3    0.10    4.38
 -21   7  -3    3.24    5.33
  21  -7   4   32.95    7.81
 -21   7  -4    7.71    6.00
  21  -7   5    0.10    5.05
 -21   7  -5   -1.14    5.14
  21  -7   7   -4.09    5.33
 -21  -7  -7   -1.14    6.00
 -21   7  -7   -0.86    5.05
  21  -7   8   19.52    7.52
 -21  -7  -8    7.52    6.95
  21   7   8   18.00    7.33
 -21   7  -8    5.90    5.90
  21  -7   9    3.05    5.52
 -21  -7  -9   -0.67    6.48
  21   7   9    3.52    6.09
 -21   7  -9   -0.29    5.14
  21  -7  10   12.57    6.57
 -21  -7 -10   -2.67    7.62
  21   7  10    4.09    6.48
 -21   7 -10    2.00    5.52
  21  -8   0    1.05    4.48
 -21   8   0    8.48    5.14
  21  -8   1    7.62    5.33
 -21   8   1    3.71    4.86
  21  -8  -1    2.95    5.14
 -21   8  -1    0.67    4.95
  21  -8   2   -2.67    5.14
  21  -8  -2   13.14    5.62
 -21   8  -2    7.81    5.71
  21  -8   3    8.09    5.62
 -21   8  -3    8.48    5.81
  21  -8   4    1.71    5.43
 -21   8  -4   -1.43    5.14
  21  -8   5   -2.48    5.05
 -21   8  -5    0.86    5.14
  21  -8   6    5.24    5.90
 -21   8  -6   13.05    5.81
  21  -8   7    3.24    5.24
 -21   8  -7   -1.52    4.86
  21  -8   8   31.62    8.48
 -21  -8  -8   29.04    8.67
 -21   8  -8   17.71    6.67
  21  -8   9    2.67    6.19
 -21  -8  -9    5.90    6.86
  21  -9   0   -0.38    5.43
 -21   9   0    0.76    4.86
  21  -9   1   -2.67    5.33
  21  -9  -1    2.86    5.24
 -21   9  -1    1.33    4.95
  21  -9   2   -1.62    4.86
 -21   9  -2   -2.00    5.05
  21  -9   3    0.95    5.24
 -21   9  -3    2.10    5.33
  21  -9   4   12.00    6.00
 -21   9  -4   -1.24    5.52
  21  -9   5   -5.52    5.05
 -21   9  -5    5.52    5.71
  21  -9   6    3.24    5.52
 -21   9  -6    3.33    5.52
  21  -9   7    9.33    5.90
 -21   9  -7   -0.86    5.43
  21  -9   8    0.48    5.71
 -21   9  -8   20.38    6.95
  21  -9   9   -1.43    5.43
 -21   9  -9    0.86    5.05
  21 -10   0   12.38    6.19
  21 -10   1    2.10    5.24
 -21  10  -1    2.38    5.24
  21 -10   2    4.09    6.09
 -21  10  -2    9.71    5.43
  21 -10   3   10.19    6.00
 -21  10  -3   19.05    7.14
  21 -10   4   -3.05    5.24
 -21  10  -4    8.28    5.90
  21 -10   5   15.52    6.38
 -21  10  -5   18.28    7.14
  21 -10   6    4.19    6.19
 -21  10  -6    7.43    5.71
  21 -10   7    1.14    5.62
 -21  10  -7    2.38    5.33
  21 -10   8    3.43    5.90
 -21  10  -8   10.86    6.57
  21 -10   9   33.52    9.90
 -21  10  -9   21.14    9.62
  21 -11   1   18.47    6.67
  21 -11   2    4.95   87.99
 -21  11  -2   -0.29    4.95
  21 -11   3    0.29    5.71
 -21  11  -3    2.95    5.62
  21 -11   4    3.52    6.09
 -21  11  -4    2.29    5.62
  21 -11   5   -4.76    5.14
 -21  11  -5   -2.19    5.24
  21 -11   6   -1.62    5.33
 -21  11  -6    4.00    5.90
  21 -11   7   -0.86    5.81
 -21  11  -7    0.67    5.43
  21 -11   8    3.71    5.52
 -21  11  -8  -10.09   20.09
  21 -12   2    3.14    5.62
  21 -12   3   13.52    6.76
 -21  12  -3    8.76    6.19
  21 -12   4    6.76    6.00
 -21  12  -4   -0.48    5.33
  21 -12   5    1.90    6.29
 -21  12  -5   -6.48   49.99
  21 -12   6    1.81    5.52
 -21  12  -6    0.19    5.43
  21 -12   7   -4.09   19.33
 -21  12  -7    0.95    5.52
  21 -13   3   27.14    7.81
  21 -13   4   -3.71    5.90
 -21  13  -4    1.14    5.71
  21 -13   5   -1.62    5.81
 -21  13  -5   11.81    6.09
  21 -13   6    2.76    6.48
 -21  13  -6    5.71    5.90
  21 -13   7   -1.33    5.43
 -21  13  -7   -3.52   19.81
  21 -14   4    5.14    9.71
  21 -14   5   16.66    7.71
 -21  14  -5    4.86    6.29
  21 -14   6    1.62    6.48
 -21  14  -6    6.57   44.95
  21 -15   5   -6.00    6.29
  22   0   0   11.71    5.43
 -22   0   0    4.67    4.57
  22   0   1   21.24    6.67
  22   0  -1    2.67    4.86
 -22   0  -1    6.76    5.14
  22   0   2    6.67    5.52
 -22   0   2   -0.95    3.43
  22   0  -2    1.33    4.67
 -22   0  -2   12.28    5.62
  22   0   3    1.71    6.00
 -22   0   3    4.00    3.43
  22   0  -3    5.71    4.29
 -22   0  -3    4.48    5.52
  22   0   4   11.81    6.29
  22   0  -4   20.47    4.95
 -22   0  -4   21.52    6.86
  22   0   5    3.62    6.19
 -22   0   5    4.00    2.76
 -22   0  -5   14.19    6.57
  22   0   6   17.05    7.33
 -22   0  -6   27.90    8.09
  22   0   8    9.24    6.76
 -22   0  -8    4.00    5.90
  22   0  10   11.24    6.76
 -22   0 -10    4.19    7.62
  22   1   0    5.71    5.05
 -22  -1   0    8.86    5.05
  22  -1   0    0.38    5.05
 -22   1   0    1.62    4.57
  22  -1   1    2.95    4.86
 -22   1   1   -1.62    3.81
  22   1  -1    2.76    4.86
 -22  -1  -1    1.43    4.76
  22   1   1   -0.10    4.95
 -22  -1   1    0.10    4.19
  22  -1  -1    2.00    4.57
 -22   1  -1    2.48    5.05
  22  -1   2   10.28    5.71
 -22   1   2    3.43    3.71
  22   1  -2   10.28    4.76
 -22  -1  -2   12.28    5.43
  22   1   2    5.33    5.90
 -22  -1   2    1.05    4.09
  22  -1  -2    0.38    4.09
 -22   1  -2    2.57    5.05
  22  -1   3    9.62    5.71
 -22   1   3    0.29    3.14
 -22  -1  -3    1.43    5.52
  22   1   3    0.19    5.52
 -22  -1   3    2.00    3.52
  22  -1  -3    0.19    3.90
 -22   1  -3    1.90    5.14
  22  -1   4    7.90    5.71
 -22   1   4   -0.48    2.86
 -22  -1  -4    2.76    5.52
  22   1   4    2.76    5.62
  22  -1  -4    0.76    3.52
 -22   1  -4    6.38    5.71
  22  -1   5    5.33    5.81
 -22   1   5    2.95    2.38
 -22  -1  -5    3.90    5.81
  22   1   5    2.86    5.43
  22  -1  -5   -0.95    3.05
 -22   1  -5    6.29    5.52
  22  -1   6    5.43    5.90
 -22   1   6    0.95    2.48
 -22  -1  -6    3.62    6.00
  22   1   6   -1.14    5.81
 -22   1  -6    0.86    5.43
  22  -1   7    1.71    5.81
 -22   1   7   -1.05    1.62
 -22  -1  -7    4.00    6.00
  22   1   7   -4.57    5.43
 -22   1  -7    1.81    5.33
  22  -1   8    8.19    6.38
 -22  -1  -8    4.19    5.62
  22   1   8   -2.38    6.00
 -22   1  -8    6.57    5.90
  22  -1   9   -4.48    5.71
 -22  -1  -9    2.19    6.00
  22   1   9    2.57    6.00
 -22   1  -9    4.48    6.38
  22  -1  10    8.67    6.09
 -22   1  10    1.33    2.19
 -22  -1 -10   -0.19    6.19
  22   1  10   -0.10    6.00
 -22   1 -10    2.48    5.71
  22   2   0    8.38    5.33
 -22  -2   0    2.48    4.86
  22  -2   0   -1.33    4.29
 -22   2   0   -1.81    4.38
  22  -2   1   -0.19    5.05
 -22   2   1    1.62    4.09
  22   2  -1    0.86    4.57
 -22  -2  -1   -0.10    4.95
  22   2   1    7.62    5.52
 -22  -2   1    4.00    4.57
  22  -2  -1    0.10    4.38
 -22   2  -1    5.81    4.76
  22  -2   2    1.33    4.86
 -22   2   2   -1.62    3.90
 -22  -2  -2    2.38    4.95
  22   2   2    0.76    5.43
 -22  -2   2    4.19    4.19
  22  -2  -2    1.52    4.19
 -22   2  -2    0.67    4.95
  22  -2   3   -4.95    5.05
 -22   2   3    2.86    3.52
 -22  -2  -3    0.29    5.24
  22   2   3   -2.67    5.33
  22  -2  -3    4.19    4.09
 -22   2  -3    2.10    5.14
  22  -2   4   -3.62    5.14
 -22   2   4    2.48    2.95
 -22  -2  -4   -4.09    5.05
  22   2   4   -4.09   19.05
  22  -2  -4    1.05   10.19
 -22   2  -4    1.71    5.62
  22  -2   5    5.71    5.71
 -22   2   5    3.33    2.57
 -22  -2  -5   10.38    7.33
  22   2   5    3.52    5.90
  22  -2  -5   -0.76    3.24
 -22   2  -5    5.14    5.43
  22  -2   6    1.05    5.71
 -22   2   6    1.81    2.00
 -22  -2  -6    1.24    5.24
  22   2   6   11.62    7.05
  22  -2  -6    2.48    2.57
 -22   2  -6    2.48    5.43
  22  -2   7    2.57    5.71
 -22   2   7    4.76    1.81
 -22  -2  -7    9.33    6.48
  22   2   7   -0.57   15.24
  22  -2  -7    5.90    2.19
 -22   2  -7   -2.57    5.14
  22  -2   8   -3.24    5.62
 -22  -2  -8    0.38   27.90
  22   2   8    8.86    6.48
 -22   2  -8    7.14    6.29
  22  -2   9    6.76    6.19
 -22  -2  -9    4.67    6.09
  22   2   9   -2.19    6.09
 -22   2  -9   -6.09    5.52
  22  -2  10    0.67    6.00
 -22   2  10   -0.38    7.43
 -22  -2 -10    7.90    6.29
  22   2  10   -4.95    5.90
  22  -2 -10   -1.52  147.51
 -22   2 -10    1.90    5.52
  22  -3   0   27.33    6.76
 -22   3   0   19.90    5.71
  22  -3   1    2.95    5.14
 -22   3   1    3.05    4.00
 -22  -3  -1    5.24    5.71
  22   3   1   16.38    5.90
  22  -3  -1   -2.67    4.57
 -22   3  -1    0.86    4.86
  22  -3   2    4.76    5.33
 -22   3   2    1.33    3.71
 -22  -3  -2   -2.10    5.24
  22   3   2   16.28    6.57
  22  -3  -2    5.62    4.48
 -22   3  -2    6.67    5.24
  22  -3   3    0.48    5.33
 -22   3   3    4.19    3.52
 -22  -3  -3   -4.76    5.33
  22   3   3   -1.05    5.62
  22  -3  -3    5.24    4.19
 -22   3  -3    1.43    4.86
  22  -3   4   -0.38    5.62
 -22   3   4    7.33    3.14
 -22  -3  -4    4.86    5.81
  22   3   4    8.00    6.09
  22  -3  -4    2.86    3.71
 -22   3  -4   -2.86    5.24
  22  -3   5   -5.90    5.62
 -22   3   5    3.33    2.48
 -22  -3  -5   -3.24    5.14
  22   3   5    5.62    6.19
  22  -3  -5    4.76    3.33
 -22   3  -5   -0.67    5.05
  22  -3   6    7.71    6.48
 -22   3   6    5.14    2.29
 -22  -3  -6    3.90    5.71
  22   3   6   15.71    6.76
  22  -3  -6    4.48    2.86
 -22   3  -6   -2.38    5.24
  22  -3   7   -1.24    9.43
 -22   3   7    1.43    1.71
 -22  -3  -7   -0.48    5.62
  22   3   7    4.38    6.19
  22  -3  -7    0.57    1.90
 -22   3  -7   -4.09    5.24
  22  -3   8    0.76    5.52
 -22  -3  -8    3.14    5.52
  22   3   8    5.52    6.00
 -22   3  -8   -2.48    5.43
  22  -3   9    4.76    6.48
 -22  -3  -9    0.10    5.81
  22   3   9    2.10    6.00
 -22   3  -9   -3.33    5.62
  22  -3  10    5.24    6.38
 -22  -3 -10    2.95    5.90
  22   3  10    1.24    6.57
  22  -3 -10   -2.00   63.90
 -22   3 -10   11.52   21.33
  22  -4   0    1.43    4.86
 -22   4   0   -0.38    6.67
  22  -4   1    8.09    5.24
 -22   4   1    2.00    4.29
  22  -4  -1    4.86    4.76
 -22   4  -1    0.95    4.86
  22  -4   2   -5.14    5.05
 -22   4   2    1.90    3.62
 -22  -4  -2    6.38    5.62
  22  -4  -2    3.24    4.29
 -22   4  -2   -0.57   58.28
  22  -4   3   -2.48    5.14
 -22   4   3    1.52    3.24
 -22  -4  -3    7.24    5.81
  22   4   3   -3.62    5.43
  22  -4  -3    2.67    3.90
 -22   4  -3    6.19    5.43
  22  -4   4    7.33    5.81
 -22   4   4   -0.95    3.05
 -22  -4  -4    1.52    5.62
  22   4   4   -3.24    5.33
  22  -4  -4    2.38    3.62
 -22   4  -4   -2.95    4.86
  22  -4   5   -3.05    5.14
 -22   4   5    1.05    2.67
 -22  -4  -5   -0.29    5.62
  22   4   5   -5.62    5.05
  22  -4  -5   -0.29    3.05
 -22   4  -5    4.19    5.62
  22  -4   6   -1.14    5.24
 -22   4   6   -2.10    2.19
 -22  -4  -6   -0.86    5.62
  22   4   6    6.86    6.19
  22  -4  -6    1.24    2.67
 -22   4  -6   -0.38    5.05
  22  -4   7    6.19   14.00
 -22  -4  -7    6.19    5.90
  22   4   7    4.29    6.19
  22  -4  -7    1.43    2.57
 -22   4  -7    2.67    5.33
  22  -4   8   -4.29    5.43
 -22  -4  -8    1.90    5.81
  22   4   8   -0.29    5.62
 -22   4  -8   -0.48    6.86
  22  -4   9   -1.33    5.90
 -22  -4  -9   -2.86   18.95
  22   4   9   -3.52    6.09
 -22   4  -9   -1.33    5.14
  22  -4  10   -4.00   31.23
 -22  -4 -10    2.10   14.76
  22   4  10    4.86   99.51
 -22   4 -10    0.86    5.62
  22  -5   1   14.86    5.52
 -22   5   1    1.81    3.90
  22  -5  -1   -1.62    4.48
 -22   5  -1    5.62   26.57
  22  -5   2   18.86    6.38
 -22   5   2   14.57    4.57
  22  -5  -2   10.19    4.95
 -22   5  -2   13.14    5.62
  22  -5   3    5.62    5.62
 -22   5   3    4.09    3.81
 -22  -5  -3    5.14    5.52
  22  -5  -3   10.95    4.76
 -22   5  -3   12.19    5.71
  22  -5   4    5.71    5.62
 -22   5   4    7.62    3.71
 -22  -5  -4   -2.10    5.14
  22   5   4   -2.76    5.33
  22  -5  -4    4.38    3.90
 -22   5  -4    5.71    5.43
  22  -5   5    3.71    5.71
 -22   5   5   -2.10    2.86
 -22  -5  -5    5.43    6.19
  22   5   5   -0.19    6.19
  22  -5  -5    2.57    3.52
 -22   5  -5    1.14    5.05
  22  -5   6    4.76    6.19
 -22  -5  -6    0.10    6.00
  22   5   6    8.09    6.29
  22  -5  -6   19.43    4.19
 -22   5  -6    6.76    5.52
  22  -5   7   23.43    7.81
 -22  -5  -7    2.10    5.71
  22   5   7   15.62    6.95
 -22   5  -7    2.76    5.62
  22  -5   8    8.28    6.57
 -22  -5  -8   -0.19    6.38
  22   5   8    6.38    6.09
 -22   5  -8    2.67    5.81
  22  -5   9    5.81    6.00
 -22  -5  -9   -0.10    6.38
  22   5   9    2.95    6.48
 -22   5  -9    5.81    6.09
  22  -6   0    2.67    4.67
 -22   6   0    1.14    4.38
  22  -6   1    0.29    4.67
 -22   6   1   -0.19    4.19
  22  -6  -1    1.14    4.38
 -22   6  -1    3.62    4.86
  22  -6   2    4.76    5.05
 -22   6   2   -1.52    4.00
  22  -6  -2    1.62    4.29
 -22   6  -2    5.24    4.86
  22  -6   3    6.29    5.43
 -22   6   3    1.05    3.62
  22  -6  -3    4.95    4.38
 -22   6  -3   -1.52    4.86
  22  -6   4   -0.10    4.95
 -22   6   4    1.14    3.33
  22  -6  -4    5.43    4.29
 -22   6  -4    4.38    5.14
  22  -6   5    7.62    5.62
 -22  -6  -5   12.28    6.57
  22  -6  -5    0.29    3.81
 -22   6  -5   -1.71    4.57
  22  -6   6    3.43    5.43
 -22  -6  -6   -7.90    5.90
  22   6   6    0.67    5.71
 -22   6  -6    1.52    4.57
  22  -6   7    0.57    5.33
 -22  -6  -7    7.33    6.29
  22   6   7    2.00    6.00
 -22   6  -7    1.33    5.33
  22  -6   8    1.33    6.38
 -22  -6  -8   -3.81    5.52
  22   6   8   -0.48    6.19
 -22   6  -8   -5.71    5.05
  22  -6   9    6.86    6.48
 -22  -6  -9    2.76    6.29
  22   6   9    4.76    6.19
 -22   6  -9   -1.62  105.23
  22  -7   0   14.09    5.62
 -22   7   0   16.47    5.71
  22  -7   1    5.05    5.24
 -22   7   1    7.43    5.33
  22  -7  -1    4.09    4.86
 -22   7  -1   -0.10    4.76
  22  -7   2   23.90    6.76
 -22   7   2   25.05    6.00
  22  -7  -2   21.71    5.81
 -22   7  -2   20.76    6.57
  22  -7   3    3.52    5.14
 -22   7   3    7.81    4.19
  22  -7  -3   -2.19   10.00
 -22   7  -3    4.29    5.62
  22  -7   4    8.67    5.62
  22  -7  -4    3.52    4.48
 -22   7  -4    4.00    5.24
  22  -7   5    2.19    5.52
 -22   7  -5    1.90    5.71
  22  -7   6    5.71    5.43
 -22  -7  -6   17.52    7.14
 -22   7  -6    7.52    5.71
  22  -7   7   -1.90    5.33
 -22  -7  -7    9.33    9.14
 -22   7  -7    7.14    5.71
  22  -7   8   12.38    8.19
 -22  -7  -8   20.38    8.09
  22   7   8   19.52    7.62
 -22   7  -8   14.86    6.57
  22  -7   9    2.76    5.33
 -22  -7  -9   11.90    7.43
  22   7   9   -1.71   11.90
 -22   7  -9   -3.14    5.05
  22  -8   0    7.33    5.14
 -22   8   0   12.28    5.33
 -22   8   1   38.47    7.52
  22  -8  -1   53.52    9.14
  22  -8   2    0.10    4.95
 -22   8   2    5.43    4.29
  22  -8  -2    1.81    4.76
 -22   8  -2    2.57    5.14
  22  -8   3   25.52    7.05
  22  -8  -3    3.71    4.76
 -22   8  -3   17.81    6.29
  22  -8   4    1.90    5.24
 -22   8  -4    3.81    5.05
  22  -8   5    4.67    5.33
 -22   8  -5   10.48    6.00
  22  -8   6   -0.67    5.33
 -22   8  -6    9.43    6.09
  22  -8   7   48.57    9.81
 -22   8  -7   29.14    8.09
  22  -8   8    7.05    5.90
 -22  -8  -8   16.86    7.71
 -22   8  -8   21.62   16.38
  22  -9   0   -3.33    5.14
 -22   9   0    2.00    4.86
  22  -9   1    1.52    4.76
 -22   9   1    2.29    4.48
  22  -9  -1    1.05    4.95
 -22   9  -1   -2.57    4.86
  22  -9   2    6.19    5.33
  22  -9  -2    3.52    5.14
 -22   9  -2    5.33    5.33
  22  -9   3    2.67    5.05
 -22   9  -3    5.62    5.14
  22  -9   4   -2.29    5.14
 -22   9  -4   -0.10    5.24
  22  -9   5   -3.05    5.24
 -22   9  -5   -1.90    5.24
  22  -9   6   10.19    6.00
 -22   9  -6    0.00    5.43
  22  -9   7   -4.00    5.24
 -22   9  -7   -0.67    5.43
  22  -9   8   -3.43    5.05
 -22   9  -8   -0.67    5.24
  22 -10   0   -2.10    5.33
 -22  10   0    3.81    5.05
  22 -10   1   -2.57    5.24
  22 -10  -1   10.38    5.43
 -22  10  -1    8.57    5.43
  22 -10   2   -6.57    5.24
 -22  10  -2    2.67    5.24
  22 -10   3   13.05    6.00
 -22  10  -3   22.57    7.05
  22 -10   4    3.43   11.52
 -22  10  -4    1.43    5.05
  22 -10   5   12.76    6.38
 -22  10  -5   10.76    6.29
  22 -10   6    9.14    6.57
 -22  10  -6    3.43   19.43
  22 -10   7    0.00    4.95
 -22  10  -7    6.00    5.81
  22 -11   0   10.28    5.90
  22 -11   1   -0.29    5.71
 -22  11  -1    2.10    4.76
  22 -11   2    2.38    5.62
 -22  11  -2    1.33    5.43
  22 -11   3   -1.62    5.71
 -22  11  -3    5.52    5.90
  22 -11   4   -0.95    5.43
 -22  11  -4    1.14    5.43
  22 -11   5   -5.52    4.95
 -22  11  -5   -2.19    5.05
  22 -11   6    3.71    5.90
 -22  11  -6    6.76    5.71
  22 -11   7    1.81   11.52
 -22  11  -7    3.62    5.33
  22 -12   1   22.57    7.33
  22 -12   2    4.48    5.90
 -22  12  -2   -5.33    5.14
  22 -12   3    3.05   83.13
 -22  12  -3    1.71    5.24
  22 -12   4   -4.67    5.81
 -22  12  -4    4.95    5.62
  22 -12   5    7.43    5.81
 -22  12  -5    4.19    5.81
  22 -12   6    2.29    5.14
 -22  12  -6    8.86    6.09
  22 -13   2    9.52    6.19
  22 -13   3   -2.38    5.81
 -22  13  -3   -3.33    5.05
  22 -13   4   16.57    6.95
 -22  13  -4   14.57    6.57
  22 -13   5    5.05    5.90
 -22  13  -5    7.43    5.90
  22 -14   3    1.52    6.00
  22 -14   4   -0.76    5.90
 -22  14  -4   -1.14    5.33
  23   0   0   -0.86    4.38
 -23   0   0    2.00   25.33
  23   0   1   27.33    6.95
 -23   0   1   24.28    5.81
 -23   0  -1   31.23    6.86
  23   0   2    4.95    5.24
 -23   0   2   -1.33    3.52
  23   0  -2    4.19    4.19
 -23   0  -2    7.33    5.05
  23   0   3   61.04   10.76
 -23   0   3   49.14    7.05
  23   0  -3   45.90    7.33
 -23   0  -3   57.14   10.00
  23   0   4    1.05    5.52
 -23   0   4    0.38    3.05
  23   0  -4   11.52    4.29
 -23   0  -4    7.62    5.62
  23   0   5   -0.48    5.52
 -23   0  -5    6.95    6.00
  23   0   6   21.52    7.71
 -23   0  -6    9.81    6.19
  23   0   8   21.24    7.62
 -23   0  -8    8.48    6.48
  23   0   9   12.00    6.95
 -23   0  -9   59.71   40.57
  23   1   0    5.90    4.86
 -23  -1   0    6.38    4.48
 -23   1   0    4.67    4.00
  23  -1   1    0.10    4.76
 -23   1   1    2.00    3.81
  23   1  -1   -1.52    4.48
 -23  -1  -1    3.71    4.38
  23   1   1   -0.95    4.76
 -23  -1   1    3.24    4.09
  23  -1  -1    2.29    4.38
 -23   1  -1    3.71    4.57
  23  -1   2    3.52    5.05
 -23   1   2    2.76    3.71
  23   1  -2    7.62    4.67
 -23  -1  -2    6.95    4.86
  23   1   2   -1.71    5.05
 -23  -1   2   -2.00    3.62
  23  -1  -2    5.05    4.19
 -23   1  -2    4.95    4.76
  23  -1   3    1.24    5.24
 -23   1   3    0.67    3.14
 -23  -1  -3   -0.19    5.05
  23   1   3    5.52    6.19
 -23  -1   3    0.29    3.43
  23  -1  -3   -0.48    3.90
 -23   1  -3   -0.19    4.67
  23  -1   4    6.09    5.52
 -23   1   4    1.33    2.76
 -23  -1  -4   11.14    9.71
  23   1   4    4.00    5.71
 -23  -1   4    0.29    3.14
  23  -1  -4    1.52    3.43
 -23   1  -4    7.24    5.81
  23  -1   5    6.67   39.90
 -23   1   5   -2.38   13.90
 -23  -1  -5   -7.33    5.05
  23   1   5   -0.67    5.62
  23  -1  -5   -1.14    3.14
 -23   1  -5   -5.05    5.05
  23  -1   6    2.48    6.09
 -23   1   6    2.95    2.10
 -23  -1  -6   34.95    8.67
  23   1   6    8.95    6.29
  23  -1  -6    4.76    6.19
 -23   1  -6   -0.48    5.52
  23  -1   7    3.62    5.90
 -23   1   7    0.67    2.10
 -23  -1  -7   -1.05    5.24
  23   1   7    2.86    6.09
 -23   1  -7    3.43    5.33
  23  -1   8    4.29    6.00
 -23  -1  -8    4.57    6.09
  23   1   8   32.38    9.24
 -23   1  -8    2.10    5.71
  23  -1   9    5.43    7.90
 -23  -1  -9    2.19   10.95
  23   1   9   -2.57   24.47
 -23   1  -9    6.57    6.00
  23   2   0    4.48    4.76
 -23  -2   0   -0.95    4.38
  23  -2   0    2.00    4.57
 -23   2   0   -1.05    3.81
  23  -2   1   -0.38    4.67
 -23   2   1   -2.48    3.43
  23   2  -1    1.62    4.67
 -23  -2  -1    6.95    5.14
  23   2   1    2.48    5.14
  23  -2  -1    1.24    4.09
 -23   2  -1    3.52    4.38
  23  -2   2   -4.38    4.67
 -23   2   2   -1.43    3.52
 -23  -2  -2    2.29    4.95
  23   2   2   -2.38    5.05
 -23  -2   2    3.43    4.09
  23  -2  -2    0.19    4.00
 -23   2  -2    6.48    4.95
  23  -2   3    4.76    5.24
 -23   2   3   -1.81    3.24
 -23  -2  -3   -0.10    4.86
  23   2   3    4.19    5.62
  23  -2  -3   -2.67    3.90
 -23   2  -3    1.52    4.95
  23  -2   4   11.14    6.09
 -23   2   4    2.95    3.14
 -23  -2  -4    6.38    5.33
  23   2   4   11.24    6.09
  23  -2  -4    2.10    4.38
 -23   2  -4   -0.48    5.05
  23  -2   5   -2.10    5.14
 -23   2   5   -1.33    3.62
 -23  -2  -5   -4.38    7.24
  23   2   5    7.81    6.29
  23  -2  -5    3.71    3.24
 -23   2  -5    4.95    5.52
  23  -2   6    0.10    5.52
 -23   2   6    0.10    2.10
 -23  -2  -6    2.57   36.19
  23   2   6    1.62    5.62
  23  -2  -6    1.71    2.67
 -23   2  -6   -3.52    4.95
  23  -2   7   -0.57    6.00
 -23   2   7    4.09    2.29
 -23  -2  -7    1.33    5.81
  23   2   7    5.14    6.19
  23  -2  -7    2.67    2.19
 -23   2  -7   -0.76    5.52
  23  -2   8    9.14    6.48
 -23  -2  -8    0.76    5.62
  23   2   8   -4.76    5.62
 -23   2  -8   -3.05    6.00
  23  -2   9   -3.05    6.00
 -23  -2  -9    1.90    6.00
  23   2   9   -5.24    5.71
 -23   2  -9   -1.24    4.95
 -23  -3   0    4.09    4.67
  23  -3   0    5.05    4.67
 -23   3   0   -2.76    4.29
  23  -3   1    2.95    5.05
 -23   3   1    8.38    4.29
 -23  -3  -1    1.05    4.86
  23   3   1    6.00    5.33
  23  -3  -1    3.81    4.29
 -23   3  -1    9.24    4.95
  23  -3   2    5.90    5.24
 -23   3   2    3.62    3.90
 -23  -3  -2   11.33    5.71
  23   3   2   11.05    5.62
  23  -3  -2    5.33    4.48
 -23   3  -2    9.62    5.33
  23  -3   3    2.95    5.24
 -23   3   3    2.19    3.52
 -23  -3  -3    2.86    5.52
  23   3   3    8.19    5.81
  23  -3  -3    3.90    4.19
 -23   3  -3    3.33    5.05
  23  -3   4    6.95    6.00
 -23  -3  -4    0.76    5.14
  23   3   4   -1.71   17.81
  23  -3  -4   -2.57    3.62
 -23   3  -4   -1.62    4.86
  23  -3   5    0.19    5.90
 -23   3   5    2.67    2.57
 -23  -3  -5    0.95    5.43
  23   3   5    4.29    5.81
  23  -3  -5   -1.05    3.33
 -23   3  -5    7.52    5.62
  23  -3   6    8.67    6.48
 -23   3   6    8.57    2.48
 -23  -3  -6    1.33    5.52
  23   3   6   -3.71    5.52
  23  -3  -6    5.14   19.52
 -23   3  -6    2.19    5.81
  23  -3   7   10.28    6.67
 -23   3   7   -0.38    1.81
 -23  -3  -7    4.57    5.71
  23   3   7   -2.57    5.62
  23  -3  -7    0.57    2.29
 -23   3  -7   -2.57    5.05
  23  -3   8    1.71    8.09
 -23  -3  -8   -1.81    5.33
  23   3   8    9.43    6.48
 -23   3  -8    0.10    5.52
  23  -3   9    6.38    6.29
 -23  -3  -9   -1.14    5.33
  23   3   9    4.57    6.38
 -23   3  -9    4.09    6.67
  23  -4   0   -0.86    4.57
 -23   4   0    3.43    4.09
  23  -4   1    6.57    5.05
 -23   4   1   -3.81    3.52
 -23  -4  -1    0.10    4.76
  23  -4  -1    4.00  548.23
 -23   4  -1   -1.62    4.38
  23  -4   2    1.62   11.05
 -23   4   2    3.33   42.38
 -23  -4  -2    0.86    5.33
  23  -4  -2   -2.57    4.19
 -23   4  -2    6.57    5.14
  23  -4   3   -0.48    4.76
 -23   4   3    2.95    3.62
 -23  -4  -3    2.29    5.33
  23   4   3    2.86    5.81
  23  -4  -3    0.76    3.52
 -23   4  -3   -2.95    4.76
  23  -4   4    0.86    5.33
 -23   4   4    0.38    8.19
 -23  -4  -4   -2.76    5.05
  23   4   4   -2.67    5.62
  23  -4  -4    0.19    3.43
 -23   4  -4   -2.19    4.86
  23  -4   5    8.67    6.29
 -23   4   5    0.86    2.86
 -23  -4  -5   -1.71   33.43
  23   4   5   -0.57    5.62
  23  -4  -5    3.14  124.75
 -23   4  -5    2.19    5.24
  23  -4   6   -1.14    5.71
 -23   4   6    0.29    2.38
 -23  -4  -6    3.24    5.81
  23   4   6   -2.38    5.62
  23  -4  -6    1.05    3.24
 -23   4  -6   -1.14    5.33
  23  -4   7   -2.86    6.29
 -23  -4  -7    6.76    5.62
  23   4   7   -6.00    6.09
  23  -4  -7    3.14    2.48
 -23   4  -7    1.81    5.33
  23  -4   8   -0.10    6.00
 -23  -4  -8    4.76    5.33
  23   4   8   -1.62  287.97
 -23   4  -8   -2.38    5.33
  23  -4   9    2.67   62.85
 -23  -4  -9   -0.67    5.52
  23   4   9   -3.14    6.38
 -23   4  -9    0.19    6.48
  23  -5   0    0.95    4.48
 -23   5   0   -1.24    4.19
  23  -5   1   -2.38   67.99
 -23   5   1    2.00    7.62
  23  -5  -1    2.67    4.19
 -23   5  -1    4.09    4.67
  23  -5   2    1.43    5.24
 -23   5   2    5.05    4.29
  23  -5  -2   12.95    4.67
 -23   5  -2    5.71    5.05
  23  -5   3    2.10    5.14
 -23   5   3    0.38    3.52
 -23  -5  -3    5.33    5.33
  23  -5  -3   -0.48    7.14
 -23   5  -3    4.57    4.76
  23  -5   4   12.95    6.29
 -23   5   4    2.19    3.24
 -23  -5  -4   -0.10    6.00
  23   5   4    7.43    6.09
  23  -5  -4    9.05    4.19
 -23   5  -4   -0.10    4.95
 -23   5   5    3.52    3.14
 -23  -5  -5    3.24    6.00
  23   5   5    3.62    6.00
  23  -5  -5    8.00    3.71
 -23   5  -5    4.76    5.90
  23  -5   6   46.09    9.62
 -23  -5  -6    9.71    6.48
  23   5   6   18.09    7.62
  23  -5  -6   19.71    4.48
 -23   5  -6   10.09    6.38
  23  -5   7   19.81    7.33
 -23  -5  -7    6.86    6.29
  23   5   7   -1.62    5.90
 -23   5  -7    1.43    4.95
  23  -5   8    7.33    6.38
 -23  -5  -8   -2.29    5.71
  23   5   8   -1.43    6.00
 -23   5  -8    3.62    5.52
  23  -6   0   -3.90    4.38
 -23   6   0    5.33    4.67
  23  -6   1   -0.19    4.67
 -23   6   1    9.71    4.57
  23  -6  -1    2.48    4.29
 -23   6  -1   16.00    5.71
  23  -6   2   -0.19    5.05
 -23   6   2   -3.43    3.81
  23  -6  -2    3.71    4.29
 -23   6  -2    3.81    4.86
  23  -6   3   -4.19    4.57
 -23   6   3    2.76    3.81
  23  -6  -3    5.62    4.29
 -23   6  -3    0.57    4.67
  23  -6   4    1.71    5.24
 -23   6   4    3.05    3.71
  23  -6  -4   -1.71    3.71
 -23   6  -4    2.86    4.86
  23  -6   5   10.19    5.81
 -23  -6  -5   -1.05    5.43
  23  -6  -5    4.19    4.00
 -23   6  -5   -2.29    4.95
  23  -6   6   -3.71    5.62
 -23  -6  -6    3.71    5.62
  23   6   6    6.00    6.38
 -23   6  -6   -4.76    4.95
  23  -6   7   -5.62    5.24
 -23  -6  -7    7.14    6.09
  23   6   7    2.67    6.19
 -23   6  -7   19.33    7.05
  23  -6   8    0.95    5.71
 -23  -6  -8    2.38    5.81
  23   6   8   -2.57    5.52
 -23   6  -8   -0.48    5.05
  23  -7   0   -2.86    4.38
 -23   7   0   -1.14    4.48
  23  -7   1    0.19    4.67
 -23   7   1   -1.43    4.09
  23  -7  -1    3.33    7.62
 -23   7  -1   -1.24    4.57
  23  -7   2    1.05    5.14
 -23   7   2    2.00    4.09
  23  -7  -2    0.57    4.09
 -23   7  -2   -1.33    5.43
  23  -7   3   -4.00    5.52
 -23   7   3   -0.57    3.71
  23  -7  -3    1.52    4.38
 -23   7  -3   -1.24    4.95
  23  -7   4    2.48    4.95
  23  -7  -4   -5.05    4.09
 -23   7  -4    0.95    4.76
  23  -7   5    6.00    5.81
 -23   7  -5   -2.00    4.95
  23  -7   6    2.76    5.24
 -23  -7  -6    0.57    5.81
 -23   7  -6    1.52    5.05
  23  -7   7    2.00    5.33
 -23  -7  -7    4.29    5.90
 -23   7  -7    3.14    5.52
  23  -7   8   -3.33    5.24
 -23  -7  -8    1.52    6.00
  23   7   8   -4.19    6.29
 -23   7  -8    3.14   37.90
  23  -8   0    0.38    4.48
 -23   8   0   -0.19    4.48
  23  -8   1    0.48    4.67
 -23   8   1    3.14    4.67
  23  -8  -1   -0.95    4.19
 -23   8  -1    8.57    5.14
  23  -8   2   -0.19    4.76
 -23   8   2    2.95    4.48
  23  -8  -2    2.86    4.76
 -23   8  -2   -1.24    4.67
  23  -8   3   17.52    6.38
  23  -8  -3    2.19    4.76
 -23   8  -3   12.19    6.09
  23  -8   4   10.38    5.81
 -23   8  -4   -2.38    5.24
  23  -8   5    3.71    5.52
 -23   8  -5    2.95    5.33
  23  -8   6    1.05    4.95
 -23   8  -6    1.05    5.14
  23  -8   7   -0.29    5.33
 -23   8  -7    4.38    5.71
  23  -9   0   -2.95    4.95
 -23   9   0    2.10    4.76
  23  -9   1   -1.33    4.67
 -23   9   1   -0.29    4.57
  23  -9  -1    4.57    5.33
 -23   9  -1    0.48    4.67
  23  -9   2    4.29    5.05
  23  -9  -2    3.90    4.86
 -23   9  -2    0.00    5.33
  23  -9   3   -3.05   51.04
 -23   9  -3    7.05    5.81
  23  -9   4    0.57    5.33
 -23   9  -4   -6.09    5.05
  23  -9   5   -1.71    5.33
 -23   9  -5   -1.81   16.95
  23  -9   6   -0.10    5.24
 -23   9  -6   -2.76    5.05
  23  -9   7    1.90    6.00
 -23   9  -7    0.76    5.71
  23 -10   0    2.57    5.24
 -23  10   0   -2.10    4.67
  23 -10   1    6.48    5.81
  23 -10  -1    3.81    5.24
 -23  10  -1    6.95    5.52
  23 -10   2   -1.52    4.86
 -23  10  -2    0.86    4.95
  23 -10   3   11.71    6.09
 -23  10  -3    6.95    5.33
  23 -10   4   -6.38    4.95
 -23  10  -4   -6.86    5.05
  23 -10   5    7.43    5.81
 -23  10  -5    2.38    4.95
  23 -10   6   -3.05    5.14
 -23  10  -6    2.10    5.14
  23 -11   0   -0.29    5.43
  23 -11   1   -1.90    5.33
 -23  11  -1    3.33    5.24
  23 -11   2    7.33    5.81
 -23  11  -2   -6.29    5.05
  23 -11   3   -1.81    4.86
 -23  11  -3    4.29    5.62
  23 -11   4    2.19   23.14
 -23  11  -4    1.62    5.52
  23 -11   5    1.81    5.14
 -23  11  -5   -0.48    4.95
  23 -12   1   -1.62    5.33
  23 -12   2    5.05    5.71
 -23  12  -2    0.67    5.24
  23 -12   3   -0.29    5.52
 -23  12  -3    2.10    5.14
  23 -12   4    0.95    5.71
 -23  12  -4   -2.00    7.14
  23 -13   2   18.66    7.52
  23 -13   3    7.05    7.52
 -23  13  -3    7.81    6.48
  24   0   0    2.29    4.67
 -24   0   0    0.10    4.19
  24   0   1   18.19    6.67
 -24   0   1   28.00    6.19
  24   0  -1    3.24    4.67
 -24   0  -1   16.19    5.71
  24   0   2    6.09    5.33
 -24   0   2    6.86    3.90
  24   0  -2    5.81    4.76
 -24   0  -2    2.29    5.05
  24   0   3   36.66    8.48
 -24   0   3   61.33    8.28
  24   0  -3   71.42    9.81
  24   0   4   11.05    6.57
 -24   0   4   10.09    3.62
  24   0  -4   14.57    4.57
 -24   0  -4    9.43    6.09
  24   0   5    3.52    5.71
 -24   0   5    6.57    3.14
 -24   0  -5   -2.10    5.14
  24   0   6   16.09    7.14
 -24   0   6   12.09    3.05
 -24   0  -6    2.00   17.71
  24   0   7   91.51   14.28
 -24   0  -7   67.23   11.90
  24   0   8   12.67    7.24
 -24   0  -8    3.62    6.09
  24   1   0   17.52    5.62
 -24  -1   0   11.71    5.05
  24  -1   0   10.00    5.33
 -24   1   0   10.00    4.76
  24  -1   1   -2.29    4.57
 -24   1   1    4.29    3.90
  24   1  -1    2.67   54.28
 -24  -1  -1   -1.33    4.48
  24   1   1    0.86    4.67
 -24  -1   1    1.71    4.00
  24  -1  -1    4.09    4.57
 -24   1  -1    2.95    8.09
  24  -1   2    3.62    5.14
 -24   1   2    2.00   29.90
  24   1  -2   -0.38    4.09
 -24  -1  -2    5.33    4.57
  24   1   2    1.62    5.24
 -24  -1   2   -3.62   12.67
  24  -1  -2   -0.57    4.38
 -24   1  -2    6.67    5.05
 -24   1   3   -0.29    3.33
  24   1  -3    1.33    3.90
 -24  -1  -3   10.38    5.71
  24   1   3    2.76    5.62
 -24  -1   3    2.19    3.71
  24  -1  -3    0.95    6.29
 -24   1  -3   21.62    6.57
  24  -1   4   -4.29    5.24
 -24   1   4    2.57    3.05
 -24  -1  -4   -0.48    4.95
  24   1   4    5.81    5.71
 -24  -1   4    2.76    3.24
  24  -1  -4   -0.10    3.71
 -24   1  -4    1.71    4.86
  24  -1   5    3.81    5.43
 -24   1   5   -0.38    2.57
 -24  -1  -5    0.67    5.05
  24   1   5    4.48    5.71
  24  -1  -5   10.76    5.33
 -24   1  -5    4.29    5.52
  24  -1   6   -1.05    5.52
 -24   1   6    1.62    2.19
 -24  -1  -6    2.00    5.71
  24   1   6   -2.19    5.05
  24  -1  -6    3.52    3.14
 -24   1  -6    1.14    5.33
  24  -1   7    3.52    5.62
 -24   1   7    1.90    2.00
 -24  -1  -7    3.43    5.52
  24   1   7   -2.38    5.62
 -24   1  -7    3.90    6.00
  24  -1   8    5.33    6.09
 -24  -1  -8   -1.24    5.33
  24   1   8    8.28    6.48
 -24   1  -8    0.67    5.43
  24   2   0    1.14    4.76
 -24  -2   0   -1.05    4.48
  24  -2   0    5.71    4.86
 -24   2   0    4.38    4.29
  24  -2   1    4.09    4.67
 -24   2   1   -3.62    3.62
  24   2  -1    0.67    4.67
 -24  -2  -1    0.10    5.71
  24   2   1   10.19    5.43
 -24  -2   1   15.71    5.33
  24  -2  -1   -0.67    4.00
 -24   2  -1    9.33    4.95
  24  -2   2   -3.90    4.67
 -24   2   2    3.71    3.71
 -24  -2  -2    3.71    4.76
  24   2   2    6.19    5.33
 -24  -2   2    1.14    3.81
  24  -2  -2    2.48    4.00
 -24   2  -2    0.29    4.76
  24  -2   3    5.90    5.43
 -24   2   3    1.43    3.33
 -24  -2  -3   -0.38    4.95
  24   2   3    5.81    6.19
  24  -2  -3    1.52    6.00
 -24   2  -3   -0.86    4.76
  24  -2   4    4.95    5.52
 -24   2   4    4.86    3.05
 -24  -2  -4    8.09    5.43
  24   2   4   -0.48    5.43
  24  -2  -4    5.71    3.81
 -24   2  -4    4.57    5.33
  24  -2   5    7.24    5.52
 -24   2   5    4.29    2.86
 -24  -2  -5   -4.09    4.95
  24   2   5    4.09    5.90
  24  -2  -5    1.33    3.43
 -24   2  -5    1.81    5.14
  24  -2   6    1.90    5.52
 -24   2   6   -0.10    4.67
 -24  -2  -6    5.62    5.52
  24   2   6    3.05    6.19
  24  -2  -6    0.57    3.71
 -24   2  -6    1.14    5.43
  24  -2   7    7.43    5.43
 -24   2   7   -0.38    1.90
 -24  -2  -7   -5.24    5.33
  24   2   7    0.67    5.71
  24  -2  -7    1.71  158.17
 -24   2  -7    3.81    5.52
  24  -2   8    3.71    6.67
 -24   2   8    2.48    1.52
 -24  -2  -8    9.52    6.86
  24   2   8   17.14    8.28
 -24   2  -8   -2.19    6.38
 -24  -3   0    5.90    4.76
  24  -3   0    4.57    4.86
 -24   3   0    1.43    4.29
  24  -3   1    2.57    5.24
 -24   3   1    0.29    3.81
 -24  -3  -1    1.90    4.95
  24   3   1    8.09    5.52
 -24  -3   1    1.33    3.90
  24  -3  -1    1.71    4.38
 -24   3  -1    2.29    4.38
  24  -3   2    6.00    5.33
 -24   3   2    2.67    3.90
 -24  -3  -2    1.71    5.14
  24   3   2    1.43    5.33
  24  -3  -2    1.43    5.71
 -24   3  -2    2.48    4.76
  24  -3   3    9.71    5.90
 -24   3   3   -0.19    3.33
 -24  -3  -3    4.19    5.52
  24   3   3    3.24    5.43
  24  -3  -3    3.43    4.19
 -24   3  -3    8.09    5.24
  24  -3   4   12.86    6.19
 -24   3   4   11.33    3.81
 -24  -3  -4   17.62    6.67
  24   3   4   17.05    6.57
  24  -3  -4    8.28    4.19
 -24   3  -4   16.76    6.38
  24  -3   5    3.81    5.33
 -24   3   5    1.90    3.05
 -24  -3  -5    0.19    4.95
  24   3   5   -4.76    5.62
  24  -3  -5    2.19    3.43
 -24   3  -5    4.00    5.24
  24  -3   6    5.33    6.19
 -24   3   6    3.43    2.29
 -24  -3  -6   -4.19    4.95
  24   3   6   -6.38    6.86
  24  -3  -6    4.38    3.14
 -24   3  -6   -8.38    4.86
  24  -3   7    7.62    6.29
 -24   3   7    3.90    2.10
 -24  -3  -7    8.19    5.90
  24   3   7   -2.00    5.81
  24  -3  -7   -0.38    2.38
 -24   3  -7   -1.43   69.52
  24  -4   0   -6.09    4.57
 -24   4   0    0.86    9.52
  24  -4   1    5.52    5.05
 -24   4   1    2.67    3.90
 -24  -4  -1    0.38    4.76
  24  -4  -1   -0.95   12.19
 -24   4  -1   -1.62    4.00
  24  -4   2   -0.57    5.24
 -24   4   2   -1.43    3.43
 -24  -4  -2    0.48    5.05
  24   4   2    0.86    5.24
  24  -4  -2    5.81    4.38
 -24   4  -2    1.62    4.57
  24  -4   3    6.00    5.62
 -24   4   3    4.38    3.52
 -24  -4  -3   -3.71    5.14
  24   4   3    2.95    5.71
  24  -4  -3    0.38    4.19
 -24   4  -3    5.43    4.95
  24  -4   4   -3.24    5.33
 -24   4   4    6.48    3.24
 -24  -4  -4   -5.90    5.43
  24   4   4   -0.19   10.00
  24  -4  -4    0.48    3.52
 -24   4  -4    2.76    5.14
  24  -4   5   -1.71    5.14
 -24   4   5    3.90    2.86
 -24  -4  -5    1.52    5.71
  24   4   5   -0.76    5.81
  24  -4  -5   -0.57   11.05
 -24   4  -5    5.62    5.43
  24  -4   6   -2.67    5.71
 -24   4   6    1.62    2.38
 -24  -4  -6    2.29   47.14
  24   4   6    4.67    6.38
  24  -4  -6    2.48    2.95
 -24   4  -6   -1.62    4.95
  24  -4   7    1.14    5.71
 -24   4   7    2.38    2.29
 -24  -4  -7    0.19    5.24
  24   4   7   11.24    6.95
  24  -4  -7    1.81    2.76
 -24   4  -7    4.29    5.71
  24  -5   0   43.33    8.09
 -24   5   0   20.57    5.81
  24  -5   1    3.71    4.86
 -24   5   1    0.76    3.81
  24  -5  -1    0.67    4.19
 -24   5  -1    0.00    4.19
  24  -5   2   13.43    6.00
 -24   5   2    5.81    4.00
  24  -5  -2    0.48    4.09
 -24   5  -2   -2.67    4.38
  24  -5   3    6.76    5.81
 -24   5   3   19.90    5.24
 -24  -5  -3    4.00    5.62
  24  -5  -3   21.62    5.52
 -24   5  -3   11.71    5.81
  24  -5   4   19.14    8.38
 -24   5   4   45.14    6.86
 -24  -5  -4   34.47    8.48
  24   5   4   32.76    8.38
  24  -5  -4   51.23    7.71
 -24   5  -4   65.80   12.00
  24  -5   5    9.24    6.09
 -24   5   5   12.67    3.71
 -24  -5  -5   28.95    7.81
  24   5   5   32.47    8.48
  24  -5  -5   10.38    4.09
 -24   5  -5    9.43    6.29
  24  -5   6    8.38    6.29
 -24   5   6    2.67    2.67
 -24  -5  -6    7.52    6.09
  24   5   6   -3.05    5.43
  24  -5  -6    0.10    3.14
 -24   5  -6    4.09    5.71
  24  -5   7   14.76    7.14
 -24  -5  -7   36.09    9.43
  24   5   7   14.47   14.76
 -24   5  -7    9.90    6.38
  24  -6   0   15.05    5.52
 -24   6   0   10.48    4.95
  24  -6   1    2.10    4.86
 -24   6   1    2.76    4.19
  24  -6  -1    2.48    4.38
 -24   6  -1    0.48    4.57
  24  -6   2   -0.86    5.05
 -24   6   2    2.76    4.19
  24  -6  -2    4.48    4.29
 -24   6  -2   -2.57    4.67
  24  -6   3   -1.14    4.76
 -24   6   3    6.95    4.00
  24  -6  -3    0.86    4.00
 -24   6  -3    0.38    4.86
  24  -6   4    6.09    5.24
 -24   6   4    3.43    3.62
 -24  -6  -4    2.67    5.62
  24  -6  -4    0.48    4.09
 -24   6  -4   -3.43   29.71
  24  -6   5    0.10    5.43
 -24   6   5   -1.05    2.95
 -24  -6  -5    1.62    5.71
  24  -6  -5    2.00   50.38
 -24   6  -5   -0.10    5.24
  24  -6   6   -1.24    5.90
 -24  -6  -6   -1.33    5.52
  24   6   6    9.24    6.09
  24  -6  -6    2.10    3.52
 -24   6  -6    2.19    5.24
  24  -6   7    0.76    6.09
 -24  -6  -7   -3.52    9.52
  24   6   7    3.33    6.38
 -24   6  -7    6.00    6.29
  24  -7   0   16.19    5.81
 -24   7   0    5.14    4.76
  24  -7   1    6.48    5.05
 -24   7   1    0.38    4.57
  24  -7  -1    8.57    5.24
 -24   7  -1    0.19    4.86
  24  -7   2   14.38    6.19
 -24   7   2    4.48    4.57
  24  -7  -2    6.09   20.76
 -24   7  -2    7.62    5.33
  24  -7   3   -5.33    4.57
 -24   7   3    1.24    4.09
  24  -7  -3    0.29    4.19
 -24   7  -3    5.05    5.33
  24  -7   4    4.09    5.33
 -24   7   4    3.33    3.62
  24  -7  -4   -0.29    4.29
 -24   7  -4    2.10    5.14
  24  -7   5    6.00    5.33
  24  -7  -5    1.24    4.00
 -24   7  -5    3.33    5.33
  24  -7   6   -0.10    5.33
 -24  -7  -6   -6.38    5.24
 -24   7  -6    0.67    5.14
  24  -8   0   11.33    5.33
 -24   8   0   15.05    5.62
  24  -8   1    7.05    5.14
 -24   8   1   17.05    5.62
  24  -8  -1   11.14    5.24
 -24   8  -1   11.24    5.52
  24  -8   2    1.81    5.14
 -24   8   2    6.09    4.38
  24  -8  -2    5.90    5.33
 -24   8  -2   -0.19    4.86
  24  -8   3    3.52    5.24
 -24   8   3   10.19    4.67
  24  -8  -3    9.90    5.05
 -24   8  -3    1.24   13.14
  24  -8   4    3.43    5.14
  24  -8  -4    3.71    4.57
 -24   8  -4    4.00    5.43
  24  -8   6    6.57    6.67
 -24   8  -6    5.14    5.71
  24  -9   0    3.90    4.76
 -24   9   0    2.67    4.86
  24  -9   1    3.62    4.95
 -24   9   1    8.76    4.95
  24  -9  -1    4.00    5.05
 -24   9  -1   -2.00    4.95
  24  -9   2   -1.71    4.76
 -24   9   2    5.81    4.57
  24  -9  -2   -2.86    4.48
 -24   9  -2    5.62    5.14
  24  -9   3   10.00    5.52
  24  -9  -3    6.09    4.76
 -24   9  -3    8.19    5.43
  24  -9   4    0.57    5.14
 -24   9  -4    3.90    5.14
  24  -9   5    3.43    5.14
 -24   9  -5    4.57    7.24
  24 -10   0    2.67    5.24
 -24  10   0    3.05    4.95
  24 -10   1    4.86    5.43
 -24  10   1    7.81    5.05
  24 -10  -1    3.05    5.33
 -24  10  -1    3.14    5.14
  24 -10   2    6.48    5.43
  24 -10  -2   -0.48    8.95
 -24  10  -2    4.95    5.43
  24 -10   3   16.47    6.57
 -24  10  -3   10.00    6.09
  24 -10   4   17.90    6.76
 -24  10  -4    7.71    6.00
  24 -11   0   -1.62    5.33
 -24  11   0    1.90    4.86
  24 -11   1    0.19    5.43
  24 -11  -1   -1.33    5.33
 -24  11  -1   -2.95    4.67
  24 -11   2   -2.29    5.33
 -24  11  -2    6.95    5.52
  24 -11   3   -1.05    5.52
 -24  11  -3    3.52    6.48
  24 -12   0    2.48    5.62
 -24  12  -1   10.28    8.38
  25   0   0    2.00    4.57
 -25   0   0    2.67    4.38
  25   0   1   74.56   11.43
  25   0  -1  100.47   13.05
 -25   0  -1   64.76   10.09
  25   0   2   -0.29    5.14
 -25   0   2    0.95    3.33
  25   0  -2   -2.67    4.00
 -25   0  -2    0.48    4.57
  25   0   3    3.71    5.24
 -25   0   3    2.57   32.47
  25   0  -3    2.57    6.29
 -25   0  -3   10.00    5.81
  25   0   4    4.19    5.43
 -25   0   4    0.38    2.95
  25   0  -4    3.43    4.00
 -25   0  -4   12.47    5.81
  25   0   5    1.43    5.62
 -25   0  -5   14.38    6.29
  25   0   6    9.81   88.09
 -25   0   6    2.86    2.76
 -25   0  -6    5.52    6.00
  25   1   0    4.00    4.67
 -25  -1   0    5.62    4.38
  25  -1   0   12.00    5.43
 -25   1   0    1.05    4.00
  25  -1   1    9.33    5.43
 -25   1   1    4.86    4.09
  25   1  -1    5.71    4.76
 -25  -1  -1    1.33    4.38
  25   1   1    2.57    5.05
 -25  -1   1    0.57    4.09
  25  -1  -1   -0.19    4.48
 -25   1  -1    8.95    4.95
  25  -1   2    3.24    5.14
 -25   1   2   -0.86    3.52
  25   1  -2    1.33    4.19
 -25  -1  -2    2.00    4.48
  25   1   2    5.24    5.43
 -25  -1   2    2.86    3.90
  25  -1  -2   -1.52    3.90
 -25   1  -2   -0.48    4.76
  25  -1   3    3.90    5.24
 -25   1   3    5.52    3.43
  25   1  -3   -5.33    3.90
 -25  -1  -3   -3.62    4.57
  25   1   3    3.71    5.43
 -25  -1   3    0.86    3.62
  25  -1  -3    5.43    4.09
 -25   1  -3    2.00    4.76
  25  -1   4    0.86    5.43
 -25   1   4    2.67    3.14
 -25  -1  -4    0.57    5.43
  25   1   4    6.86    5.52
 -25  -1   4    0.67    3.24
  25  -1  -4    7.71    4.19
 -25   1  -4    0.48    5.05
  25  -1   5   10.19    6.09
 -25   1   5   -0.48    2.67
 -25  -1  -5    3.43    5.05
  25   1   5    6.19    5.90
  25  -1  -5    0.00    3.43
 -25   1  -5    0.10    5.33
  25  -1   6   -4.09    5.24
 -25   1   6    1.05   11.62
 -25  -1  -6    1.81    5.52
  25   1   6    1.90    5.90
  25  -1  -6    0.95    3.05
 -25   1  -6   -7.52    4.86
  25   2   0    1.43    4.67
 -25  -2   0   -0.19    4.38
  25  -2   0    3.05    4.19
 -25   2   0    0.86    4.19
  25  -2   1    1.90    4.67
 -25   2   1   -0.67    3.81
  25   2  -1   11.90    5.43
 -25  -2  -1    0.57    4.67
  25   2   1    0.67    5.14
 -25  -2   1    5.90    4.48
  25  -2  -1    7.90    4.48
 -25   2  -1    5.71    4.76
  25  -2   2    5.24  666.60
 -25   2   2   10.86    4.29
 -25  -2  -2    8.57    5.14
  25   2   2   19.71    6.38
 -25  -2   2    3.71    4.00
  25  -2  -2    3.05    7.52
 -25   2  -2    0.29    4.57
  25  -2   3    1.14    4.86
 -25   2   3    3.43    3.33
 -25  -2  -3    3.33    4.95
  25   2   3   -0.76    5.14
  25  -2  -3   -1.52    3.90
 -25   2  -3    3.81    4.57
  25  -2   4    5.71    5.52
 -25   2   4    2.67    3.05
 -25  -2  -4    6.76    5.43
  25   2   4    0.76    5.43
  25  -2  -4    2.76   28.76
 -25   2  -4    4.95    5.33
  25  -2   5    2.10    5.71
 -25   2   5    1.90    3.33
 -25  -2  -5    9.14    5.62
  25   2   5   -3.24    5.43
  25  -2  -5    0.00    3.33
 -25   2  -5    0.57    4.95
  25  -2   6    5.33    5.71
 -25   2   6    2.38    2.57
 -25  -2  -6   -0.67    8.00
  25   2   6   11.43   49.90
  25  -2  -6    4.29    3.33
 -25   2  -6    3.05   34.47
 -25  -3   0   14.09    5.52
  25  -3   0    2.00    5.05
 -25   3   0   -3.33    4.00
  25  -3   1    3.43    4.86
 -25   3   1    6.00    4.38
 -25  -3  -1    3.33    4.76
  25   3   1   -5.90   12.67
 -25  -3   1    0.95    4.29
  25  -3  -1   -2.29    4.19
 -25   3  -1    2.57    4.48
  25  -3   2    1.14    4.76
 -25   3   2    0.95    3.90
 -25  -3  -2    1.24    4.95
  25   3   2    3.05    5.24
  25  -3  -2    2.10   24.95
 -25   3  -2    0.29    4.67
  25  -3   3   10.00    5.81
 -25   3   3    6.38    4.00
 -25  -3  -3   -1.52    5.33
  25   3   3   -6.38    4.95
  25  -3  -3    3.33    4.48
 -25   3  -3    4.19    4.95
  25  -3   4   10.86    6.09
 -25   3   4   10.67    3.71
 -25  -3  -4   11.71    6.00
  25   3   4    9.14    6.29
  25  -3  -4   10.95  223.98
 -25   3  -4    3.90    5.52
  25  -3   5   10.19    5.90
 -25   3   5    0.38    2.86
 -25  -3  -5    1.05    4.95
  25   3   5    2.95    5.62
  25  -3  -5    2.95    3.90
 -25   3  -5   -0.57    5.05
  25  -3   6    7.05    5.90
 -25   3   6    1.33    2.57
 -25  -3  -6    4.67   24.38
  25   3   6    2.95    6.19
  25  -3  -6    3.90    4.19
 -25   3  -6    4.48    6.00
  25  -4   0   -1.62   67.14
 -25   4   0    4.00    4.38
  25  -4   1    5.62    5.14
 -25   4   1   -2.38    3.90
 -25  -4  -1    2.29    4.76
  25  -4  -1   -0.57    4.48
 -25   4  -1   -3.71    4.19
  25  -4   2   -1.14    4.95
 -25   4   2    0.67    3.81
 -25  -4  -2    5.24   29.24
  25   4   2    2.00    5.14
  25  -4  -2   -1.62    4.38
 -25   4  -2   -2.76    4.86
  25  -4   3    2.29    5.05
 -25   4   3   -0.57    4.95
 -25  -4  -3   -0.10    4.95
  25   4   3    6.09    5.81
  25  -4  -3   -1.90    4.48
 -25   4  -3    1.05    5.05
  25  -4   4   -0.95    5.33
 -25   4   4   -0.76    3.33
 -25  -4  -4    2.76    5.33
  25   4   4    2.95    5.43
  25  -4  -4    2.48    3.90
 -25   4  -4   -0.29    5.14
  25  -4   5    4.38    5.90
 -25   4   5   -2.00    4.09
 -25  -4  -5   -1.43    5.52
  25   4   5   -2.95    5.62
  25  -4  -5   -3.05    3.24
 -25   4  -5    3.62    5.52
  25  -4   6    3.24    5.71
 -25   4   6   -0.10    6.09
 -25  -4  -6    3.14    5.71
  25   4   6   -1.33   11.81
  25  -4  -6    5.14    3.71
 -25   4  -6    4.09    5.52
  25  -5   0    4.67    5.05
 -25   5   0   -0.38    4.00
  25  -5   1   -0.10    4.95
 -25   5   1    4.57    4.29
  25  -5  -1   12.76    5.14
 -25   5  -1    6.29    4.76
  25  -5   2   16.66    6.48
 -25   5   2    0.29    3.71
 -25  -5  -2   -3.43    4.95
  25  -5  -2    3.71    4.09
 -25   5  -2   -1.90    4.38
  25  -5   3    6.38    5.90
 -25   5   3    0.76    3.71
 -25  -5  -3    7.90  146.75
  25  -5  -3    3.24    9.33
 -25   5  -3    1.71    4.86
  25  -5   4   40.66    9.05
 -25   5   4   37.62    6.29
 -25  -5  -4   18.86    7.05
  25   5   4   37.14    8.67
  25  -5  -4   47.90    7.43
 -25   5  -4   39.81    8.57
  25  -5   5    3.52    6.00
 -25   5   5    1.14    2.95
 -25  -5  -5    0.48   15.14
  25   5   5    2.19    5.43
  25  -5  -5    2.67   35.90
 -25   5  -5   -4.57    4.76
  25  -6   0    2.67    4.67
 -25   6   0    1.52    4.38
  25  -6   1    6.38    5.05
 -25   6   1    4.67    4.57
  25  -6  -1    4.29    4.48
 -25   6  -1    0.76    4.38
  25  -6   2    0.67    4.76
 -25   6   2    0.10    3.90
  25  -6  -2   -3.14    4.09
 -25   6  -2   -6.09    4.29
  25  -6   3    3.05    4.86
 -25   6   3    5.52    4.00
  25  -6  -3   -1.05    4.00
 -25   6  -3   -2.00    4.38
  25  -6   4    5.24    5.52
 -25   6   4    2.48    3.52
 -25  -6  -4   -1.62    5.24
  25  -6  -4    6.95    4.48
 -25   6  -4    0.76    4.95
  25  -6   5    4.19    5.71
 -25   6   5    2.29    3.24
 -25  -6  -5    2.86    5.81
  25  -6  -5   -0.95   11.05
 -25   6  -5    3.62    4.86
  25  -7   0   -2.10    4.48
 -25   7   0    0.95    4.29
  25  -7   1   -6.86    4.19
 -25   7   1    7.05    4.57
  25  -7  -1    2.86    4.67
 -25   7  -1    2.48    4.38
  25  -7   2    1.43    4.95
 -25   7   2    0.57    3.90
  25  -7  -2    1.24    8.76
 -25   7  -2    0.95    4.86
 -25   7   3   26.09    6.00
  25  -7  -3   19.90    5.62
 -25   7  -3   33.62    8.09
  25  -7   4    7.43    5.71
 -25   7   4   -1.43    4.67
  25  -7  -4    0.19    4.38
 -25   7  -4    1.33    4.76
  25  -8   0    1.62    4.48
 -25   8   0   17.52    6.00
  25  -8   1   30.38    7.33
 -25   8   1   35.62    7.62
  25  -8  -1   33.71    7.24
 -25   8  -1   32.47    7.33
  25  -8   2   24.09    6.86
 -25   8   2   23.90    6.00
  25  -8  -2   25.62    6.38
 -25   8  -2   11.33    6.00
  25  -8   3    0.86    5.05
 -25   8   3    3.62    4.29
  25  -8  -3    5.52   10.19
 -25   8  -3    3.43    5.14
 -25   8  -4   27.14    8.76
  25  -9   0    0.48    4.57
 -25   9   0    0.48  488.05
  25  -9   1   -0.76    4.95
 -25   9   1    4.38    4.57
  25  -9  -1   -1.81  297.49
 -25   9  -1    1.24    7.05
  25  -9   2    5.81    5.71
 -25   9   2    2.95   14.28
  25  -9  -2    1.05    6.09
 -25   9  -2    2.57   17.62
  26   0   0  141.70   17.33
 -26   0   0  120.18   15.05
  26   0   1    9.24    6.00
 -26   0   1   10.67    4.76
  26   0  -1   19.52   54.66
 -26   0  -1    7.24    4.95
  26   0   2    9.81    5.62
 -26   0   2    9.52    4.29
  26   0  -2    9.71    4.86
 -26   0  -2   12.00    5.33
  26   0   3   -1.14    5.24
 -26   0   3    2.10    3.33
  26   0  -3    5.33   82.28
 -26   0  -3   11.71    5.71
  26   0  -4   -1.05    3.71
 -26   0  -4    0.38    5.52
  26   1   0    1.14   72.28
 -26  -1   0   -0.29    4.09
  26  -1   0    2.48    4.57
 -26   1   0    0.10    4.29
  26  -1   1    3.81    5.33
 -26   1   1    0.29    4.00
  26   1  -1    3.71    4.76
 -26  -1  -1    4.00    4.57
  26   1   1    5.71    5.24
 -26  -1   1    2.67    4.19
  26  -1  -1    1.43    4.48
 -26   1  -1    0.10    4.29
  26  -1   2    3.33    5.05
 -26   1   2   -1.62    3.62
  26   1  -2    2.19    4.29
 -26  -1  -2    0.76    4.19
  26   1   2    6.95    5.71
 -26  -1   2    1.90    3.90
  26  -1  -2    1.05    4.09
 -26   1  -2    5.43    4.86
  26  -1   3    3.81    5.33
 -26   1   3    1.05    3.43
  26   1  -3    8.67    4.48
 -26  -1  -3    6.67    5.24
  26   1   3    2.38    5.52
 -26  -1   3    2.95    3.90
  26  -1  -3   -6.29    3.81
 -26   1  -3   -0.95    4.76
  26  -1   4   -1.33    5.24
 -26   1   4    1.05    9.33
 -26  -1  -4   -0.95    4.76
  26   1   4    5.05  435.10
 -26  -1   4   -0.57   22.47
  26  -1  -4    1.90    5.71
 -26   1  -4   -2.00    4.95
  26   2   0    5.05    5.05
 -26  -2   0    1.90    4.76
  26  -2   0    8.57    4.95
 -26   2   0    2.67    4.38
  26  -2   1   -1.14    4.48
 -26   2   1   -0.67    3.71
  26   2  -1    4.09    4.86
 -26  -2  -1   -0.57    4.67
  26   2   1    0.19    5.24
 -26  -2   1   -2.38    4.00
  26  -2  -1    3.81    4.57
 -26   2  -1    3.14    4.48
  26  -2   2    8.95    5.62
 -26   2   2    6.48    4.00
 -26  -2  -2    5.33    5.24
  26   2   2    3.90    5.33
 -26  -2   2    6.38    4.76
  26  -2  -2    6.29    4.19
 -26   2  -2    2.38    4.95
  26  -2   3   -2.57    4.76
 -26   2   3    0.67    3.24
 -26  -2  -3   -0.86    4.57
  26   2   3    0.67   51.14
 -26  -2   3    3.62    4.48
  26  -2  -3    5.24   21.43
 -26   2  -3   -0.48    4.67
  26  -2   4   -2.10   11.62
 -26   2   4   -2.38    3.05
 -26  -2  -4    1.43    6.00
  26   2   4    0.76    5.52
  26  -2  -4   -1.62    7.43
 -26   2  -4    1.62    5.05
  26   3   0    4.57    5.05
 -26  -3   0    5.71    4.86
  26  -3   0    9.05    5.05
 -26   3   0    4.48    4.48
  26  -3   1    6.76    5.43
 -26   3   1    4.00    4.48
 -26  -3  -1   -2.29    4.67
  26   3   1    8.38    5.62
 -26  -3   1   10.19    5.05
  26  -3  -1    8.95    4.86
 -26   3  -1    7.52    5.05
  26  -3   2   16.09    6.29
 -26   3   2   16.38    4.95
 -26  -3  -2   10.57    5.62
  26   3   2   12.38    6.00
  26  -3  -2    3.52    4.29
 -26   3  -2   11.24    5.62
  26  -3   3   -0.67    5.62
 -26   3   3   -0.48    3.52
 -26  -3  -3    1.71    5.05
  26   3   3    8.48   26.28
  26  -3  -3    2.00    5.90
 -26   3  -3   -1.81    4.19
  26  -3   4    0.00    5.71
 -26   3   4    2.95    3.62
 -26  -3  -4    4.48    5.90
  26   3   4    5.81    6.38
  26  -3  -4    6.09    4.48
 -26   3  -4    6.67    5.62
  26  -4   0   13.62    5.81
 -26   4   0    3.05    4.57
  26  -4   1    4.09    4.95
 -26   4   1    0.86    4.09
 -26  -4  -1   -3.14    4.76
  26  -4  -1    2.86    4.57
 -26   4  -1    0.57    4.57
  26  -4   2   -3.62    4.76
 -26   4   2   -3.33   14.57
 -26  -4  -2    0.00    4.95
  26   4   2   -2.48    5.05
  26  -4  -2    1.71    6.29
 -26   4  -2   -1.52    4.48
  26  -4   3   -1.05    5.33
 -26   4   3    1.90   23.90
 -26  -4  -3   -6.48    5.24
  26   4   3   -1.90    5.62
  26  -4  -3   -3.71    4.86
 -26   4  -3   -6.57    4.86
  26  -5   0    0.57    4.76
 -26   5   0    3.43    4.38
  26  -5   1   39.14    8.19
 -26   5   1   24.66    6.19
  26  -5  -1   47.71    8.48
 -26   5  -1   56.76    9.62
  26  -5   2   39.81    8.48
 -26   5   2   52.28  272.54
 -26  -5  -2   57.33   10.48
  26  -5  -2   43.52    7.71
 -26   5  -2   39.81    8.28
  26  -5   3   10.00    7.05
 -26   5   3    8.19    5.71
 -26  -5  -3    9.14    6.67
  26  -5  -3   12.38    5.33
 -26   5  -3    6.86    6.09
  26  -6   0   32.38    7.52
 -26   6   0   22.19  179.32
  26  -6   1    1.90    5.43
 -26   6   1   -2.86    6.48
  26  -6  -1   -0.57    4.48
 -26   6  -1   -1.62    9.52
  26  -6   2    3.33   11.71
 -26   6   2    5.71   11.24
  26  -6  -2    4.67    4.86
 -26   6  -2    1.62    5.24
   0   0   0    0.00    0.00

_computing_structure_solution     'SHELXT 2014/5 (Sheldrick, 2014)'
;
_shelx_hkl_checksum              14513
loop_
_space_group_symop_operation_xyz
'x, y, z'
'-x+1/2, -y, z+1/2'
'-x, y+1/2, -z'
'x+1/2, -y+1/2, -z+1/2'
'-x, -y, -z'
'x-1/2, y, -z-1/2'
'x, -y-1/2, z'
'-x-1/2, y-1/2, z-1/2'
loop_
_atom_site_label
_atom_site_type_symbol
_atom_site_fract_x
_atom_site_fract_y
_atom_site_fract_z
_atom_site_U_iso_or_equiv
_atom_site_adp_type
_atom_site_occupancy
_atom_site_site_symmetry_order
_atom_site_calc_flag
_atom_site_refinement_flags_posn
_atom_site_refinement_flags_adp
_atom_site_refinement_flags_occupancy
_atom_site_disorder_assembly
_atom_site_disorder_group
Si1 Si 0.4229(3) 1.0557(5) 0.6647(4) 0.0298(16) Uiso 1 1 d D . . . .
Si2 Si 0.3095(3) 1.0300(6) 0.8138(4) 0.0313(17) Uiso 1 1 d D . . . .
Si3 Si 0.2793(3) 1.0620(5) 1.0336(4) 0.0283(16) Uiso 1 1 d D . . . .
Si4 Si 0.1229(3) 1.0654(5) 1.0291(4) 0.0228(14) Uiso 1 1 d D . . . .
Si5 Si 0.0722(3) 1.0287(5) 0.8169(4) 0.0244(15) Uiso 1 1 d D . . . .
Si6 Si 0.1874(3) 1.0599(5) 0.6745(4) 0.0296(16) Uiso 1 1 d D . . . .
Si7 Si 0.4232(3) 0.8274(4) 0.6764(4) 0.0234(15) Uiso 1 1 d D . . . .
Si8 Si 0.3094(3) 0.8706(5) 0.8195(4) 0.0262(16) Uiso 1 1 d D . . . .
Si9 Si 0.2737(3) 0.8274(4) 1.0345(4) 0.0243(15) Uiso 1 1 d D . . . .
Si10 Si 0.1184(3) 0.8264(5) 1.0292(4) 0.0279(16) Uiso 1 1 d D . . . .
Si11 Si 0.0698(3) 0.8705(5) 0.8194(4) 0.0261(16) Uiso 1 1 d D . . . .
Si12 Si 0.1883(3) 0.8265(5) 0.6854(4) 0.0333(17) Uiso 1 1 d D . . . .
O1 O 0.3748(5) 1.0565(13) 0.7588(7) 0.056(3) Uiso 1 1 d D . . . .
O2 O 0.3093(5) 1.0597(11) 0.9239(5) 0.043(3) Uiso 1 1 d D . . . .
O3 O 0.2008(4) 1.0546(15) 1.0303(10) 0.063(4) Uiso 1 1 d D . . . .
O4 O 0.0951(6) 1.0628(11) 0.9182(6) 0.051(3) Uiso 1 1 d D . . . .
O5 O 0.1169(4) 1.0561(12) 0.7283(7) 0.043(3) Uiso 1 1 d D . . . .
O6 O 0.2440(5) 1.0501(14) 0.7553(8) 0.059(4) Uiso 1 1 d D . . . .
O7 O 0.3738(5) 0.8413(12) 0.7665(7) 0.049(3) Uiso 1 1 d D . . . .
O8 O 0.3090(5) 0.8474(11) 0.9320(5) 0.038(3) Uiso 1 1 d D . . . .
O9 O 0.1957(4) 0.8444(12) 1.0256(9) 0.054(4) Uiso 1 1 d D . . . .
O10 O 0.0853(7) 0.8356(12) 0.9225(7) 0.064(4) Uiso 1 1 d D . . . .
O11 O 0.1180(5) 0.8451(14) 0.7334(9) 0.063(4) Uiso 1 1 d D . . . .
O12 O 0.2438(5) 0.8463(12) 0.7645(8) 0.052(3) Uiso 1 1 d D . . . .
O13 O 0.3109(12) 0.9503(6) 0.8202(17) 0.120(9) Uiso 1 1 d D . . . .
O14 O 0.0792(7) 0.9495(6) 0.8292(9) 0.058(4) Uiso 1 1 d D . . . .
O15 O 0.4178(7) 1.1250(7) 0.6061(10) 0.067(4) Uiso 1 1 d D . . . .
O16 O 0.4093(7) 0.9949(7) 0.5904(9) 0.056(4) Uiso 1 1 d D . . . .
O17 O 0.4022(6) 0.8674(7) 0.5798(8) 0.051(3) Uiso 1 1 d D . . . .
O18 O 0.1913(6) 1.1311(7) 0.6209(8) 0.051(3) Uiso 1 1 d D . . . .
O19 O 0.1936(7) 0.9999(8) 0.5972(11) 0.070(4) Uiso 1 1 d D . . . .
O20 O 0.1955(8) 0.8724(9) 0.5897(11) 0.081(5) Uiso 1 1 d D . . . .
O21 O -0.0031(3) 1.0473(11) 0.7946(6) 0.031(2) Uiso 1 1 d D . . . .
O22 O -0.0040(4) 0.8504(11) 0.7908(7) 0.041(3) Uiso 1 1 d D . . . .
O23 O 0.4233(10) 0.750000 0.6495(13) 0.059(6) Uiso 1 2 d DS . P . .
O24 O 0.1921(10) 0.750000 0.6512(14) 0.062(6) Uiso 1 2 d DS . P . .
O25 O 0.2832(8) 0.750000 1.0614(11) 0.041(4) Uiso 1 2 d DS . P . .
O26 O 0.1095(9) 0.750000 1.0629(12) 0.052(5) Uiso 1 2 d DS . P . .
loop_
_atom_type_symbol
_atom_type_description
_atom_type_scat_dispersion_real
_atom_type_scat_dispersion_imag
_atom_type_scat_source
O O 0.0000 0.0000 'International Tables Vol C Tables 4.2.6.8 and 6.1.1.4'
Si Si 0.0000 0.0000 'International Tables Vol C Tables 4.2.6.8 and 6.1.1.4'
loop_
_geom_angle_atom_site_label_1
_geom_angle_atom_site_label_2
_geom_angle_atom_site_label_3
_geom_angle
_geom_angle_site_symmetry_1
_geom_angle_site_symmetry_3
O21 Si1 O15 108.8(10) 6_657 .
O21 Si1 O1 106.6(6) 6_657 .
O15 Si1 O1 110.5(12) . .
O21 Si1 O16 107.3(9) 6_657 .
O15 Si1 O16 109.5(9) . .
O1 Si1 O16 114.0(10) . .
O6 Si2 O13 107.1(15) . .
O6 Si2 O1 111.2(9) . .
O13 Si2 O1 110.0(14) . .
O6 Si2 O2 111.7(9) . .
O13 Si2 O2 108.5(12) . .
O1 Si2 O2 108.3(8) . .
O3 Si3 O20 113.9(13) . 2_575
O3 Si3 O19 106.3(12) . 2_575
O20 Si3 O19 105.6(10) 2_575 2_575
O3 Si3 O2 110.2(7) . .
O20 Si3 O2 110.3(10) 2_575 .
O19 Si3 O2 110.4(10) 2_575 .
O3 Si4 O17 115.1(12) . 2_575
O3 Si4 O16 106.9(11) . 2_575
O17 Si4 O16 106.5(9) 2_575 2_575
O3 Si4 O4 110.4(7) . .
O17 Si4 O4 108.8(9) 2_575 .
O16 Si4 O4 108.8(10) 2_575 .
O21 Si5 O5 108.2(7) . .
O21 Si5 O14 109.6(11) . .
O5 Si5 O14 111.6(10) . .
O21 Si5 O4 109.7(8) . .
O5 Si5 O4 109.8(9) . .
O14 Si5 O4 107.9(9) . .
O6 Si6 O5 108.2(7) . .
O6 Si6 O18 112.9(12) . .
O5 Si6 O18 107.1(10) . .
O6 Si6 O19 107.7(11) . .
O5 Si6 O19 109.5(11) . .
O18 Si6 O19 111.4(9) . .
O23 Si7 O17 107.4(9) . .
O23 Si7 O22 110.1(12) . 6_657
O17 Si7 O22 109.2(8) . 6_657
O23 Si7 O7 110.2(12) . .
O17 Si7 O7 112.2(8) . .
O22 Si7 O7 107.7(7) 6_657 .
O12 Si8 O7 110.5(9) . .
O12 Si8 O13 108.9(13) . .
O7 Si8 O13 110.8(13) . .
O12 Si8 O8 110.8(8) . .
O7 Si8 O8 109.2(8) . .
O13 Si8 O8 106.6(12) . .
O18 Si9 O25 106.3(7) 2_575 .
O18 Si9 O9 112.0(8) 2_575 .
O25 Si9 O9 109.7(11) . .
O18 Si9 O8 108.1(8) 2_575 .
O25 Si9 O8 112.5(11) . .
O9 Si9 O8 108.2(7) . .
O9 Si10 O15 109.0(9) . 2_575
O9 Si10 O26 109.5(12) . .
O15 Si10 O26 109.9(8) 2_575 .
O9 Si10 O10 110.5(7) . .
O15 Si10 O10 109.3(10) 2_575 .
O26 Si10 O10 108.7(12) . .
O22 Si11 O10 106.7(8) . .
O22 Si11 O14 112.5(11) . .
O10 Si11 O14 109.6(10) . .
O22 Si11 O11 107.9(8) . .
O10 Si11 O11 112.5(10) . .
O14 Si11 O11 107.7(12) . .
O20 Si12 O12 110.0(10) . .
O20 Si12 O11 106.1(11) . .
O12 Si12 O11 106.5(8) . .
O20 Si12 O24 108.0(10) . .
O12 Si12 O24 113.5(13) . .
O11 Si12 O24 112.5(14) . .
Si2 O1 Si1 149.7(13) . .
Si3 O2 Si2 150.8(12) . .
Si4 O3 Si3 167(2) . .
Si5 O4 Si4 156.6(15) . .
Si6 O5 Si5 149.4(11) . .
Si2 O6 Si6 165.3(13) . .
Si8 O7 Si7 156.0(11) . .
Si8 O8 Si9 154.2(7) . .
Si10 O9 Si9 154.0(16) . .
Si11 O10 Si10 157.5(16) . .
Si11 O11 Si12 155.0(10) . .
Si8 O12 Si12 165.7(9) . .
Si8 O13 Si2 175.9(18) . .
Si11 O14 Si5 163.9(10) . .
Si1 O15 Si10 151.4(11) . 2_574
Si4 O16 Si1 165.2(10) 2_574 .
Si4 O17 Si7 149.7(10) 2_574 .
Si6 O18 Si9 144.7(10) . 2_574
Si6 O19 Si3 163.5(11) . 2_574
Si12 O20 Si3 152.6(13) . 2_574
Si5 O21 Si1 147.9(7) . 6_557
Si11 O22 Si7 149.5(8) . 6_557
Si7 O23 Si7 153.5(14) . 7_575
Si12 O24 Si12 145.8(15) 7_575 .
Si9 O25 Si9 150.1(12) 7_575 .
Si10 O26 Si10 144.3(13) 7_575 .
loop_
_geom_bond_atom_site_label_1
_geom_bond_atom_site_label_2
_geom_bond_distance
_geom_bond_site_symmetry_2
Si1 O21 1.607(7) 6_657
Si1 O15 1.612(9) .
Si1 O1 1.613(8) .
Si1 O16 1.614(9) .
Si2 O6 1.601(8) .
Si2 O13 1.606(9) .
Si2 O1 1.612(9) .
Si2 O2 1.619(8) .
Si3 O3 1.597(8) .
Si3 O20 1.610(9) 2_575
Si3 O19 1.615(9) 2_575
Si3 O2 1.619(7) .
Si4 O3 1.592(8) .
Si4 O17 1.603(9) 2_575
Si4 O16 1.613(9) 2_575
Si4 O4 1.619(8) .
Si5 O21 1.599(8) .
Si5 O5 1.609(8) .
Si5 O14 1.610(9) .
Si5 O4 1.613(9) .
Si6 O6 1.603(8) .
Si6 O5 1.607(7) .
Si6 O18 1.611(9) .
Si6 O19 1.611(9) .
Si7 O23 1.601(8) .
Si7 O17 1.604(8) .
Si7 O22 1.608(8) 6_657
Si7 O7 1.612(7) .
Si8 O12 1.602(8) .
Si8 O7 1.604(8) .
Si8 O13 1.606(9) .
Si8 O8 1.608(8) .
Si9 O18 1.611(8) 2_575
Si9 O25 1.614(8) .
Si9 O9 1.618(8) .
Si9 O8 1.624(7) .
Si10 O9 1.607(8) .
Si10 O15 1.614(9) 2_575
Si10 O26 1.615(8) .
Si10 O10 1.616(8) .
Si11 O22 1.595(8) .
Si11 O10 1.607(9) .
Si11 O14 1.608(9) .
Si11 O11 1.610(8) .
Si12 O20 1.608(9) .
Si12 O12 1.609(8) .
Si12 O11 1.612(8) .
Si12 O24 1.612(8) .
