#------------------------------------------------------------------------------
#$Date: 2018-01-11 12:53:52 +0200 (Thu, 11 Jan 2018) $
#$Revision: 205069 $
#$URL: file:///home/coder/svn-repositories/cod/cif/1/54/86/1548622.cif $
#------------------------------------------------------------------------------
#
# This file is available in the Crystallography Open Database (COD),
# http://www.crystallography.net/
#
# All data on this site have been placed in the public domain by the
# contributors.
#
data_1548622
loop_
_publ_author_name
'Gruene, T.'
'Teng, Li.'
'Van Genderen, E.'
'Pinar, A. B.'
'Van Bokhoven, J. A.'
_publ_section_title
;
 Characterization at the level of individual crystals: single crystal MFI
 type zeolite grains
;
_journal_name_full               'Chemistry - A European Journal'
_journal_paper_doi               10.1002/chem.201704213
_journal_year                    2017
_chemical_formula_sum            'O24 Si12'
_chemical_formula_weight         721.20
_space_group_crystal_system      orthorhombic
_space_group_IT_number           62
_space_group_name_Hall           '-P 2ac 2n'
_space_group_name_H-M_alt        'P n m a'
_symmetry_space_group_name_Hall  '-P 2ac 2n'
_symmetry_space_group_name_H-M   'P n m a'
_atom_sites_solution_hydrogens   .
_audit_creation_method           SHELXL-2016/6
_cell_angle_alpha                90
_cell_angle_beta                 90
_cell_angle_gamma                90
_cell_formula_units_Z            8
_cell_length_a                   20.5080(18)
_cell_length_b                   20.144(10)
_cell_length_c                   13.465(4)
_cell_measurement_temperature    293(2)
_cell_volume                     5563(3)
_computing_structure_refinement  'SHELXL-2016/6 (Sheldrick, 2016)'
_computing_structure_solution    'SHELXT 2014/5 (Sheldrick, 2014)'
_diffrn_ambient_temperature      293(2)
_diffrn_measured_fraction_theta_full 0.592
_diffrn_measured_fraction_theta_max 0.592
_diffrn_radiation_wavelength     0.02508
_diffrn_reflns_av_R_equivalents  0.3471
_diffrn_reflns_av_unetI/netI     0.2788
_diffrn_reflns_Laue_measured_fraction_full 0.592
_diffrn_reflns_Laue_measured_fraction_max 0.592
_diffrn_reflns_limit_h_max       15
_diffrn_reflns_limit_h_min       -15
_diffrn_reflns_limit_k_max       15
_diffrn_reflns_limit_k_min       -15
_diffrn_reflns_limit_l_max       12
_diffrn_reflns_limit_l_min       -12
_diffrn_reflns_number            4649
_diffrn_reflns_point_group_measured_fraction_full 0.592
_diffrn_reflns_point_group_measured_fraction_max 0.592
_diffrn_reflns_theta_full        0.652
_diffrn_reflns_theta_max         0.652
_diffrn_reflns_theta_min         0.064
_exptl_absorpt_coefficient_mu    0.275
_exptl_crystal_density_diffrn    1.722
_exptl_crystal_F_000             940
_refine_diff_density_max         0.230
_refine_diff_density_min         -0.199
_refine_diff_density_rms         0.059
_refine_ls_extinction_coef       .
_refine_ls_extinction_method     none
_refine_ls_goodness_of_fit_ref   1.204
_refine_ls_hydrogen_treatment    undef
_refine_ls_matrix_type           full
_refine_ls_number_parameters     149
_refine_ls_number_reflns         1339
_refine_ls_number_restraints     48
_refine_ls_restrained_S_all      1.184
_refine_ls_R_factor_all          0.3556
_refine_ls_R_factor_gt           0.1966
_refine_ls_shift/su_max          1.513
_refine_ls_shift/su_mean         0.020
_refine_ls_structure_factor_coef Fsqd
_refine_ls_weighting_details
'w=1/[\s^2^(Fo^2^)+(0.2000P)^2^] where P=(Fo^2^+2Fc^2^)/3'
_refine_ls_weighting_scheme      calc
_refine_ls_wR_factor_gt          0.4429
_refine_ls_wR_factor_ref         0.5200
_reflns_Friedel_coverage         0.000
_reflns_Friedel_fraction_full    .
_reflns_Friedel_fraction_max     .
_reflns_number_gt                416
_reflns_number_total             1339
_reflns_threshold_expression     'I > 2\s(I)'
_cod_data_source_file            zsm5_ChemEurJ.cif
_cod_data_source_block           z1a
_cod_database_code               1548622
_shelx_shelxl_version_number     2016/6
_shelx_space_group_comment
;
The symmetry employed for this shelxl refinement is uniquely defined
by the following loop, which should always be used as a source of
symmetry information in preference to the above space-group names.
They are only intended as comments.
;
_shelx_res_file
;
TITL 10_a.res in Pnma
    z1a.res
    created by SHELXL-2016/6 at 11:17:12 on 31-Oct-2017
REM Old TITL 10 in P222
REM SHELXT solution in Pnma
REM R1 0.340,  Rweak 0.013,  Alpha 0.195,  Orientation a'=b, b'=a, c'=-c
REM Formula found by SHELXT:  O2 Si
CELL  0.02508  20.5080  20.1439  13.4655   90.000   90.000   90.000
ZERR    8.000   0.0018   0.0095   0.0041    0.000    0.000    0.000
LATT  1
SYMM 1/2-X, -Y, 1/2+Z
SYMM -X, 1/2+Y, -Z
SYMM 1/2+X, 1/2-Y, 1/2-Z
SFAC O  0.237  0.799  0.649  3.654  0.800 10.924  0.261 29.964  0.035 =
   0.0 0.0 18.200 0.660 16.00
SFAC Si  0.665  1.394  1.312  8.299  2.609 27.621  1.135 78.294  0.106 =
  0.0 0.0 123.000 1.110 28.100
UNIT 192 96
ACTA
L.S. 20
RIGU
XNPD 0.001
ISOR $O

LIST 4
FMAP 2
EQIV $1   x-1/2, y, -z+3/2
EQIV $2   -x+1/2, -y+2, z-1/2
EQIV $3   x, -y+3/2, z
EQIV $4   -x+1/2, -y+2, z+1/2
EQIV $5   x+1/2, y, -z+3/2

DFIX 1.609 0.01 Si1  O1 Si1 O21_$5 Si1 O16 Si1 O15
DFIX 1.609 0.01 Si2  O2 Si2 O13 Si2 O6 Si2 O1
DFIX 1.609 0.01 Si3  O20_$4 Si3 O19_$4 Si3 O2 Si3 O3
DFIX 1.609 0.01 Si4  O4 Si4 O16_$4 Si4 O3 Si4 O17_$4
DFIX 1.609 0.01 Si5  O4 Si5 O5 Si5 O14 Si5 O21
DFIX 1.609 0.01 Si6  O19 Si6 O6 Si6 O5 Si6 O18
DFIX 1.609 0.01 Si7  O23 Si7 O17 Si7 O7 Si7 O22_$5
DFIX 1.609 0.01 Si8  O13 Si8 O8 Si8 O12 Si8 O7
DFIX 1.609 0.01 Si9  O18_$4 Si9 O8 Si9 O25 Si9 O9
DFIX 1.609 0.01 Si10 O15_$4 Si10 O26 Si10 O10 Si10 O9
DFIX 1.609 0.01 Si11 O10 Si11 O14 Si11 O11 Si11 O22
DFIX 1.609 0.01 Si12 O20 Si12 O24 Si12 O11 Si12 O12

PLAN 20
ISOR $O

WGHT    0.200000
FVAR       0.54046
SI1   2    0.424387    1.053469    0.665537    11.00000    0.00477
SI2   2    0.308018    1.031119    0.812462    11.00000    0.01026
SI3   2    0.279855    1.061072    1.032722    11.00000    0.00125
SI4   2    0.123117    1.066148    1.026529    11.00000    0.00100
SI5   2    0.073669    1.028961    0.815111    11.00000    0.00751
SI6   2    0.187008    1.058868    0.672089    11.00000    0.00100
SI7   2    0.423758    0.828101    0.675682    11.00000    0.00100
SI8   2    0.309394    0.871183    0.816986    11.00000    0.00870
SI9   2    0.272364    0.827551    1.031389    11.00000    0.00621
SI10  2    0.117647    0.827377    1.031425    11.00000    0.01512
SI11  2    0.070888    0.869979    0.815602    11.00000    0.00100
SI12  2    0.188333    0.826856    0.683453    11.00000    0.01473
O1    1    0.372655    1.055872    0.755444    11.00000    0.06794
O2    1    0.310622    1.060800    0.922904    11.00000    0.04772
O3    1    0.201367    1.058156    1.031413    11.00000    0.05498
O4    1    0.098677    1.066261    0.913264    11.00000    0.04147
O5    1    0.116827    1.058261    0.725470    11.00000    0.02597
O6    1    0.242393    1.052226    0.755526    11.00000    0.03830
O7    1    0.375560    0.844661    0.766617    11.00000    0.04038
O8    1    0.308775    0.844808    0.929181    11.00000    0.04138
O9    1    0.195001    0.842056    1.022986    11.00000    0.04452
O10   1    0.090744    0.838722    0.920720    11.00000    0.04826
O11   1    0.117572    0.845049    0.727146    11.00000    0.06465
O12   1    0.245973    0.844031    0.760092    11.00000    0.05274
O13   1    0.311183    0.951318    0.820540    11.00000    0.06247
O14   1    0.081038    0.949386    0.822184    11.00000    0.05442
O15   1    0.419861    1.121369    0.603154    11.00000    0.06246
O16   1    0.404165    0.994247    0.592453    11.00000    0.03565
O17   1    0.402684    0.866447    0.576265    11.00000    0.04358
O18   1    0.194918    1.130209    0.619773    11.00000    0.02934
O19   1    0.188612    1.001346    0.589279    11.00000    0.05949
O20   1    0.200153    0.870177    0.584891    11.00000    0.02315
O21   1   -0.001808    1.046333    0.795265    11.00000    0.01674
O22   1   -0.003210    0.848412    0.792355    11.00000    0.05576
O23   1    0.425105    0.750000    0.651032    10.50000    0.02083
O24   1    0.193007    0.750000    0.651674    10.50000    0.04470
O25   1    0.282458    0.750000    1.056335    10.50000    0.02767
O26   1    0.109377    0.750000    1.057563    10.50000    0.02832
HKLF 4




REM  10_a.res in Pnma
REM R1 =  0.1966 for     416 Fo > 4sig(Fo)  and  0.3556 for all    1339 data
REM    149 parameters refined using     48 restraints

END

WGHT      0.2000      0.0000

REM Highest difference peak  0.230,  deepest hole -0.199,  1-sigma level  0.059
Q1    1   0.0187  1.0599  0.4841  11.00000  0.05    0.23
Q2    1   0.2171  0.7500  1.3214  10.50000  0.05    0.23
Q3    1   0.1986  1.2500  0.8406  10.50000  0.05    0.22
Q4    1   0.1189  1.2500  0.8151  10.50000  0.05    0.21
Q5    1   0.4178  0.7500  1.0068  10.50000  0.05    0.19
Q6    1   0.0223  0.8224  0.4753  11.00000  0.05    0.19
Q7    1   0.1167  0.7500  0.3984  10.50000  0.05    0.19
Q8    1   0.3373  1.0537  0.8403  11.00000  0.05    0.18
Q9    1   0.1093  1.0544  0.4822  11.00000  0.05    0.18
Q10   1   0.1596  1.1994  0.8434  11.00000  0.05    0.17
Q11   1   0.0800  0.8577  0.4856  11.00000  0.05    0.17
Q12   1   0.3393  0.7500  1.0514  10.50000  0.05    0.15
Q13   1   0.3645  0.8039  1.0105  11.00000  0.05    0.15
Q14   1  -0.0257  1.1739  0.6138  11.00000  0.05    0.15
Q15   1   0.0036  1.1437  0.6643  11.00000  0.05    0.15
Q16   1   0.3124  0.7500  1.0037  10.50000  0.05    0.14
Q17   1   0.3115  0.8300  0.8224  11.00000  0.05    0.14
Q18   1   0.3126  0.8180  1.0193  11.00000  0.05    0.13
Q19   1   0.2006  1.1383  0.7575  11.00000  0.05    0.13
Q20   1   0.3100  0.7500  0.7214  10.50000  0.05    0.13
;
_shelx_res_checksum              93900
_shelx_hkl_file
;
   0   0   2 1395.88  171.13
   0   0  -2 1243.50  152.99
   0   0   3  116.55   51.47
   0   0  -3   65.54   46.63
   0   0   4  681.38   95.00
   0   0  -4  822.55  109.11
   0   0   5  -85.92   45.92
   0   0  -5   21.05   41.79
   0   0   6 2050.25  245.49
   0   0  -6 2131.79  255.02
   0   0  -7    3.01   42.96
   0   0   8 2387.12  284.73
   0   0  -8 2774.95  329.12
   0   0   9   63.35   47.50
   0   0  -9  -45.56   40.82
   0   0  10   65.59   47.85
   0   0 -10  -26.81   39.19
   0   0  11   20.54   51.37
   0   0 -11  -48.57   45.71
   0   0  12  384.16   76.70
   0   0 -12  189.38   60.03
   0  -1   1 1648.15  198.50
   0   1  -1 1096.73  138.06
   0   1   2  -89.34   43.27
   0  -1  -2  -60.09   43.01
   0   1  -2   63.30   47.09
   0   1   3 1896.34  228.11
   0  -1   3 1888.19  225.87
   0   1  -3 1717.46  207.06
   0   1   4   -7.13   45.82
   0  -1   4  -13.35   45.56
   0  -1  -4  145.40   54.79
   0   1  -4  -34.40   48.16
   0   1   5  330.55   60.70
   0  -1   5  397.06   66.30
   0  -1  -5  290.75   62.02
   0   1  -5  299.46   60.80
   0  -1   6  -17.89   44.64
   0  -1  -6   -3.16   49.13
   0   1  -6   56.01   48.06
   0   1   7  105.60   48.72
   0  -1   7   28.18   53.05
   0  -1  -7   98.31   45.77
   0   1  -7   74.51   50.86
   0   1   8   62.23   42.96
   0  -1  -8    1.12   38.43
   0   1  -8  -47.50   39.34
   0   1   9  357.46   62.18
   0  -1   9  453.88   71.86
   0  -1  -9  340.03   60.09
   0   1  -9  511.67   76.75
   0   1  10    5.35   42.76
   0  -1  10   44.95   48.31
   0  -1 -10  -38.02   37.10
   0   1 -10   48.52   45.46
   0   1  11   98.56   55.40
   0  -1  11   43.62   50.45
   0  -1 -11  115.53   49.94
   0   1 -11  105.95   49.74
   0   1  12   47.34   50.66
   0  -1  12   49.84   50.50
   0  -1 -12   10.75   49.84
   0   1 -12  -66.91   46.12
   0  -2   2  772.09  104.02
   0   2   3   53.72   42.81
   0  -2   3   73.18   48.36
   0   2  -3   23.34   50.10
   0   2   4   28.39   43.01
   0  -2   4 -105.24   45.82
   0  -2  -4  -57.95   52.03
   0   2  -4  -64.88   47.45
   0  -2   5  -57.69   44.24
   0  -2  -5   53.00   46.27
   0   2  -5  -46.02   47.14
   0   2   6   83.53   49.38
   0  -2   6   37.36   52.39
   0  -2  -6   20.33   42.35
   0   2  -6   90.05   49.03
   0   2   7   -2.14   40.67
   0  -2   7   81.64   47.70
   0   2  -7    6.78   35.37
   0   2   8  139.38   46.43
   0  -2   8  110.69   41.79
   0  -2  -8  151.16   45.00
   0   2  -8  120.63   43.68
   0   2   9    3.11   40.72
   0  -2  -9  -18.35   40.92
   0   2  -9   28.95   41.94
   0   2  10    0.31   42.66
   0  -2  10  129.34   51.73
   0  -2 -10   61.41   45.82
   0   2 -10  111.61   50.56
   0   2  11  102.33   51.42
   0  -2  11   39.39   47.55
   0  -2 -11   75.68   46.63
   0   2 -11  -12.38   48.57
   0   2  12  -34.86   49.84
   0  -2  12   60.09   49.49
   0  -2 -12   13.66   49.03
   0   2 -12   69.26   46.07
   0  -3   3 1646.62  199.06
   0   3  -3 1787.79  215.17
   0  -3   4   -2.09   45.66
   0   3  -4   24.31   46.17
   0   3   5 1447.36  175.01
   0  -3   5 1560.50  188.82
   0  -3  -5 1396.90  168.59
   0   3  -5 1522.27  185.61
   0   3   6  -16.36   44.34
   0  -3   6   -3.87   48.26
   0  -3  -6   58.10   45.92
   0   3  -6   60.03   47.60
   0   3   7  614.62   86.89
   0  -3   7  533.59   80.01
   0  -3  -7  594.74   82.31
   0   3  -7  543.78   78.59
   0   3   8   45.46   45.15
   0  -3   8   55.14   44.29
   0  -3  -8   10.04   40.57
   0   3  -8   -1.73   39.19
   0   3   9  121.29   44.08
   0  -3   9   57.79   40.31
   0  -3  -9   54.33   39.90
   0   3  -9   90.05   42.45
   0   3  10   25.48   41.03
   0  -3 -10   -6.57   41.54
   0   3 -10  -33.08   41.33
   0   3  11   53.92   50.91
   0  -3  11  178.47   56.57
   0  -3 -11  107.58   51.22
   0   3 -11  255.58   61.72
   0   3  12   62.12   53.66
   0  -3  12  -47.55   52.19
   0  -3 -12    6.63   45.26
   0   3 -12   19.26   56.42
   0  -4   3   36.90   46.99
   0   4  -3  -11.21   43.27
   0  -4   4  544.29   80.22
   0   4  -4  548.37   81.08
   0  -4   5   11.93   43.57
   0   4  -5   39.19   46.22
   0   4   6  -37.71   41.13
   0  -4   6  -56.77   49.54
   0  -4  -6   75.02   45.56
   0   4  -6   27.37   50.96
   0   4   7  -15.39   39.96
   0  -4   7 -149.17   52.75
   0  -4  -7  -20.28   38.78
   0   4  -7    6.12   42.20
   0   4   8   -8.61   41.94
   0  -4   8   68.80   52.95
   0  -4  -8  -18.09   39.80
   0   4  -8  -38.27   38.99
   0   4   9  -93.57   42.04
   0  -4   9   52.03   44.95
   0  -4  -9   72.11   40.46
   0   4  -9  -20.54   39.50
   0   4  10   -0.41   39.96
   0  -4  10   23.24   41.69
   0  -4 -10   43.88   41.18
   0   4 -10   27.57   44.85
   0   4  11  -24.97   52.29
   0  -4 -11    1.58   47.19
   0   4 -11   43.73   46.12
   0  -5   4   67.02   43.11
   0   5  -4   74.36   44.54
   0  -5   5  362.71   63.70
   0   5  -5  377.38   64.21
   0  -5   6    3.57   46.48
   0   5  -6   -8.82   50.35
   0  -5   7  -47.60   44.95
   0   5  -7   55.19   40.92
   0   5   8   14.07   37.97
   0  -5   8    0.10   42.76
   0  -5  -8  -20.59   36.18
   0   5  -8  -16.16   36.64
   0   5   9 2784.64  329.63
   0  -5   9 2687.80  320.10
   0  -5  -9 2621.04  311.49
   0   5  -9 2564.98  305.07
   0   5  10    6.88   41.64
   0  -5  10  -62.43   47.34
   0  -5 -10  -44.75   43.01
   0   5 -10  -30.17   41.18
   0   5  11  727.76  101.37
   0  -5 -11  988.69  131.59
   0   5 -11  920.91  121.55
   0  -6   5   14.27   46.48
   0   6  -5  -28.39   42.91
   0  -6   6  110.54   46.17
   0   6  -6  203.96   52.70
   0  -6   7  -58.05   41.59
   0   6  -7  -25.23   39.45
   0  -6   8  162.88   46.78
   0   6  -8  172.71   47.04
   0   6   9   82.61   40.97
   0  -6   9   16.92   44.24
   0  -6  -9   48.26   37.92
   0   6  -9   -7.59   38.12
   0   6  10  106.92   42.25
   0  -6  10   46.94   46.43
   0  -6 -10  155.74   46.38
   0   6 -10  161.86   48.77
   0   6  11  110.59   48.47
   0  -6  11   38.48   59.68
   0  -6 -11   85.16   50.15
   0   6 -11   62.07   45.10
   0  -7   5  -28.28   43.83
   0  -7   6    9.17   43.78
   0   7  -6  -21.05   42.30
   0  -7   7  215.27   54.84
   0   7  -7  137.96   44.54
   0  -7   8  -17.28   40.92
   0   7  -8    5.40   38.22
   0  -7   9  -11.01   45.00
   0   7  -9    3.31   40.77
   0  -7  10  -39.45   50.05
   0  -7 -10   58.20   41.23
   0   7 -10   37.46   45.10
   0   7  11    3.52   44.80
   0  -7  11   41.59   49.38
   0  -7 -11   37.20   44.39
   0   7 -11  113.60   50.20
   0  -8   6 1631.84  198.50
   0   8  -6 1880.55  226.12
   0  -8   7  -25.02   44.29
   0   8  -7   -7.85   34.66
   0  -8   8    0.66   41.59
   0   8  -8  -79.81   39.50
   0  -8   9 -142.14   48.82
   0   8  -9  -50.30   40.72
   0  -8  10  112.88   53.82
   0   8 -10   83.02   46.48
   0  -9   8    9.02   42.30
   0   9  -8   50.45   40.72
   0  -9   9   15.14   51.47
   0   9  -9   54.73   44.24
   0  -9  10   11.01   49.94
   0   9 -10    4.59   45.97
   0 -10   8   81.13   47.04
   0  10  -8  139.69   45.05
   0 -10   9   21.76   48.57
   0  10  -9   -4.18   44.13
   0 -10  10    3.87   52.54
   0  10 -10   91.33   47.60
   0 -11   8  -23.85   46.33
   0 -11   9  -18.24   44.54
   0  11  -9  -44.29   48.72
   0 -12   9   41.28   45.97
   0  12  -9   75.68   43.11
   1   0   1 1062.08  131.03
  -1   0   1 1317.40  162.22
   1   0  -1 1527.37  183.93
   1   0   2 1595.66  191.06
  -1   0   2 1468.25  181.28
   1   0  -2 1901.95  226.89
  -1   0  -2 1704.72  203.55
   1   0   3 1740.40  210.33
  -1   0   3 1646.62  198.45
   1   0  -3 1614.52  195.55
   1   0   4 4314.55  503.52
  -1   0   4 3811.55  445.98
   1   0  -4 3624.51  424.78
  -1   0  -4 4609.12  538.17
   1   0   5  279.43   53.77
  -1   0   5  362.09   62.74
   1   0  -5  259.81   58.51
  -1   0  -5  462.54   74.20
  -1   0   6  274.34   56.88
   1   0  -6  218.02   55.86
  -1   0  -6  320.10   63.91
   1   0   7  -26.04   44.59
  -1   0   7   34.35   57.03
   1   0  -7   65.28   49.03
  -1   0  -7   89.75   46.22
   1   0   8  833.25  109.67
   1   0  -8 1090.61  137.70
  -1   0  -8 1089.60  136.79
   1   0   9  117.11   43.62
  -1   0   9  160.43   48.52
   1   0  -9  122.97   45.20
  -1   0  -9  182.04   47.91
   1   0  10  348.33   63.09
  -1   0  10  455.10   75.99
   1   0 -10  482.98   76.80
  -1   0 -10  310.06   56.42
   1   0  11   74.30   54.43
  -1   0  11  151.00   54.07
   1   0 -11  214.10   55.55
  -1   0 -11  129.45   53.15
   1   0  12   79.15   53.05
  -1   0  12   57.59   51.32
   1   0 -12   20.74   48.57
  -1   0 -12   73.74   51.93
   1   1  -1  690.04   94.49
  -1  -1  -1 1149.22  137.14
  -1  -1   1  857.20  110.69
   1  -1   2  389.00   65.59
  -1  -1  -2  184.23   47.65
   1   1   2  204.77   45.46
  -1  -1   2  228.42   58.25
  -1   1  -2  261.49   52.54
   1  -1   3  667.11   94.08
  -1   1   3  728.27   99.07
   1   1  -3  570.79   85.16
   1   1   3  501.22   73.64
  -1  -1   3  519.32   81.13
   1  -1  -3  647.74   89.85
  -1   1  -3  458.26   72.62
   1  -1   4  180.61   50.15
  -1   1   4  197.69   51.01
   1   1  -4  252.98   57.13
  -1  -1  -4  106.77   54.48
   1   1   4  122.82   42.15
  -1  -1   4  195.39   52.70
   1  -1  -4  291.15   61.05
  -1   1  -4  149.32   52.59
   1  -1   5   47.34   45.20
  -1   1   5   37.92   46.48
   1   1  -5   37.46   41.38
  -1  -1  -5   28.18   44.19
  -1  -1   5  -79.20   47.70
   1  -1  -5   64.21   43.01
  -1   1  -5  118.90   44.13
   1  -1   6   34.81   42.45
  -1   1   6   25.84   47.60
   1   1  -6   17.99   46.78
  -1  -1  -6   39.80   42.61
   1   1   6   55.30   46.33
  -1  -1   6  116.76   53.46
   1  -1  -6   66.91   49.69
  -1   1  -6  164.92   54.02
   1   1  -7    7.13   37.20
  -1  -1  -7  -35.22   42.86
   1   1   7   60.03   44.85
  -1  -1   7  -15.59   49.18
   1  -1  -7   -1.07   43.22
  -1   1  -7   35.67   43.78
   1  -1   8   24.16   44.80
  -1   1   8   -1.94   44.34
   1   1  -8   75.73   41.33
  -1  -1  -8  -18.14   40.16
   1   1   8  -11.36   41.59
  -1  -1   8   -8.41   41.64
   1  -1  -8  -70.99   43.37
  -1   1  -8  -65.79   44.24
   1  -1   9   23.65   45.31
  -1   1   9   -4.28   44.95
   1   1  -9   -2.55   39.55
  -1  -1  -9  -31.75   41.94
   1   1   9   28.79   42.15
   1  -1  -9   -8.77   39.34
  -1   1  -9   16.66   39.29
   1  -1  10   74.00   49.38
  -1   1  10   11.52   47.70
   1   1 -10   59.53   46.43
  -1  -1 -10   80.67   44.85
   1   1  10  134.24   46.89
  -1  -1  10   85.52   48.87
   1  -1 -10    2.75   38.99
  -1   1 -10   43.32   41.13
   1  -1  11   29.66   53.46
  -1   1  11    4.99   49.03
   1   1 -11   78.08   49.38
  -1  -1 -11   57.54   46.07
   1   1  11  -25.43   50.40
  -1  -1  11  106.92   50.81
   1  -1 -11  107.12   49.28
  -1   1 -11   99.84   48.11
   1  -1  12  -21.51   53.15
  -1   1  12  -40.21   50.61
   1   1 -12   25.48   45.46
  -1  -1 -12   23.34   50.96
   1   1  12   37.56   49.89
  -1  -1  12   37.05   49.23
   1  -1 -12    0.66   50.50
  -1   1 -12   44.75   49.79
  -1  -2  -2   98.36   39.50
   1   2   2  130.87   40.01
  -1  -2   2  119.36   47.04
   1  -2   3  204.26   55.30
   1   2  -3  193.92   62.63
   1   2   3  151.31   45.26
  -1  -2   3  227.70   57.28
  -1   2  -3  302.31   60.03
   1  -2   4  715.52   97.95
  -1   2   4  562.13   80.01
   1   2  -4  667.62   94.33
  -1  -2  -4  464.68   70.64
  -1  -2   4  694.12   96.52
   1  -2  -4  458.57   72.11
  -1   2  -4  513.20   78.59
   1  -2   5   81.24   42.66
  -1   2   5   -3.31   40.82
   1   2  -5   32.87   48.87
  -1  -2  -5   64.21   39.19
   1   2   5  -36.08   41.33
  -1  -2   5   33.38   45.71
   1  -2  -5  118.39   54.99
  -1   2  -5    2.34   46.02
   1  -2   6   64.37   45.61
   1   2  -6  114.41   48.72
  -1  -2  -6   75.12   49.28
   1   2   6  100.40   45.51
  -1  -2   6  157.63   52.19
   1  -2  -6  117.42   49.08
  -1   2  -6   87.66   44.85
   1  -2   7   -8.10   45.82
  -1   2   7  -50.66   49.94
   1   2  -7  -10.91   38.17
  -1  -2  -7  -52.80   41.28
   1   2   7 -115.53   47.34
  -1  -2   7   -8.87   44.29
   1  -2  -7    7.95   42.15
  -1   2  -7  -25.12   44.19
  -1   2   8   27.83   42.45
   1   2  -8  -39.70   38.38
  -1  -2  -8   37.15   40.77
   1   2   8   -6.01   43.11
  -1  -2   8  -74.15   44.19
   1  -2  -8  -32.06   34.35
  -1   2  -8   73.44   41.89
   1  -2   9   57.44   43.98
  -1   2   9   28.54   41.28
   1   2  -9    6.63   38.88
  -1  -2  -9    4.99   38.58
   1   2   9   53.87   42.35
  -1  -2   9   27.42   41.08
   1  -2  -9   46.48   38.63
  -1   2  -9  -38.73   41.38
   1  -2  10   92.91   49.18
  -1   2  10   32.06   48.77
   1   2 -10   13.45   41.13
  -1  -2 -10   33.13   41.33
   1   2  10   56.37   43.73
   1  -2 -10   95.35   42.04
  -1   2 -10   51.07   44.85
   1  -2  11   15.03   48.36
  -1   2  11   40.21   56.62
   1   2 -11    1.68   49.13
  -1  -2 -11   25.43   47.60
   1   2  11   44.24   51.98
  -1  -2  11   61.67   51.63
   1  -2 -11  -89.03   48.62
  -1   2 -11   27.06   45.26
   1  -2  12   74.71   52.14
  -1   2  12   49.84   51.52
   1   2 -12   23.24   52.54
  -1  -2 -12   10.91   40.57
   1   2  12   -9.53   50.56
  -1  -2  12  -55.91   52.14
   1  -2 -12  -39.96   51.37
  -1   2 -12   18.60   48.77
   1   3  -2  130.62   49.18
  -1  -3   2   26.81   44.54
   1   3  -3 7104.28  825.10
  -1  -3   3 5391.92  627.36
   1  -3   4   83.68   44.80
   1   3  -4  160.18   49.84
  -1  -3  -4  168.38   43.83
   1   3   4  102.95   46.63
  -1  -3   4  127.82   50.86
  -1   3  -4  133.88   49.33
   1  -3   5   42.55   44.29
   1   3  -5  140.45   51.42
  -1  -3  -5   25.28   37.76
   1   3   5  129.96   44.75
  -1  -3   5   61.36   45.36
  -1   3  -5   49.59   47.80
   1  -3   6   79.76   51.57
  -1   3   6  132.81   48.72
   1   3  -6  120.22   57.23
  -1  -3  -6  241.36   55.55
   1   3   6  170.22   49.33
  -1  -3   6   44.29   51.12
   1  -3  -6   64.42   46.12
  -1   3  -6   -8.26   44.90
   1  -3   7  176.33   51.98
  -1   3   7  118.90   41.89
   1   3  -7  169.50   48.21
  -1  -3  -7  225.31   50.00
   1   3   7  138.42   49.03
  -1  -3   7  170.88   54.99
   1  -3  -7  172.05   45.41
  -1   3  -7  158.09   43.22
  -1   3   8   70.89   42.91
   1   3  -8  -25.99   40.31
  -1  -3  -8  -30.22   39.34
   1   3   8  -47.91   42.71
  -1  -3   8   62.84   53.26
   1  -3  -8   -3.87   37.05
  -1   3  -8    1.94   39.60
  -1   3   9   16.66   41.33
   1   3  -9   -3.52   35.42
  -1  -3  -9   64.06   39.19
   1   3   9   -6.47   43.98
  -1  -3   9   25.63   43.32
   1  -3  -9   71.91   39.75
  -1   3  -9    7.13   44.54
   1  -3  10   46.58   49.23
  -1   3  10   64.62   42.55
   1   3 -10   15.80   45.92
  -1  -3 -10   41.74   41.59
   1   3  10  -26.86   42.81
  -1  -3  10   41.18   50.15
   1  -3 -10   30.43   41.54
  -1   3 -10   21.00   48.31
   1  -3  11   35.62   50.50
  -1   3  11   83.38   54.94
   1   3 -11   50.40   48.77
  -1  -3 -11   65.69   48.42
   1   3  11    2.19   51.27
   1  -3 -11   -3.11   45.82
  -1   3 -11  139.54   53.00
   1  -3  12    0.25   53.36
   1   3 -12   53.56   49.49
   1   3  12   30.12   53.26
  -1  -3  12   17.12   52.65
   1  -3 -12   37.87   53.92
   1   4  -2  104.27   46.33
  -1  -4   2   56.37   42.55
   1   4  -3  -85.67   46.43
  -1  -4   3   12.44   45.92
   1  -4   4  -13.45   42.35
   1   4  -4   15.80   45.51
  -1  -4   4  -24.05   50.05
  -1   4  -4  -36.80   40.82
   1  -4   5   40.82   43.47
   1   4  -5  -51.52   46.63
  -1  -4  -5   22.73   43.88
   1   4   5   63.25   38.94
  -1  -4   5  104.93   49.33
  -1   4  -5   30.93   45.61
   1  -4   6  -59.42   52.65
   1   4  -6    0.66   53.87
  -1  -4  -6  -12.89   39.90
   1   4   6   32.62   42.35
  -1  -4   6  -65.79   48.57
   1  -4   7   39.19   45.00
  -1   4   7   28.08   37.87
   1   4  -7  -53.82   45.05
  -1  -4  -7  -17.63   46.43
   1   4   7   43.37   42.96
  -1  -4   7   69.82   50.15
   1  -4  -7   29.30   40.11
  -1   4  -7   56.01   41.84
   1  -4   8   27.16   43.27
  -1   4   8   -9.07   45.82
   1   4  -8   94.49   41.48
  -1  -4  -8   13.00   40.67
   1   4   8   79.96   40.92
  -1  -4   8  -15.44   47.40
   1  -4  -8  -23.39   36.23
  -1   4  -8   99.74   43.57
  -1   4   9  -27.16   40.67
   1   4  -9  -13.76   35.52
  -1  -4  -9    3.67   41.84
   1   4   9   27.62   42.55
  -1  -4   9  -21.71   43.22
   1  -4  -9  -97.03   38.94
  -1   4  -9   -3.92   40.16
   1  -4  10    1.68   41.03
  -1   4  10   98.46   43.98
   1   4 -10  -71.76   43.42
  -1  -4 -10   11.01   43.52
   1   4  10  100.55   46.17
  -1  -4  10   94.49   49.64
   1  -4 -10    0.82   42.10
  -1   4 -10   81.39   41.59
   1  -4  11   42.04   52.44
  -1   4  11   17.99   47.19
   1   4 -11   43.52   46.43
  -1  -4 -11    0.36   49.94
   1   4  11   68.44   47.29
  -1  -4  11  -15.34   52.08
   1  -4 -11   52.59   47.29
  -1   4 -11   88.32   52.14
   1   5  -3  741.01   97.24
  -1  -5   3  923.96  117.42
   1   5  -4  402.00   65.90
  -1  -5   4  440.22   68.90
   1  -5   5  244.62   53.36
   1   5  -5   88.32   45.41
  -1  -5   5  157.12   52.14
  -1   5  -5  219.55   53.26
   1  -5   6   70.07   44.54
   1   5  -6   11.42   48.26
  -1  -5   6  108.55   47.80
  -1   5  -6   36.08   48.11
   1  -5   7  -36.59   43.93
   1   5  -7   11.11   46.07
  -1  -5  -7  -21.30   37.97
   1   5   7  -42.45   36.85
  -1  -5   7   50.35   48.57
  -1   5  -7   13.20   39.24
   1  -5   8   51.32   43.17
   1   5  -8   29.81   42.86
  -1  -5  -8   11.26   35.01
   1   5   8   -9.58   34.45
  -1  -5   8   51.93   44.13
  -1   5  -8   50.50   35.32
   1  -5   9   52.90   49.38
  -1   5   9   89.44   40.67
   1   5  -9   37.61   38.53
  -1  -5  -9   32.97   38.22
   1   5   9  108.45   41.94
  -1  -5   9  -17.43   42.71
   1  -5  -9   74.41   40.62
  -1   5  -9   53.87   43.62
   1   5 -10  289.57   57.59
  -1  -5 -10  226.07   51.37
   1   5  10  292.02   56.11
  -1  -5  10  293.40   61.05
   1  -5 -10  346.40   62.18
  -1   5 -10  125.01   47.96
   1  -5  11   71.30   46.99
  -1   5  11   25.38   49.23
   1   5 -11  114.72   49.08
  -1  -5 -11   80.37   51.93
   1   5  11   73.69   51.98
  -1  -5  11  -55.14   56.06
   1  -5 -11   81.90   49.03
  -1   5 -11   91.78   49.03
   1   6  -4   71.55   40.87
  -1  -6   4   28.08   45.10
   1   6  -5   58.86   52.44
  -1  -6   5   59.17   43.68
   1  -6   6  -31.85   40.21
   1   6  -6    8.15   42.25
  -1  -6   6   47.65   48.26
  -1   6  -6   78.74   44.75
   1  -6   7   59.47   41.69
   1   6  -7   73.34   44.03
  -1  -6   7  103.40   49.03
  -1   6  -7   -7.64   37.92
   1  -6   8   -1.48   42.40
   1   6  -8   70.79   38.22
  -1  -6  -8  -29.56   34.35
   1   6   8  -23.04   33.18
  -1  -6   8   98.00   47.34
  -1   6  -8   32.11   35.22
   1  -6   9  141.88   49.49
   1   6  -9   19.32   40.62
  -1  -6  -9   -7.70   39.29
   1   6   9   34.25   38.53
  -1  -6   9    8.97   45.51
  -1   6  -9   49.84   41.03
   1  -6  10   97.95   50.40
  -1   6  10   21.66   41.89
   1   6 -10  -31.19   48.92
  -1  -6 -10  -44.75   40.77
   1   6  10   29.00   43.47
  -1  -6  10  -93.26   51.52
   1  -6 -10  -45.15   41.54
  -1   6 -10   -1.83   42.40
  -1   6  11   17.68   45.71
   1   6 -11  104.78   49.79
  -1  -6 -11   43.88   46.48
   1   6  11  -30.83   47.09
  -1  -6  11  -21.00   50.10
   1  -6 -11  -14.83   48.36
  -1   6 -11   59.83   45.61
   1   7  -5  -11.42   45.92
  -1  -7   5   50.15   46.58
   1  -7   6   -7.29   48.67
   1   7  -6  135.10   44.59
  -1  -7   6  -30.93   43.47
   1  -7   7  -35.73   40.26
   1   7  -7   66.15   43.17
  -1  -7   7   85.57   46.33
  -1   7  -7   35.78   39.90
   1  -7   8   28.23   42.40
   1   7  -8  -16.87   38.12
  -1  -7   8   34.86   40.36
  -1   7  -8    4.03   38.99
   1  -7   9  -63.45   47.40
   1   7  -9   44.39   41.54
  -1  -7  -9   28.39   38.99
  -1  -7   9    5.96   48.36
  -1   7  -9   20.59   41.64
   1  -7  10   -6.12   46.33
   1   7 -10   59.22   48.82
  -1  -7 -10   81.59   45.71
   1   7  10  -46.84   47.04
  -1  -7  10  -17.84   51.01
  -1   7 -10  -64.37   42.55
   1  -7  11   39.50   54.89
   1   7 -11   84.19   47.60
  -1  -7 -11    7.59   45.87
   1   7  11  -23.75   47.24
  -1  -7  11  120.27   58.00
   1  -7 -11  141.93   51.17
  -1   7 -11   11.47   45.92
   1   8  -5   -0.76   43.57
  -1  -8   5   69.00   45.61
   1   8  -6  925.49  118.59
  -1  -8   6  997.35  126.59
   1  -8   7   42.86   45.46
   1   8  -7   54.28   36.64
  -1  -8   7   26.60   40.06
  -1   8  -7   56.57   37.76
   1  -8   8  927.02  122.16
   1   8  -8 1101.83  138.47
  -1  -8   8  841.91  111.51
  -1   8  -8 1082.97  136.63
   1  -8   9  -35.78   44.34
   1   8  -9   45.97   43.22
  -1  -8   9   81.90   48.52
  -1   8  -9   33.94   43.11
   1  -8  10   89.75   53.31
   1   8 -10  -41.59   47.40
  -1  -8  10  104.27   52.95
  -1   8 -10   82.05   45.46
   1   9  -6   -9.43   39.70
  -1  -9   6   24.46   38.12
   1   9  -7  -18.91   39.50
  -1  -9   7    8.00   42.30
   1  -9   8   33.23   46.17
   1   9  -8   34.09   38.32
  -1  -9   8   44.95   45.87
  -1   9  -8  -33.08   37.41
   1  -9   9   10.80   49.74
   1   9  -9   -6.06   39.19
  -1  -9   9  -19.57   45.77
  -1   9  -9   25.18   46.02
   1  -9  10   21.91   52.75
   1   9 -10   75.17   45.92
  -1  -9  10  -48.57   52.59
  -1   9 -10   32.67   42.61
   1  10  -7  -37.92   36.69
  -1 -10   7   19.16   42.81
   1 -10   8  226.12   52.24
   1  10  -8  331.72   59.22
  -1 -10   8  227.40   56.16
   1 -10   9   22.53   49.64
   1  10  -9   -7.24   43.01
  -1 -10   9  -31.39   50.00
  -1  10  -9  144.53   48.67
   1 -10  10  170.12   55.65
   1  10 -10    5.81   42.25
  -1 -10  10   34.55   48.31
  -1  10 -10   26.20   45.92
  -1 -11   7   11.21   41.94
   1  11  -8  -79.66   40.82
  -1 -11   8  -64.32   45.82
   1 -11   9   27.06   52.95
   1  11  -9   -4.54   45.97
  -1 -11   9   62.74   53.21
   1  12  -8  145.19   43.73
  -1 -12   8   82.82   49.89
   1  12  -9  -30.78   43.11
  -1 -12   9  -47.75   43.62
   2   0   2  729.79   93.77
  -2   0  -2  761.90   98.00
   2   0   3  821.02  105.29
  -2   0   3  889.31  116.30
   2   0  -3  964.74  125.37
   2   0   4  343.39   56.06
  -2   0   4  625.83   88.12
  -2   0  -4  389.00   69.31
  -2   0   5  463.10   71.65
   2   0  -5  475.23   74.97
  -2   0  -5  308.63   59.53
   2   0   6   12.49   45.10
  -2   0   6   64.32   52.49
   2   0  -6   27.37   46.33
  -2   0  -6   68.24   43.11
   2   0   7  143.77   48.57
  -2   0   7   98.26   46.58
   2   0  -7  110.34   40.21
  -2   0  -7   96.58   45.10
   2   0   8  132.05   46.43
  -2   0   8  113.70   47.29
   2   0  -8   14.63   39.70
  -2   0  -8   77.92   40.36
   2   0   9  204.41   50.81
   2   0  -9  135.10   44.85
  -2   0  -9  219.75   52.75
   2   0  10  116.25   47.50
  -2   0  10  -32.00   47.24
   2   0 -10    7.70   45.82
  -2   0 -10   79.76   46.02
   2   0  11  -38.02   50.45
  -2   0  11   63.96   50.00
   2   0 -11   58.86   48.26
  -2   0 -11   21.71   47.55
   2   0  12  -13.56   48.01
  -2   0  12   24.11   50.15
   2   0 -12   45.77   44.44
  -2   0 -12  -56.06   50.96
   2   1  -1    6.93   37.51
  -2  -1   1  -77.67   42.81
  -2  -1  -2   37.25   37.36
   2   1   2   44.90   37.97
  -2  -1   2  136.43   46.99
   2   1  -3   32.67   58.96
  -2  -1  -3   41.33   54.33
   2   1   3  -40.11   40.62
  -2  -1   3   61.97   52.24
  -2   1  -3   96.58   52.75
   2  -1   4   23.85   47.24
  -2   1   4   40.77   46.12
   2   1  -4   16.77   49.08
  -2  -1  -4  -44.34   42.40
  -2  -1   4  -16.05   49.33
   2  -1  -4    6.06   45.00
  -2   1  -4  -68.65   47.09
  -2   1   5  -61.10   41.59
   2   1  -5    3.87   46.58
  -2  -1  -5  -77.62   40.11
   2   1   5  -69.21   40.97
  -2  -1   5   79.45   46.68
   2  -1  -5  -89.95   48.57
  -2   1  -5  -20.44   52.95
  -2   1   6  -10.45   43.01
   2   1  -6   31.29   44.49
  -2  -1  -6   42.50   48.72
   2   1   6   -3.77   42.76
  -2  -1   6   37.36   48.16
   2  -1  -6  -46.68   45.26
  -2   1  -6   77.87   47.09
   2  -1   7   10.45   45.05
  -2   1   7    9.07   56.01
   2   1  -7   12.28   39.85
  -2  -1  -7   37.31   41.99
   2   1   7   50.61   46.99
  -2  -1   7   28.44   46.58
   2  -1  -7   20.03   39.04
  -2   1  -7   97.09   42.91
   2  -1   8   20.59   40.92
   2   1  -8   66.97   39.39
  -2  -1  -8   -2.29   41.23
   2   1   8   51.32   43.37
  -2  -1   8   56.67   47.70
   2  -1  -8    8.46   39.75
  -2   1  -8  -31.70   35.98
   2  -1   9    9.68   39.65
  -2   1   9   28.44   41.69
   2   1  -9  -18.55   38.27
  -2  -1  -9   42.86   38.94
   2   1   9   47.55   42.25
  -2  -1   9   84.65   44.39
   2  -1  -9  105.19   44.44
  -2   1  -9   46.68   41.43
   2  -1  10   -6.06   44.13
  -2   1  10 -120.99   48.36
   2   1 -10   60.49   42.10
  -2  -1 -10   16.82   40.77
   2   1  10  -23.55   42.76
   2  -1 -10   35.93   44.54
  -2   1 -10  -50.86   38.99
   2  -1  11    8.21   53.87
  -2   1  11   19.16   47.91
   2   1 -11   68.04   50.50
  -2  -1 -11   26.35   48.77
   2   1  11   24.00   53.46
  -2  -1  11   53.82   53.15
   2  -1 -11  -67.78   46.63
  -2   1 -11   13.30   48.21
   2  -1  12   43.32   53.66
  -2   1  12  -15.34   49.74
   2   1 -12   -7.34   54.94
  -2  -1 -12  -20.03   40.52
   2   1  12  -13.30   52.03
  -2  -1  12    1.38   50.20
   2  -1 -12  -20.18   46.68
  -2   1 -12  -19.01   51.12
   2   2   0   61.26   28.39
  -2  -2   0   86.64   32.26
   2   2  -1  -46.07   36.13
  -2  -2  -1   11.77   21.35
   2   2   1  -50.61   20.39
  -2  -2   1   29.81   44.90
  -2  -2  -2   12.59   36.85
   2   2   2   40.62   36.13
  -2  -2   2  -50.40   47.09
   2   2  -3   47.04   45.51
  -2  -2  -3  187.14   46.07
  -2  -2   3   90.41   44.54
   2  -2   4  -33.23   40.97
   2   2  -4  -33.69   44.80
  -2  -2  -4  -10.04   41.48
   2   2   4   45.36   44.29
  -2  -2   4  -15.39   48.98
  -2   2  -4  -26.20   44.19
   2  -2   5   25.74   43.88
  -2   2   5   29.51   39.55
   2   2  -5    9.99   47.80
  -2  -2  -5  -18.50   40.67
   2   2   5  -29.15   42.35
  -2  -2   5  -44.08   43.37
   2  -2  -5  -59.63   43.47
  -2   2  -5  -44.44   44.13
  -2   2   6    2.24   47.85
   2   2  -6  -28.64   55.70
  -2  -2  -6   25.63   44.24
   2   2   6   22.68   44.19
  -2  -2   6  -22.83   48.36
   2  -2  -6   50.96   41.48
  -2   2  -6   50.00   39.70
   2  -2   7   41.84   43.57
   2   2  -7   61.21   42.81
  -2  -2  -7  -27.67   41.03
   2   2   7   -2.60   43.68
  -2  -2   7  130.92   52.14
   2  -2  -7  -17.94   39.90
  -2   2  -7   57.23   44.85
   2  -2   8  -54.38   43.57
  -2   2   8  -10.55   41.89
   2   2  -8   37.87   42.66
  -2  -2  -8   35.47   40.82
   2   2   8  -44.49   43.22
  -2  -2   8   22.58   50.25
   2  -2  -8   31.39   39.60
  -2   2  -8  -51.32   40.26
   2  -2   9   90.31   46.33
  -2   2   9   71.09   44.85
   2   2  -9   11.62   33.89
  -2  -2  -9  -30.27   39.90
   2   2   9    5.86   44.03
  -2  -2   9   39.90   43.42
   2  -2  -9   21.61   39.55
  -2   2  -9   71.40   41.99
   2  -2  10   -3.57   48.01
  -2   2  10   70.89   47.75
   2   2 -10   22.22   47.14
  -2  -2 -10   63.25   42.15
   2   2  10  -86.03   44.85
  -2  -2  10   56.98   51.78
   2  -2 -10  119.46   47.19
  -2   2 -10  -23.90   41.94
   2  -2  11   41.03   53.77
  -2   2  11   30.17   50.71
   2   2 -11   16.00   47.60
  -2  -2 -11   12.23   47.24
   2   2  11  -17.63   50.05
   2  -2 -11   20.49   44.34
  -2   2 -11  -24.51   45.15
   2  -2  12   -7.13   54.02
  -2   2  12   10.55   51.98
   2   2 -12   28.03   46.12
  -2  -2 -12   85.21   50.76
   2   2  12   58.96   49.23
  -2  -2  12    5.91   52.75
   2  -2 -12  -42.35   51.47
  -2   2 -12  -44.95   50.71
   2   3  -1   10.96   37.00
  -2  -3   1  -35.27   45.82
   2   3  -2  439.05   69.97
  -2  -3   2  387.58   63.55
   2   3  -3  335.44   61.16
  -2  -3  -3  315.97   49.89
   2   3   3  254.36   47.60
  -2  -3   3  367.80   66.61
   2  -3   4  118.29   44.39
   2   3  -4   96.17   48.01
  -2  -3  -4   91.89   33.69
   2   3   4  114.06   41.64
  -2  -3   4  107.48   45.82
   2  -3   5  127.97   45.66
   2   3  -5  196.57   55.75
  -2  -3  -5  143.36   44.69
   2   3   5   95.96   41.23
  -2  -3   5  114.06   47.60
  -2   3  -5   88.42   48.36
   2  -3   6   76.90   46.89
   2   3  -6   10.35   53.66
  -2  -3  -6  -91.53   41.23
   2   3   6    3.57   40.46
  -2  -3   6    5.35   46.53
  -2   3  -6   43.01   40.01
  -2   3   7  190.65   50.61
   2   3  -7  126.19   54.48
  -2  -3  -7  113.19   50.91
   2   3   7   79.35   46.43
  -2  -3   7   70.94   49.59
   2  -3  -7  132.66   44.03
  -2   3  -7  129.09   44.03
   2  -3   8  130.36   44.19
  -2   3   8   29.61   38.78
   2   3  -8   47.65   39.19
  -2  -3  -8   19.42   40.72
   2   3   8   -8.15   39.65
  -2  -3   8   -2.55   48.21
   2  -3  -8   -4.74   34.15
  -2   3  -8  112.22   39.09
   2  -3   9  -26.30   43.68
  -2   3   9  -33.89   38.38
   2   3  -9   99.84   40.57
  -2  -3  -9   39.14   42.20
   2   3   9  -70.64   45.51
  -2  -3   9  -31.60   44.24
   2  -3  -9  -17.23   33.99
  -2   3  -9   16.05   38.99
   2  -3  10   42.10   46.02
  -2   3  10  -27.62   48.72
   2   3 -10   85.52   47.19
  -2  -3 -10   43.52   43.93
   2   3  10  -82.05   43.93
  -2  -3  10   66.97   47.80
   2  -3 -10  -14.88   37.81
  -2   3 -10  -86.23   44.08
   2  -3  11  -25.07   47.50
  -2   3  11    3.41   50.61
   2   3 -11    2.96   47.14
  -2  -3 -11  -27.06   48.98
   2   3  11   26.76   47.40
  -2  -3  11   80.98   57.49
   2  -3 -11  -22.07   45.20
  -2   3 -11   26.65   47.65
   2   4  -2   86.79   44.49
  -2  -4   2   42.61   51.98
   2   4  -3  -16.16   40.26
  -2  -4   3  -28.85   44.85
   2   4  -4   35.73   44.24
  -2  -4  -4   42.25   34.60
   2   4   4   34.04   38.22
  -2  -4   4  -16.92   49.59
   2  -4   5   46.02   45.92
   2   4  -5  -22.22   49.18
  -2  -4  -5   22.73   39.55
   2   4   5   -0.66   38.48
  -2  -4   5   69.16   51.07
  -2   4  -5   13.66   46.53
   2  -4   6   40.16   46.33
   2   4  -6   73.59   51.52
  -2  -4  -6  -33.28   40.06
   2   4   6  -11.01   42.50
  -2  -4   6   21.81   47.14
  -2   4  -6   65.44   42.15
   2  -4   7   19.98   42.71
   2   4  -7   55.04   46.12
  -2  -4  -7   49.38   39.39
   2   4   7   28.95   40.26
  -2  -4   7  -60.60   48.31
  -2   4  -7    8.21   37.97
  -2   4   8  -76.80   35.73
   2   4  -8   61.61   45.20
  -2  -4  -8    4.89   36.13
   2   4   8   38.22   36.08
  -2  -4   8   45.20   42.91
   2  -4  -8   43.68   38.58
  -2   4  -8  -11.87   36.85
   2  -4   9  -45.61   43.37
  -2   4   9   -5.96   38.73
   2   4  -9   30.73   39.09
  -2  -4  -9   21.10   36.80
   2   4   9   -3.21   38.73
  -2  -4   9   26.76   43.57
   2  -4  -9    8.46   36.69
  -2   4  -9  103.30   43.73
   2  -4  10    8.61   46.78
  -2   4  10   19.06   42.66
   2   4 -10    2.40   43.27
  -2  -4 -10    0.56   41.79
   2   4  10    0.41   38.99
  -2  -4  10  -26.09   42.76
   2  -4 -10   82.10   42.15
  -2   4 -10  -26.76   44.85
   2  -4  11    5.55   51.22
  -2   4  11  -14.88   52.19
   2   4 -11   58.86   47.04
  -2  -4 -11  -48.26   46.58
   2   4  11  -80.27   50.10
  -2  -4  11   29.81   54.12
   2  -4 -11  -21.76   46.94
  -2   4 -11   49.49   48.92
   2   5  -2  236.72   50.20
  -2  -5   2  206.76   47.09
   2   5  -3  193.76   51.68
  -2  -5   3  238.00   51.52
   2   5  -4  300.17   55.86
  -2  -5   4  310.98   58.76
   2   5  -5    9.78   47.29
  -2  -5   5  101.98   41.64
   2   5  -6  -21.66   44.69
  -2  -5  -6  -24.67   41.03
   2   5   6  113.60   40.57
  -2  -5   6  -31.29   49.38
   2  -5   7  362.86   64.93
   2   5  -7  307.26   61.00
  -2  -5  -7  437.72   66.86
   2   5   7  279.94   52.70
  -2  -5   7  537.66   81.44
  -2   5  -7  273.57   53.82
   2  -5   8   21.30   44.08
   2   5  -8    3.87   37.66
  -2  -5  -8  -11.06   39.90
   2   5   8  -25.84   37.00
  -2  -5   8   -4.54   46.02
  -2   5  -8   -4.48   36.03
   2   5  -9  149.78   44.54
  -2  -5  -9   75.99   42.50
   2   5   9   15.75   41.59
  -2  -5   9   87.05   47.65
   2  -5  -9   28.34   35.47
  -2   5  -9   76.14   42.61
   2  -5  10   67.37   50.20
  -2   5  10   90.05   43.52
   2   5 -10   81.08   50.20
  -2  -5 -10   66.61   41.84
   2   5  10   72.42   47.09
  -2  -5  10   11.26   51.93
   2  -5 -10   33.64   42.20
  -2   5 -10   75.88   45.05
   2  -5  11  147.18   59.27
  -2   5  11  123.59   50.61
   2   5 -11  132.61   50.91
  -2  -5 -11  222.15   57.49
   2   5  11  131.49   54.94
  -2  -5  11  249.62   64.62
   2  -5 -11  229.59   54.02
  -2   5 -11  179.14   53.21
   2   6  -3   99.38   42.45
  -2  -6   3  211.19   55.70
   2   6  -4  -11.72   45.41
  -2  -6   4   26.96   45.15
   2   6  -5   35.06   53.66
  -2  -6   5   74.25   45.36
   2   6  -6  203.96   49.43
  -2  -6   6  163.95   50.50
   2  -6   7  -90.26   43.11
  -2  -6  -7   24.21   39.04
   2   6   7  -32.46   29.97
  -2  -6   7  114.67   47.80
  -2   6  -7   -6.88   40.77
   2  -6   8  -38.38   38.63
   2   6  -8   24.36   35.16
  -2  -6  -8  -19.42   42.10
   2   6   8   88.68   39.90
  -2  -6   8   -7.19   43.52
  -2   6  -8   31.34   32.41
   2  -6   9   38.38   46.99
   2   6  -9  -14.17   40.82
  -2  -6  -9  -53.87   38.78
   2   6   9  -96.27   39.96
  -2  -6   9  -72.67   50.45
  -2   6  -9  -36.44   42.66
   2   6 -10   35.62   46.94
  -2  -6 -10  -17.17   42.35
   2   6  10   27.98   49.54
  -2  -6  10  -74.41   51.78
  -2   6 -10   -9.78   42.81
   2  -6  11   71.55   56.67
   2   6 -11   93.72   48.92
  -2  -6 -11  -78.48   51.12
   2   6  11   38.83   48.16
  -2  -6  11    4.99   54.07
   2  -6 -11   41.64   44.54
   2   7  -4   -9.63   42.25
  -2  -7   4   -0.66   43.22
   2   7  -5   30.12   43.17
  -2  -7   5    5.61   45.87
   2   7  -6    4.28   41.54
  -2  -7   6  -41.69   43.32
   2  -7   7   -6.17   43.11
   2   7  -7  -26.14   32.87
  -2  -7   7   22.22   41.69
   2  -7   8   26.86   43.83
   2   7  -8  -38.43   35.67
  -2  -7  -8   -3.52   35.62
  -2  -7   8  -47.70   40.41
  -2   7  -8   37.31   36.74
   2  -7   9   38.22   45.10
   2   7  -9  -13.30   42.71
  -2  -7  -9   37.76   37.76
   2   7   9   -4.84   39.65
  -2  -7   9   14.58   46.84
  -2   7  -9   17.17   42.04
   2  -7  10   67.63   50.00
   2   7 -10   21.40   46.58
  -2  -7 -10   -9.63   47.50
   2   7  10   46.58   45.36
  -2  -7  10   33.33   52.59
  -2   7 -10   -1.99   43.98
   2   7 -11  -62.48   43.62
  -2  -7 -11   18.70   43.37
   2   7  11   35.73   43.42
  -2  -7  11   55.60   56.47
  -2   7 -11  -46.02   45.05
   2   8  -5  -13.35   39.50
  -2  -8   5  -55.70   42.45
   2   8  -6 -107.94   40.82
  -2  -8   6  -35.01   39.39
   2   8  -7  140.35   39.50
  -2  -8   7  152.33   45.05
   2  -8   8  -64.42   42.35
   2   8  -8   -0.05   35.98
  -2  -8   8   -5.45   40.46
  -2   8  -8   25.74   38.27
   2  -8   9   44.24   46.63
   2   8  -9  160.84   47.29
  -2  -8   9  181.79   55.09
  -2   8  -9   68.39   42.55
   2  -8  10   -6.93   52.03
   2   8 -10   79.50   46.07
  -2  -8 -10  -29.10   46.17
   2   8  10   56.57   39.85
  -2  -8  10   89.03   54.33
  -2   8 -10   49.69   46.78
   2   9  -5  -35.83   41.38
  -2  -9   5   45.92   40.97
   2   9  -6    7.03   42.20
  -2  -9   6  -25.79   40.36
   2   9  -7  -48.42   35.52
  -2  -9   7   30.48   42.10
   2   9  -8  -35.62   35.98
  -2  -9   8   40.52   43.52
   2  -9   9  -51.37   48.57
   2   9  -9   36.23   43.27
  -2  -9   9   48.92   50.66
  -2   9  -9   51.42   47.91
   2  -9  10  -36.85   53.05
   2   9 -10   16.77   47.45
  -2  -9  10  -10.19   49.43
  -2   9 -10   26.76   44.49
   2  10  -6   -1.27   36.49
  -2 -10   6  120.53   44.34
   2  10  -7   44.49   35.73
  -2 -10   7   34.66   42.71
   2  10  -8    2.19   38.73
  -2 -10   8   14.07   45.82
   2 -10   9   55.19   45.56
   2  10  -9   21.46   47.04
  -2 -10   9  117.67   53.51
   2 -10  10   71.65   50.81
   2  10 -10  -26.70   47.80
  -2 -10  10   49.69   49.43
  -2  10 -10  124.61   47.60
  -2 -11   6   -3.82   41.13
   2  11  -7    5.35   40.36
  -2 -11   7   -3.82   42.45
   2  11  -8  -31.55   43.37
  -2 -11   8  -19.93   46.07
   2  11  -9   36.85   48.98
  -2 -11   9   36.29   48.82
  -2 -12   7  -17.43   47.45
   2  12  -8   -7.54   43.01
  -2 -12   8  -55.86   46.33
   2  12  -9   77.11   47.19
  -2 -12   9   38.02   48.62
  -2 -13   8   -4.23   46.84
   3   0  -3 9999.00 1159.42
   3   0   4   45.77   30.17
  -3   0   4   17.43   46.38
   3   0  -4  112.58   48.77
  -3   0  -4   81.24   40.92
   3   0   5 1699.12  203.34
  -3   0   5 1407.61  171.39
  -3   0  -5 1670.58  200.34
   3   0   6   99.43   44.80
  -3   0   6   79.81   49.03
   3   0  -6   22.53   46.12
  -3   0  -6   82.46   48.77
   3   0   7 1084.50  136.84
  -3   0   7  745.08  102.13
   3   0  -7  756.81  101.47
   3   0   8   34.25   43.17
  -3   0   8  -27.83   48.26
   3   0  -8    6.37   37.51
  -3   0  -8    3.06   41.13
   3   0   9  153.35   49.03
  -3   0   9   44.85   45.41
   3   0  -9   29.20   37.87
  -3   0  -9   43.01   38.94
   3   0  10   -2.14   41.23
   3   0 -10   43.62   43.11
  -3   0 -10    4.28   40.31
   3   0  11  190.09   60.19
  -3   0  11  167.31   59.47
   3   0 -11   60.44   52.29
  -3   0 -11  222.71   58.35
   3   0  12   37.76   53.97
  -3   0  12   28.69   54.43
   3   0 -12   -7.24   56.57
  -3   0 -12    3.67   44.24
   3   1  -2 1022.32  129.29
  -3  -1   2  935.69  120.22
   3   1  -3   41.33   46.53
  -3  -1  -3  -64.72   42.45
  -3  -1   3   20.44   48.26
   3   1  -4  402.81   66.91
  -3  -1  -4  625.32   85.98
  -3  -1   4  379.57   67.12
   3  -1   5  -29.81   41.54
  -3   1   5  -28.64   41.74
   3   1  -5  -34.35   47.19
  -3  -1  -5  -39.80   42.10
   3   1   5  125.52   45.31
  -3  -1   5   75.53   47.40
   3  -1  -5  -46.78   46.07
  -3   1  -5    8.21   44.64
   3  -1   6  237.03   54.58
  -3   1   6  162.06   53.51
   3   1  -6  149.93   59.37
   3   1   6  327.90   60.65
  -3  -1   6   91.48   52.08
   3  -1  -6  203.19   52.29
  -3   1  -6  309.60   59.37
   3  -1   7  -14.88   43.06
  -3   1   7   86.03   45.05
   3   1  -7   20.89   42.66
  -3  -1  -7   20.54   42.04
   3   1   7  -33.33   43.01
  -3  -1   7  -44.08   49.18
   3  -1  -7   34.15   33.38
  -3   1  -7   29.81   41.48
   3  -1   8  -14.58   43.06
  -3   1   8  -22.68   41.28
   3   1  -8   27.11   41.54
  -3  -1  -8   37.46   40.11
   3   1   8   12.69   43.37
  -3  -1   8   14.27   47.80
   3  -1  -8   22.93   40.77
  -3   1  -8  -56.11   37.76
   3  -1   9   -1.17   41.38
   3   1  -9   40.26   37.71
  -3  -1  -9  -58.45   40.62
   3   1   9   38.02   46.94
  -3  -1   9  -33.64   43.01
   3  -1  -9  -32.92   40.26
  -3   1  -9   -2.65   38.07
   3  -1  10  -21.76   43.22
  -3   1  10   86.64   50.91
   3   1 -10    2.85   44.75
  -3  -1 -10   91.33   43.78
   3   1  10  -13.86   44.54
  -3  -1  10  -58.91   51.63
   3  -1 -10   47.14   45.15
  -3   1 -10  -17.28   45.77
   3  -1  11 -191.21   57.03
  -3   1  11   16.05   52.19
   3   1 -11   23.09   46.99
  -3  -1 -11  -86.08   46.89
   3   1  11    8.10   48.77
   3  -1 -11   47.75   51.88
  -3   1 -11    0.92   51.73
   3  -1  12  -27.62   56.67
  -3   1  12   72.06   53.92
   3   1 -12   -6.78   49.28
   3   1  12    8.41   49.69
  -3  -1  12    8.36   54.63
   3   2  -1  371.62   56.52
  -3  -2   1  193.41   53.46
   3   2  -2   42.86   46.33
  -3  -2  -2   -6.98   34.76
  -3  -2   2  -17.58   42.30
   3   2  -3  730.81   97.80
  -3  -2  -3  658.45   84.40
   3   2   3  963.21  119.00
  -3  -2   3  700.75   97.24
   3   2  -4   -1.73   46.58
  -3  -2  -4   12.38   30.53
   3   2   4  -42.61   39.65
  -3  -2   4   55.55   46.63
   3   2  -5  183.21   54.99
  -3  -2  -5  201.36   46.68
   3   2   5  157.02   44.39
  -3  -2   5  183.62   50.40
  -3   2  -5  145.86   51.57
   3  -2   6  -33.94   42.55
  -3   2   6  114.97   45.92
   3   2  -6   66.86   51.27
  -3  -2  -6   59.27   40.77
   3   2   6    4.74   41.18
  -3  -2   6   11.62   46.68
   3  -2  -6   11.87   42.50
  -3   2  -6  -42.25   44.85
   3  -2   7   94.94   45.51
  -3   2   7   76.39   44.90
   3   2  -7   96.78   52.49
  -3  -2  -7   32.46   47.80
   3   2   7  106.72   47.14
  -3  -2   7   87.96   48.87
   3  -2  -7   42.55   36.74
  -3   2  -7   42.45   39.14
   3  -2   8   94.38   42.30
   3   2  -8   56.26   40.46
  -3  -2  -8   28.49   40.46
   3   2   8   64.52   40.36
  -3  -2   8   -0.15   48.16
   3  -2  -8  -24.87   36.08
  -3   2  -8   96.37   40.52
   3  -2   9  -19.11   39.19
  -3   2   9  -64.88   41.28
   3   2  -9  -17.07   37.87
  -3  -2  -9  -64.01   40.97
   3   2   9   40.82   42.76
  -3  -2   9   30.02   45.20
   3  -2  -9  -17.07   41.59
  -3   2  -9  -37.71   35.27
   3  -2  10  -46.22   46.84
  -3   2  10  102.28   48.47
   3   2 -10   -3.41   44.54
  -3  -2 -10   21.05   44.69
   3   2  10  -17.53   41.99
  -3  -2  10   41.28   46.99
   3  -2 -10   35.01   43.93
  -3   2 -10   57.28   40.92
   3  -2  11   -2.80   53.87
  -3   2  11    2.09   48.16
   3   2 -11   35.98   46.63
  -3  -2 -11   22.22   49.74
   3   2  11  -58.15   47.80
  -3  -2  11  -21.61   53.97
   3  -2 -11   36.90   47.75
  -3   2 -11   64.32   47.09
   3   3   0   -5.96   27.47
  -3  -3   0  -12.49   25.43
   3   3  -1  118.44   37.71
  -3  -3   1  104.37   39.90
   3   3  -2  671.19   90.36
  -3  -3  -2  542.25   69.11
   3   3   2  648.25   80.98
  -3  -3   2  534.61   79.35
   3   3  -3  186.12   46.68
  -3  -3  -3  210.68   39.70
   3   3   3  232.60   43.37
  -3  -3   3  286.92   57.38
   3   3  -4  102.95   45.51
   3   3   4  198.35   44.69
  -3  -3   4  308.43   63.65
   3  -3   5   28.59   42.71
   3   3  -5  138.01   56.16
  -3  -3  -5   54.99   38.43
   3   3   5   10.35   40.26
  -3  -3   5  139.49   52.14
  -3   3  -5   39.90   44.39
   3   3  -6   55.91   50.86
  -3  -3  -6   21.61   42.15
   3   3   6  149.37   47.40
  -3  -3   6  -34.20   48.26
  -3   3  -6   73.23   39.34
   3  -3   7  -78.74   44.49
   3   3  -7   17.53   46.17
  -3  -3  -7  -11.62   38.58
   3   3   7  -21.30   41.69
  -3  -3   7   34.35   47.29
  -3   3  -7   10.91   41.64
   3  -3   8  -14.78   39.24
  -3   3   8   42.04   39.75
   3   3  -8  -18.14   42.91
  -3  -3  -8   -7.80   35.78
   3   3   8  -30.83   34.96
  -3  -3   8  -22.73   41.94
   3  -3  -8   27.47   35.06
  -3   3  -8   22.07   37.46
   3  -3   9   26.50   39.09
  -3   3   9  -34.40   40.36
   3   3  -9   76.34   40.26
  -3  -3  -9  -49.08   37.00
   3   3   9   56.42   40.82
  -3  -3   9   16.21   45.36
   3  -3  -9   59.58   37.81
  -3   3  -9   25.33   38.07
   3  -3  10   39.96   46.17
  -3   3  10   55.60   46.89
   3   3 -10  -41.33   41.38
  -3  -3 -10    6.22   42.15
   3   3  10  -62.94   37.66
  -3  -3  10  111.25   45.66
   3  -3 -10   34.45   43.52
  -3   3 -10   22.93   41.08
   3  -3  11  -35.83   49.28
  -3   3  11   68.85   48.26
   3   3 -11   -1.68   45.82
  -3  -3 -11   67.27   49.08
   3   3  11   32.26   49.49
  -3  -3  11    6.57   52.24
   3  -3 -11   -7.19   43.68
  -3   3 -11  -28.69   44.44
  -3  -4   1   52.03   43.27
   3   4  -2  -15.03   44.34
  -3  -4   2  -54.43   43.11
   3   4  -3  205.64   55.09
  -3  -4  -3  153.86   35.52
   3   4   3  238.15   40.62
  -3  -4   3  294.11   58.00
   3   4  -4  -89.34   46.17
   3   4   4   54.99   38.94
  -3  -4   4   -9.58   42.91
   3   4  -5   45.05   46.68
  -3  -4  -5    2.14   43.62
   3   4   5   47.40   41.33
  -3  -4   5   75.68   47.80
   3  -4   6   -9.63   48.57
   3   4  -6  -36.29   48.92
  -3  -4  -6   38.88   40.62
   3   4   6   34.50   38.83
  -3  -4   6   66.97   48.92
  -3   4  -6  -22.88   42.40
   3   4  -7   59.32   45.82
  -3  -4  -7   63.25   40.72
   3   4   7  -24.67   38.94
  -3  -4   7   85.06   49.28
  -3   4  -7  123.08   42.91
   3  -4   8   61.61   40.87
   3   4  -8    0.36   38.48
  -3  -4  -8  110.95   43.62
   3   4   8    1.83   38.88
  -3  -4   8   42.10   46.02
  -3   4  -8   30.68   36.85
   3  -4   9   69.31   45.51
   3   4  -9   11.62   39.50
  -3  -4  -9   24.87   40.36
   3   4   9   10.75   43.42
  -3  -4   9  -26.86   44.34
   3  -4  -9   64.62   39.34
  -3   4  -9   46.99   38.88
   3  -4  10  -11.98   46.73
  -3   4  10   -6.83   44.69
   3   4 -10  -22.02   48.01
  -3  -4 -10   18.55   43.73
   3   4  10    4.13   46.27
  -3  -4  10  -20.39   47.40
   3  -4 -10   13.10   41.18
  -3   4 -10   48.52   43.62
   3  -4  11    2.29   48.06
  -3   4  11   73.39   47.40
   3   4 -11   19.88   43.98
  -3  -4 -11   27.72   45.41
   3   4  11   51.27   53.36
  -3  -4  11  113.44   57.38
   3  -4 -11   95.81   45.56
  -3   4 -11   46.94   44.75
  -3  -5   1  627.87   82.87
   3   5  -2 3532.78  412.96
  -3  -5   2 4698.31  547.35
   3   5  -3  -44.64   39.75
  -3  -5   3   29.35   44.49
   3   5  -4 1275.61  157.68
  -3  -5   4 1495.77  183.01
   3   5  -5  153.35   57.38
  -3  -5  -5  194.53   49.03
   3   5   5  212.62   47.70
  -3  -5   5  159.57   53.15
   3   5  -6 1653.76  200.69
  -3  -5  -6 1619.61  195.09
   3   5   6 1520.74  182.91
  -3  -5   6 1502.40  184.13
   3  -5   7   29.61   43.37
   3   5  -7  -31.70   44.19
  -3  -5  -7    2.34   39.34
   3   5   7  -57.03   35.88
  -3  -5   7   35.32   43.78
  -3   5  -7   84.04   40.06
   3   5  -8    1.58   38.27
  -3  -5  -8  -22.02   42.15
   3   5   8   31.75   41.54
  -3  -5   8  -54.17   45.20
  -3   5  -8   48.26   38.17
   3  -5   9   60.03   45.87
   3   5  -9    7.64   42.04
  -3  -5  -9   46.58   40.41
   3   5   9   12.79   37.51
  -3  -5   9   19.37   47.34
  -3   5  -9  -10.19   38.99
   3  -5  10   92.75   46.02
   3   5 -10   64.57   45.26
  -3  -5 -10   42.10   44.13
   3   5  10   60.80   45.71
  -3  -5  10    8.66   47.24
   3  -5 -10   58.66   39.96
  -3   5 -10   67.37   44.19
   3  -5  11   41.94   49.69
  -3   5  11   -1.27   45.87
   3   5 -11  126.64   48.26
  -3  -5 -11   56.47   52.24
   3   5  11  154.42   52.65
  -3  -5  11   94.49   58.20
   3  -5 -11   46.99   43.78
  -3   5 -11   22.07   41.13
  -3  -6   2  -11.52   35.52
   3   6  -3  141.98   40.72
  -3  -6   3  161.96   46.27
   3   6  -4   22.42   44.39
  -3  -6   4  -35.47   43.37
   3   6  -5   10.04   45.51
  -3  -6   5   74.25   51.47
   3   6  -6  -64.62   45.51
  -3  -6  -6   28.23   37.10
   3   6   6  -31.90   37.71
  -3  -6   6   24.77   45.56
   3  -6   7   76.34   48.06
   3   6  -7  112.63   46.38
  -3  -6  -7  137.91   41.54
   3   6   7   81.44   35.27
  -3  -6   7  119.25   45.82
   3  -6   8  -22.63   42.20
   3   6  -8  -16.61   39.96
  -3  -6  -8   -1.78   39.60
   3   6   8   38.12   38.02
  -3  -6   8   60.49   44.24
  -3   6  -8  -38.78   33.89
   3   6  -9  -26.50   41.54
  -3  -6  -9   21.15   43.98
   3   6   9  -19.77   38.99
  -3  -6   9   69.21   48.06
  -3   6  -9   10.40   42.81
   3  -6  10  -33.84   49.84
   3   6 -10   26.91   47.40
  -3  -6 -10   43.73   47.60
   3   6  10   43.68   48.52
  -3  -6  10  -61.61   54.53
  -3   6 -10    4.03   47.60
   3  -6  11   16.26   52.39
   3   6 -11  -52.54   45.82
  -3  -6 -11   18.91   42.66
   3   6  11  -17.68   43.52
  -3  -6  11   38.12   56.93
  -3   6 -11   -5.86   46.68
  -3  -7   3   39.29   40.36
   3   7  -4  167.16   51.37
  -3  -7   4  162.83   49.23
   3   7  -5  -27.88   37.87
  -3  -7   5    8.51   42.10
   3   7  -6  -73.79   41.94
  -3  -7   6  -28.44   42.61
   3   7  -7  -40.72   35.57
  -3  -7  -7    8.56   36.95
  -3  -7   7  -32.67   41.99
   3  -7   8  -38.12   43.83
   3   7  -8   18.60   37.36
  -3  -7  -8    5.10   33.33
   3   7   8   -1.83   35.62
  -3  -7   8   12.03   41.08
  -3   7  -8   47.85   39.90
   3  -7   9   25.58   49.18
   3   7  -9    1.48   42.20
  -3  -7  -9   51.32   40.46
   3   7   9    5.15   38.88
  -3  -7   9  -21.35   44.08
  -3   7  -9  -49.18   43.37
   3   7 -10   58.10   48.47
  -3  -7 -10    8.10   41.48
   3   7  10   78.64   43.68
  -3  -7  10    7.85   54.07
  -3   7 -10  119.97   47.60
   3  -7  11   44.03   54.73
   3   7 -11   -0.10   50.50
  -3  -7 -11   26.50   46.27
   3   7  11   -1.22   43.22
  -3  -7  11   85.11   60.24
  -3   7 -11   38.48   45.66
  -3  -8   3  194.37   49.84
  -3  -8   4  346.65   61.31
   3   8  -5  104.93   47.55
  -3  -8   5  106.56   46.48
   3   8  -6   20.79   41.69
  -3  -8   6  -49.74   43.06
   3   8  -7   55.50   32.97
  -3  -8   7   -9.94   44.44
   3   8  -8    1.78   37.81
  -3  -8   8    3.21   39.60
   3  -8   9   46.27   43.98
   3   8  -9   19.37   40.26
  -3  -8  -9   59.93   42.76
   3   8   9   32.00   36.49
  -3  -8   9    8.97   50.15
  -3   8  -9   33.18   38.38
   3  -8  10   47.29   57.95
   3   8 -10   13.66   49.89
  -3  -8 -10   43.06   41.38
   3   8  10   16.56   38.53
  -3  -8  10   76.04   51.01
  -3   8 -10  -30.99   41.84
   3   9  -4   25.84   41.33
  -3  -9   4   -1.22   44.90
  -3  -9   5   19.72   40.87
   3   9  -6   12.23   42.25
  -3  -9   6   71.76   41.79
   3   9  -7   63.76   37.46
  -3  -9   7  -59.53   40.26
   3   9  -8  -39.19   41.43
  -3  -9   8   13.96   44.44
   3   9  -9   36.64   43.88
  -3  -9   9   77.41   50.56
   3  -9  10   31.24   48.98
   3   9 -10   28.18   43.47
  -3  -9 -10   14.01   41.99
  -3  -9  10  -35.06   49.13
  -3   9 -10  -14.93   43.42
   3  10  -5  123.03   42.61
  -3 -10   5  194.99   46.99
  -3 -10   6   98.92   42.86
   3  10  -7  103.86   40.21
  -3 -10   7  109.93   45.46
   3  10  -8    8.21   40.57
  -3 -10   8   77.36   42.50
   3  10  -9   45.77   46.27
  -3 -10   9  -10.55   49.79
   3 -10  10  -49.94   48.72
  -3 -11   5  -10.29   42.15
   3  11  -6  -17.74   36.13
  -3 -11   6   21.10   42.20
  -3 -11   7  -26.86   43.83
   3  11  -8   69.11   46.17
  -3 -11   8   46.38   47.60
   3  11  -9   44.90   39.85
  -3 -11   9   -2.55   47.50
  -3 -12   6   15.34   45.46
   3  12  -7   38.43   40.57
  -3 -12   7   16.72   44.03
  -3 -12   8   19.98   50.91
   3  13  -7  126.03   43.47
  -3 -13   7  -21.25   43.22
   3  13  -8  -18.40   40.87
  -3 -13   8   59.02   49.94
   4   0   4 1525.84  182.86
   4   0  -4 1654.78  198.96
  -4   0  -4 1578.84  188.56
   4   0   5  -12.89   39.45
  -4   0   5   27.37   43.22
   4   0  -5   90.82   46.02
  -4   0  -5   -1.12   37.51
   4   0   6   -1.83   45.61
  -4   0   6    4.18   49.59
   4   0  -6   36.80   55.60
  -4   0  -6   19.01   44.95
   4   0   7  162.88   45.46
  -4   0   7   63.81   51.52
   4   0  -7   67.88   46.07
  -4   0  -7  149.17   44.39
   4   0   8  -47.80   41.89
  -4   0   8  -33.33   46.78
   4   0  -8  -39.24   37.71
  -4   0  -8   65.64   40.46
   4   0   9  397.26   66.86
  -4   0   9  392.93   67.12
   4   0  -9  321.07   57.33
  -4   0  -9  349.81   59.98
   4   0  10  -98.16   45.82
  -4   0  10  -10.09   51.47
   4   0 -10   22.02   44.54
  -4   0 -10   47.96   43.27
   4   0  11  -30.48   46.63
   4   0 -11   38.63   44.54
  -4   0 -11   79.25   48.21
   4   1  -3   13.35   42.71
   4   1   3  -16.16   32.82
  -4  -1   3  -43.78   45.05
   4   1  -4   39.29   45.20
  -4  -1  -4  -53.15   33.89
   4   1   4    0.56   41.74
  -4  -1   4  -52.08   48.47
   4  -1   5   62.48   36.34
   4   1  -5  -74.25   50.40
  -4  -1  -5  -28.34   45.26
   4   1   5  -11.36   38.07
  -4  -1   5  100.60   49.18
  -4   1  -5   37.41   41.69
   4  -1   6   12.79   46.02
  -4   1   6    0.61   49.08
   4   1  -6   32.67   51.01
  -4  -1  -6   95.61   42.91
   4   1   6   87.15   44.54
  -4  -1   6   30.12   46.94
   4  -1  -6  -43.62   41.74
  -4   1  -6  -76.39   38.78
   4  -1   7   88.22   43.11
  -4   1   7   -4.74   44.29
   4   1  -7   -6.47   50.20
  -4  -1  -7  -39.09   46.73
   4   1   7   65.44   44.34
  -4  -1   7    3.26   47.45
   4  -1  -7   15.90   41.69
  -4   1  -7   63.40   39.04
   4  -1   8  -11.47   44.39
  -4   1   8   33.53   50.86
   4   1  -8  -13.91   39.45
  -4  -1  -8  -13.71   39.85
   4   1   8  -54.94   39.09
  -4  -1   8 -157.43   49.13
   4  -1  -8   34.76   37.10
  -4   1  -8  -35.78   39.04
   4  -1   9   28.69   41.33
  -4   1   9  -29.71   41.94
   4   1  -9   30.73   37.15
  -4  -1  -9  -51.12   39.65
   4   1   9  -66.00   40.57
  -4  -1   9  -66.00   43.47
   4  -1  -9  -45.36   39.50
  -4   1  -9   -7.13   38.68
   4  -1  10   50.91   41.89
   4   1 -10  117.01   45.46
  -4  -1 -10   41.59   45.00
   4   1  10  -26.70   40.31
  -4  -1  10  -16.21   45.36
   4  -1 -10  -61.21   41.64
  -4   1 -10   43.88   42.20
   4  -1  11   40.62   49.79
  -4   1  11   22.73   52.95
   4   1 -11   -0.41   44.54
  -4  -1 -11  109.27   53.31
   4   1  11   92.09   49.18
  -4  -1  11   58.96   59.17
   4  -1 -11   82.36   48.52
  -4   1 -11   50.05   47.45
   4   2  -2  -48.57   42.96
  -4  -2   2   13.35   49.38
   4   2  -3  241.92   50.40
  -4  -2  -3  157.07   35.67
   4   2   3   88.73   34.96
  -4  -2   3   54.12   46.53
   4   2  -4   19.57   42.50
   4   2   4  -34.30   39.45
  -4  -2   4  -32.82   48.67
   4   2  -5   -1.27   52.75
  -4  -2  -5   21.61   37.87
   4   2   5   48.16   42.66
  -4  -2   5   50.76   48.72
   4  -2   6  -68.80   47.80
   4   2  -6   12.89   48.67
  -4  -2  -6    9.68   41.89
   4   2   6   30.27   43.93
  -4  -2   6   36.90   48.11
  -4   2  -6    6.88   46.07
   4  -2   7  516.77   74.51
   4   2  -7  502.19   77.16
  -4  -2  -7  468.71   70.13
   4   2   7  398.23   64.93
  -4  -2   7  504.08   79.81
   4  -2  -7  311.23   54.07
  -4   2  -7  539.70   78.64
   4  -2   8   10.09   40.06
  -4   2   8   -8.51   39.04
   4   2  -8    3.47   43.62
  -4  -2  -8  -12.89   38.63
   4   2   8   17.12   33.18
  -4  -2   8  -46.58   41.59
   4  -2  -8   29.86   39.09
  -4   2  -8  -65.28   38.38
   4  -2   9    1.02   40.87
   4   2  -9   82.97   40.31
  -4  -2  -9  137.60   42.86
   4   2   9   51.42   40.62
  -4  -2   9   68.55   45.66
   4  -2  -9  143.00   43.32
  -4   2  -9   26.35   37.76
   4  -2  10  -19.37   41.38
  -4   2  10  -12.59   48.11
   4   2 -10    9.07   40.72
  -4  -2 -10   24.56   42.61
   4   2  10  -28.49   38.32
  -4  -2  10  -36.39   43.83
   4  -2 -10   20.28   39.45
  -4   2 -10   80.83   43.57
   4  -2  11    0.36   51.37
  -4   2  11   13.15   50.96
   4   2 -11    6.47   46.84
  -4  -2 -11   -6.47   46.53
   4   2  11  -52.85   49.23
  -4  -2  11   -0.97   51.52
   4  -2 -11   24.51   49.38
  -4   2 -11   59.83   46.48
  -4  -3   0 1526.35  179.24
  -4  -3   1  -26.04   40.62
   4   3  -2 2389.16  281.83
  -4  -3  -2 2657.74  308.84
   4   3   2 2367.25  275.35
  -4  -3   2 2408.02  284.63
   4   3  -3  -63.70   49.94
  -4  -3  -3    5.25   31.90
   4   3   3    4.43   29.20
  -4  -3   3  -80.17   44.34
   4   3  -4  579.96   83.27
   4   3   4  492.87   69.21
  -4  -3   4  614.62   85.77
   4   3  -5   16.36   45.51
  -4  -3  -5   49.13   43.57
   4   3   5   88.83   42.55
  -4  -3   5  -65.28   47.24
   4  -3   6 1231.27  153.65
   4   3  -6 1427.99  176.33
  -4  -3  -6 1222.61  150.55
   4   3   6 1232.80  150.75
  -4  -3   6 1180.31  149.42
  -4   3  -6  989.71  124.81
   4  -3   7    7.95   40.06
   4   3  -7   11.57   45.41
  -4  -3  -7   33.23   40.46
   4   3   7   -1.12   37.56
  -4  -3   7   42.55   47.85
  -4   3  -7   45.77   39.90
   4  -3   8   12.94   37.71
   4   3  -8  -26.04   38.99
  -4  -3  -8  -24.67   41.54
   4   3   8    8.05   39.29
  -4  -3   8   18.19   47.80
  -4   3  -8  -53.10   37.56
   4  -3   9  -39.04   38.07
  -4   3   9   43.83   44.54
   4   3  -9   59.12   40.72
  -4  -3  -9   30.22   40.72
   4   3   9  -28.34   43.68
  -4  -3   9   12.38   45.05
   4  -3  -9  -71.60   38.48
  -4   3  -9   44.08   35.78
   4  -3  10   44.54   47.24
  -4   3  10  -50.91   45.15
   4   3 -10   -3.82   47.04
  -4  -3 -10   17.02   44.39
   4   3  10   38.63   45.20
  -4  -3  10  -89.03   49.28
   4  -3 -10   21.15   40.21
  -4   3 -10   33.18   40.36
   4  -3  11  -17.89   45.61
  -4   3  11   29.81   48.21
   4   3 -11    7.44   45.51
  -4  -3 -11    6.17   45.31
   4   3  11   73.79   54.02
  -4  -3  11    7.70   55.19
   4  -3 -11    2.34   46.38
  -4   3 -11  -34.91   42.66
   4   4   0  -73.08   28.59
  -4  -4   0    2.90   24.62
  -4  -4   1  -70.58   35.22
   4   4  -2 -102.95   40.92
  -4  -4  -2   20.64   19.42
   4   4   2   -2.60   18.86
  -4  -4   2   -3.41   42.25
   4   4  -3  -16.00   43.88
  -4  -4  -3    6.78   32.72
   4   4   3   22.83   26.30
  -4  -4   3   54.58   44.64
   4   4  -4   75.83   46.43
  -4  -4  -4   -2.19   33.28
   4   4   4   56.88   32.82
  -4  -4   4   45.10   48.47
   4   4  -5  -66.35   53.77
  -4  -4  -5   24.46   43.42
   4   4   5   56.62   40.77
  -4  -4   5  -20.89   47.29
   4   4  -6  104.02   48.36
  -4  -4  -6  -76.29   41.48
   4   4   6    5.35   39.24
  -4  -4   6   44.75   46.73
   4  -4   7   -7.80   44.64
   4   4  -7  117.62   48.82
  -4  -4  -7   56.06   42.20
   4   4   7  -34.55   36.03
  -4  -4   7  -47.50   43.17
  -4   4  -7   -6.78   42.55
   4  -4   8   93.36   44.13
   4   4  -8  -87.50   38.88
  -4  -4  -8   13.96   40.46
   4   4   8   -2.60   37.15
  -4  -4   8  -26.50   45.15
  -4   4  -8    9.17   34.30
   4  -4   9  -43.01   44.39
   4   4  -9  -11.21   40.21
  -4  -4  -9    5.20   39.60
   4   4   9  -28.08   37.81
  -4  -4   9   -9.38   43.22
  -4   4  -9   21.56   37.61
   4  -4  10   12.69   48.87
   4   4 -10   17.79   44.13
  -4  -4 -10  -52.54   43.42
   4   4  10   -4.38   43.22
  -4  -4  10  -26.70   46.89
   4  -4 -10   -1.94   42.81
  -4   4 -10  -12.08   45.66
   4  -4  11    9.68   50.61
  -4   4  11   89.19   48.31
   4   4 -11   22.58   45.51
  -4  -4 -11  130.21   55.19
   4   4  11  203.55   55.75
  -4  -4  11   13.71   55.14
   4  -4 -11   39.39   46.17
  -4   4 -11   89.34   46.22
   4   5   0  320.15   45.71
  -4  -5   0  368.46   51.22
   4   5  -1  185.35   38.73
  -4  -5   1  125.83   35.83
  -4  -5   2  243.40   49.64
   4   5  -3   17.68   34.30
  -4  -5   3   53.41   44.03
   4   5  -4    1.43   46.48
  -4  -5  -4   14.63   30.68
   4   5   4   21.81   34.81
  -4  -5   4   62.94   44.75
   4   5  -5   -4.48   46.63
  -4  -5  -5   -9.28   35.52
   4   5   5   55.50   38.32
  -4  -5   5   18.75   50.61
   4   5  -6  270.62   59.83
  -4  -5  -6  280.65   51.22
   4   5   6  360.16   58.81
  -4  -5   6  252.47   57.69
   4   5  -7  -15.19   41.43
  -4  -5  -7   22.68   34.20
   4   5   7  -43.22   32.26
  -4  -5   7  -47.29   40.87
   4  -5   8   90.51   42.96
   4   5  -8  -38.38   39.45
  -4  -5  -8   -4.43   42.50
   4   5   8   23.39   35.37
  -4  -5   8   22.98   43.47
  -4   5  -8   33.33   39.80
   4  -5   9    9.89   44.75
   4   5  -9  -55.04   41.79
  -4  -5  -9   20.28   45.31
   4   5   9  -40.52   38.27
  -4  -5   9  -26.70   44.29
  -4   5  -9  -73.90   42.81
   4  -5  10   45.10   49.08
   4   5 -10   93.87   49.59
  -4  -5 -10  111.71   46.78
   4   5  10  146.16   50.40
  -4  -5  10   21.56   56.62
  -4   5 -10   -1.89   45.26
   4  -5  11   42.04   47.45
   4   5 -11   39.14   48.36
  -4  -5 -11   45.87   43.83
   4   5  11   40.52   43.98
  -4  -5  11  -32.87   55.30
   4  -5 -11   25.07   44.69
  -4   5 -11   77.67   47.80
   4   6  -2  -57.49   37.66
  -4  -6   2    7.24   36.39
  -4  -6   3   35.22   42.25
   4   6  -4   44.34   45.20
  -4  -6   4    7.34   45.66
  -4  -6  -5   51.73   36.39
   4   6   5   41.84   35.78
  -4  -6   5  -41.79   42.50
   4   6  -6   21.25   45.92
  -4  -6  -6  -31.80   34.09
   4   6   6    3.21   32.77
  -4  -6   6   25.48   46.63
   4   6  -7   90.41   45.66
  -4  -6  -7   59.32   39.29
   4   6   7   67.37   32.36
  -4  -6   7   -9.07   40.41
   4   6  -8  -30.88   38.83
  -4  -6  -8   39.39   36.08
   4   6   8  -49.08   35.93
  -4  -6   8    7.75   41.48
   4  -6   9   30.78   47.45
   4   6  -9   21.00   42.86
  -4  -6  -9    0.82   38.88
   4   6   9   31.70   41.84
  -4  -6   9   90.15   46.68
  -4   6  -9  -33.89   42.66
   4  -6  10   43.22   48.11
   4   6 -10  -75.48   46.38
  -4  -6 -10   80.78   45.71
   4   6  10    7.49   42.10
  -4  -6  10   48.47   51.68
  -4   6 -10   -9.78   48.31
   4  -6  11   27.98   48.62
   4   6 -11    5.35   50.05
  -4  -6 -11   24.46   47.40
   4   6  11   73.64   45.61
  -4  -6  11  -35.47   57.89
  -4   6 -11  -28.95   42.81
   4   7  -2  533.59   74.10
  -4  -7   2  461.32   68.39
   4   7  -3   13.51   40.82
  -4  -7   3   99.48   42.40
  -4  -7   4    1.99   44.39
   4   7  -5   -2.60   45.56
  -4  -7   5  -35.93   42.55
   4   7  -6   51.52   42.40
  -4  -7  -6  124.71   40.82
  -4  -7   6  150.49   48.01
   4   7  -7  -19.21   34.40
  -4  -7  -7  -13.35   37.10
   4   7   7   32.62   31.85
  -4  -7   7   -5.86   42.20
   4   7  -8  258.28   53.10
  -4  -7  -8  210.99   48.77
   4   7   8  150.90   41.38
  -4  -7   8  277.95   56.62
   4   7  -9   10.29   40.11
  -4  -7  -9  112.27   45.10
   4   7   9  -30.43   42.55
  -4  -7   9   -3.36   48.01
  -4   7  -9   81.29   39.96
   4  -7  10  170.83   57.18
   4   7 -10  117.83   53.15
  -4  -7 -10   73.34   54.53
   4   7  10  102.49   45.20
  -4  -7  10  121.45   55.96
  -4   7 -10   11.06   45.36
  -4  -8   2   65.79   37.31
   4   8  -3 1225.16  150.04
  -4  -8   3 1378.56  168.74
   4   8  -4   24.36   44.64
  -4  -8   4   89.13   48.82
  -4  -8   5  364.13   62.53
   4   8  -6  -57.84   45.92
  -4  -8   6   35.78   42.10
   4   8  -8  -19.21   36.80
  -4  -8  -8    3.82   37.76
   4   8   8   52.90   35.01
  -4  -8   8  -14.07   41.48
   4   8  -9   -2.55   42.15
  -4  -8  -9   82.46   44.29
   4   8   9   70.84   38.83
  -4  -8   9  -21.86   48.98
   4   8 -10   19.77   47.96
  -4  -8 -10   82.10   52.49
   4   8  10   56.98   42.66
  -4  -8  10  -12.18   48.31
  -4   8 -10   27.77   39.65
   4   9  -3  -21.97   35.52
  -4  -9   3  -45.46   42.55
   4   9  -4   57.49   38.58
  -4  -9   4   43.42   42.61
   4   9  -5   -1.58   38.43
  -4  -9   5  -31.80   40.06
  -4  -9   6  -40.31   43.57
   4   9  -7   41.43   41.38
  -4  -9   7  -33.79   44.69
   4   9  -8   66.81   43.62
  -4  -9   8   15.95   41.84
   4   9  -9   34.91   41.94
  -4  -9  -9  -24.46   40.52
  -4  -9   9    7.44   47.40
   4  -9  10  -58.86   47.80
   4   9 -10  -37.10   46.33
  -4  -9 -10   79.86   45.92
   4   9  10  -45.66   36.23
  -4  -9  10  -37.05   45.15
   4  10  -4  -30.53   34.91
  -4 -10   4   14.37   37.31
   4  10  -5  137.30   44.59
  -4 -10   5   67.22   36.59
   4  10  -6   18.09   30.68
  -4 -10   6  -38.83   40.52
  -4 -10   7   35.27   41.84
   4  10  -8  -31.39   40.41
  -4 -10   8  -57.38   45.92
   4  10  -9   51.32   43.62
  -4 -10   9  175.47   52.85
   4  11  -5   -2.29   39.96
  -4 -11   5   30.78   40.11
   4  11  -6    0.00   35.78
  -4 -11   6  -45.15   44.80
   4  11  -7   24.46   38.88
  -4 -11   7  -29.35   46.84
  -4 -11   8   91.94   50.35
   4  11  -9   27.62   43.01
  -4 -11   9   27.93   51.57
  -4 -12   5  156.10   47.75
   4  12  -6   37.66   38.22
  -4 -12   6  -12.08   45.51
   4  12  -7  572.83   82.31
  -4 -12   7  737.44  100.75
   4  12  -8   -5.71   40.82
  -4 -12   8   55.30   48.31
   4  13  -6  882.17  113.80
  -4 -13   6  857.20  114.67
   4  13  -7   16.05   39.90
  -4 -13   7   72.88   49.03
   4  13  -8   50.91   45.15
  -4 -13   8  187.85   54.68
   4  14  -7   66.30   39.04
  -4 -14   7   72.57   46.22
   5   0   5 1115.59  137.09
   5   0  -5 1124.76  139.38
  -5   0  -5 1228.22  150.09
   5   0   6   80.06   41.54
  -5   0   6   36.44   44.90
   5   0  -6  113.60   52.70
  -5   0  -6  104.27   43.22
   5   0   7   28.64   43.06
  -5   0   7   16.97   47.04
   5   0  -7   60.14   41.13
  -5   0  -7   78.28   40.62
   5   0   8   38.38   38.38
  -5   0   8  -62.23   42.96
   5   0  -8   19.01   38.58
  -5   0  -8   10.70   38.99
   5   0   9 1733.77  209.87
  -5   0   9 1658.86  202.94
   5   0  -9 1654.27  200.34
  -5   0  -9 2085.93  249.82
   5   0  10  -33.38   37.31
  -5   0  10   41.23   43.78
   5   0 -10  -29.86   40.82
  -5   0 -10  -83.32   43.17
   5   0  11 1041.18  135.26
  -5   0  11 1003.47  138.21
   5   0 -11  982.57  127.92
  -5   0 -11  947.41  127.87
   5   1  -4  433.29   68.55
  -5  -1  -4  334.12   53.51
   5   1   4  463.82   68.04
  -5  -1   4  453.57   70.38
   5   1  -5   50.91   47.55
  -5  -1  -5   47.40   40.11
   5   1   5  -11.06   41.18
  -5  -1   5  -10.14   48.31
   5  -1   6   77.06   42.35
   5   1  -6  -19.16   45.51
  -5  -1  -6  -19.42   40.31
   5   1   6    5.96   37.41
  -5  -1   6   93.06   48.21
  -5   1  -6   62.28   46.27
   5  -1   7    5.96   40.11
  -5   1   7   -5.66   41.64
   5   1  -7   55.91   44.90
  -5  -1  -7   -5.40   37.00
   5   1   7  -33.18   40.62
  -5  -1   7    1.53   51.37
   5  -1  -7    7.54   39.65
  -5   1  -7   -9.84   36.59
   5  -1   8   74.61   44.80
  -5   1   8  -56.77   41.84
   5   1  -8  -64.42   41.28
  -5  -1  -8   25.58   37.56
   5   1   8   29.51   34.25
  -5  -1   8  -89.90   44.08
   5  -1  -8   71.04   36.80
  -5   1  -8  -34.81   39.80
   5  -1   9   41.23   41.84
  -5   1   9   39.19   45.56
   5   1  -9  -10.14   38.07
  -5  -1  -9   17.58   37.41
   5   1   9   26.91   39.75
  -5  -1   9  -37.92   44.29
   5  -1  -9   21.00   40.11
  -5   1  -9   64.37   39.96
   5  -1  10  360.41   64.42
  -5   1  10  314.24   63.50
   5   1 -10  225.26   52.19
  -5  -1 -10  408.67   67.99
   5   1  10  351.24   61.31
  -5  -1  10  202.78   54.99
   5  -1 -10  206.71   52.49
  -5   1 -10  357.92   63.70
   5  -1  11  -40.87   47.80
   5   1 -11   15.95   47.29
  -5  -1 -11   60.95   51.12
   5   1  11   12.23   49.28
  -5  -1  11  -48.87   54.38
   5  -1 -11   64.47   44.34
  -5   1 -11   44.03   48.98
   5   2  -3  666.09   92.91
  -5  -2   3  542.76   78.28
   5   2  -4   69.67   45.05
   5   2   4   60.49   35.73
  -5  -2   4  116.09   46.43
   5   2  -5   43.88   46.89
  -5  -2  -5   49.43   44.95
   5   2   5  -12.54   41.23
  -5  -2   5   36.39   43.27
   5  -2   6   27.67   40.67
   5   2  -6  -12.64   45.31
  -5  -2  -6  -14.42   40.41
   5   2   6   22.32   37.51
  -5  -2   6   48.52   47.29
   5  -2   7  -10.86   40.62
   5   2  -7   -6.78   45.56
  -5  -2  -7   35.16   40.11
   5   2   7  -30.63   37.66
  -5  -2   7  -26.20   43.93
  -5   2  -7  -34.86   38.48
   5  -2   8  -42.15   42.55
   5   2  -8   45.46   37.87
  -5  -2  -8  -12.33   41.74
   5   2   8    8.87   39.29
  -5  -2   8  -42.04   45.00
   5  -2  -8   27.37   32.62
  -5   2  -8   -4.74   38.63
   5  -2   9   79.81   41.33
  -5   2   9  -69.67   43.42
   5   2  -9   20.89   38.38
  -5  -2  -9   83.68   42.40
   5   2   9   16.61   43.06
  -5  -2   9  -66.66   45.87
   5  -2  -9  -57.54   41.94
  -5   2  -9  -10.96   39.70
   5  -2  10  -18.60   42.50
   5   2 -10  -17.58   45.92
  -5  -2 -10  -76.39   44.19
   5   2  10  -28.13   47.09
  -5  -2  10   20.23   51.98
   5  -2 -10   23.85   42.40
  -5   2 -10   42.25   43.47
   5  -2  11  180.10   53.10
  -5   2  11  105.24   56.21
   5   2 -11   54.22   47.34
  -5  -2 -11  244.11   58.15
   5   2  11   71.25   56.52
  -5  -2  11   43.11   56.52
   5  -2 -11  163.69   49.18
  -5   2 -11  216.49   56.72
  -5  -3   1  -76.70   35.06
  -5  -3   2  125.88   45.82
   5   3  -3   22.98   38.78
  -5  -3  -3   21.30   31.50
   5   3   3   11.62   25.79
  -5  -3   3   36.64   46.17
   5   3  -4  387.27   65.64
  -5  -3  -4  305.73   48.16
   5   3   4  488.48   66.86
  -5  -3   4  335.90   63.35
   5   3  -5   65.74   55.70
  -5  -3  -5  -22.83   42.81
   5   3   5   20.95   40.31
  -5  -3   5   68.75   48.72
   5   3  -6  682.40   95.76
  -5  -3  -6  710.43   94.64
   5   3   6  693.10   92.29
  -5  -3   6  732.34  100.50
   5  -3   7  -23.80   37.41
   5   3  -7  -24.51   44.08
  -5  -3  -7   -0.61   41.48
   5   3   7  -26.09   36.03
  -5  -3   7  -36.49   43.17
  -5   3  -7   52.34   39.65
   5  -3   8   70.53   40.06
   5   3  -8   40.01   38.68
  -5  -3  -8  -33.28   40.11
   5   3   8   26.60   37.97
  -5  -3   8  -77.82   46.53
  -5   3  -8   51.27   40.92
   5  -3   9  -38.68   39.09
   5   3  -9   84.85   43.06
  -5  -3  -9   83.27   41.13
   5   3   9  -35.37   38.27
  -5  -3   9   -4.03   46.84
  -5   3  -9  -17.43   35.73
   5  -3  10   90.71   41.18
  -5   3  10  109.47   47.04
   5   3 -10   95.40   48.42
  -5  -3 -10   62.12   45.56
   5   3  10  128.48   49.49
  -5  -3  10  124.50   50.25
   5  -3 -10  -50.66   43.11
  -5   3 -10  104.02   45.31
   5  -3  11   64.98   48.82
  -5   3  11   29.97   53.41
   5   3 -11  122.77   47.50
  -5  -3 -11   -8.36   51.22
   5   3  11    1.68   46.68
  -5  -3  11   52.03   56.11
   5  -3 -11  106.62   47.09
  -5   3 -11   78.53   45.71
   5   4   0  -29.97   26.25
  -5  -4   0  -25.02   27.42
   5   4  -1  116.09   35.06
  -5  -4   1  221.13   40.46
  -5  -4  -2   -9.43   15.90
   5   4   2   -9.33   15.95
  -5  -4   2   29.76   39.80
  -5  -4  -3  -36.69   24.97
   5   4   3  -23.04   24.46
  -5  -4   3  -88.17   44.90
   5   4  -4   14.37   48.11
  -5  -4  -4  -23.80   31.04
   5   4   4   25.63   33.53
  -5  -4   4   29.30   45.36
   5   4  -5  109.72   47.96
  -5  -4  -5   46.78   35.67
   5   4   5   45.00   38.43
  -5  -4   5  150.19   54.02
   5   4  -6   -1.73   47.80
  -5  -4  -6   19.67   34.91
   5   4   6   -9.02   38.07
  -5  -4   6  -47.80   46.53
   5   4  -7   26.04   39.65
  -5  -4  -7   13.56   33.33
   5   4   7   81.13   33.58
  -5  -4   7   62.23   41.99
   5  -4   8  -21.15   39.50
   5   4  -8    1.33   39.96
  -5  -4  -8   -5.35   44.44
   5   4   8   25.33   34.66
  -5  -4   8   -4.08   43.06
  -5   4  -8   23.44   37.46
   5  -4   9  -37.81   43.93
   5   4  -9  -47.34   39.80
  -5  -4  -9   24.41   44.49
   5   4   9   46.48   40.21
  -5  -4   9   33.18   43.47
  -5   4  -9  -66.81   36.23
   5  -4  10   -1.73   45.41
   5   4 -10   60.09   46.53
  -5  -4 -10   15.44   43.62
   5   4  10   14.88   46.43
  -5  -4  10   72.83   54.33
  -5   4 -10   28.64   42.35
   5  -4  11   35.42   47.75
   5   4 -11   -6.32   47.40
  -5  -4 -11   38.43   43.88
   5   4  11    8.92   42.76
  -5  -4  11   52.44   54.94
   5  -4 -11  -21.30   37.76
  -5   4 -11   65.54   45.31
   5   5   0   73.79   25.74
  -5  -5   0   -5.30   27.52
   5   5  -1    7.59   30.93
  -5  -5   1  -21.05   38.58
   5   5  -2 2203.65  260.01
  -5  -5   2 1874.43  222.15
  -5  -5  -3   -4.38   22.42
   5   5   3    0.25   24.05
  -5  -5   3   19.47   42.96
   5   5  -4   98.92   42.20
  -5  -5  -4  141.98   34.35
   5   5   4  117.62   34.55
  -5  -5   4  225.56   54.63
   5   5  -5  148.05   52.39
  -5  -5  -5  -19.42   27.06
   5   5   5   57.95   37.25
   5   5  -6  -33.74   46.38
  -5  -5  -6    0.56   34.66
   5   5   6  -65.08   35.27
  -5  -5   6   -2.96   47.91
   5   5  -7   -0.97   42.81
  -5  -5  -7   58.30   39.09
   5   5   7   59.37   34.60
  -5  -5   7   84.90   41.54
   5   5  -8  -21.81   40.06
  -5  -5  -8  -23.24   37.10
   5   5   8  -62.07   35.57
  -5  -5   8   16.92   42.61
   5  -5   9   11.21   43.88
   5   5  -9   11.77   43.37
  -5  -5  -9    5.81   38.48
   5   5   9  -33.28   42.15
  -5  -5   9  -39.70   43.27
  -5   5  -9   -2.50   41.38
   5  -5  11  -16.46   52.08
   5   5 -11   41.03   47.91
  -5  -5 -11   -7.13   44.24
   5   5  11   33.64   42.25
  -5  -5  11   62.89   55.96
  -5   5 -11   38.07   49.13
  -5  -6   0   -7.13   28.74
   5   6  -2  -30.93   41.18
  -5  -6   2   60.24   34.96
   5   6  -3  177.05   48.21
  -5  -6   3  178.88   45.77
  -5  -6  -4  -24.21   31.19
   5   6   4  -39.39   29.56
  -5  -6   4  -65.84   49.23
   5   6  -5   35.62   41.23
   5   6   5  -36.80   29.35
  -5  -6   5   -8.31   44.85
   5   6  -6   11.67   45.61
  -5  -6  -6  -16.05   36.49
   5   6   6  -39.04   33.99
  -5  -6   6   48.21   40.67
   5   6  -7   10.35   36.39
  -5  -6  -7   75.12   38.99
   5   6   7   16.46   33.94
  -5  -6   7   58.56   43.57
   5   6  -8  -27.52   41.69
  -5  -6  -8  -15.34   38.58
   5   6   8   56.06   33.08
  -5  -6   8  -16.56   42.86
   5  -6   9    3.77   44.03
   5   6  -9   19.26   40.11
  -5  -6  -9  -37.36   43.17
   5   6   9   49.54   43.83
  -5  -6   9  -13.40   48.31
   5   6 -10 -114.77   49.69
  -5  -6 -10  -47.85   52.59
   5   6  10  -97.95   44.80
  -5  -6  10  -14.12   51.57
  -5   6 -10   40.77   45.87
   5  -6  11  130.26   55.40
   5   6 -11   85.31   44.64
  -5  -6 -11  132.76   50.00
   5   6  11  -41.74   43.06
  -5  -6  11   84.90   55.35
  -5   6 -11   59.37   48.52
   5   7  -1   10.19   35.01
  -5  -7   1   14.22   34.30
   5   7  -2   51.32   37.46
  -5  -7   2   48.31   38.17
   5   7  -3  -39.65   47.91
  -5  -7   3   16.26   45.31
   5   7  -4  -34.45   47.04
  -5  -7   4   29.66   51.07
  -5  -7   5   -3.41   42.35
   5   7  -6   85.26   39.19
  -5  -7  -6   35.98   32.67
   5   7   6   48.11   31.04
  -5  -7   6   52.14   43.62
   5   7  -7   69.26   39.80
  -5  -7  -7   -8.26   31.19
   5   7   7   -7.39   33.94
  -5  -7   7   21.25   43.62
   5   7  -8   72.78   37.92
  -5  -7  -8   63.09   38.58
   5   7   8   30.58   36.03
  -5  -7   8  113.34   48.01
   5   7  -9  -37.05   39.85
  -5  -7  -9   12.94   43.73
   5   7   9  -29.66   37.92
  -5  -7   9  -16.61   49.49
   5  -7  10   77.72   51.22
   5   7 -10   44.34   48.16
  -5  -7 -10    3.82   53.82
   5   7  10   37.51   41.48
  -5  -7  10  -30.22   48.92
  -5   7 -10   33.79   42.66
   5   8  -2  -11.16   35.67
  -5  -8   2   82.46   39.90
   5   8  -3  172.10   45.97
  -5  -8   3  114.97   46.63
   5   8  -4  -12.79   44.80
  -5  -8   4   60.70   43.57
   5   8  -5  639.08   87.81
  -5  -8   5  671.70   91.17
  -5  -8   6   54.73   44.03
   5   8  -7   50.50   38.53
  -5  -8  -7  250.74   47.45
   5   8   7  150.75   36.64
  -5  -8   7  153.14   51.17
   5   8  -8   11.47   39.85
  -5  -8  -8  -22.32   37.76
   5   8   8  -22.78   32.36
  -5  -8   8    1.17   43.27
   5   8  -9  134.44   47.50
  -5  -8  -9   88.78   43.98
   5   8   9  130.87   42.30
  -5  -8   9   94.49   49.69
   5   8 -10   49.54   47.60
  -5  -8 -10  -15.70   45.36
   5   8  10   24.87   38.73
  -5  -8  10  -39.70   49.33
   5   9  -2   95.61   36.29
  -5  -9   2   47.09   39.50
   5   9  -3  -42.96   36.74
  -5  -9   3   39.55   39.55
   5   9  -4  153.04   41.03
  -5  -9   4  199.88   45.66
   5   9  -5  -15.24   38.63
  -5  -9   5   10.40   37.20
   5   9  -6    6.83   32.87
  -5  -9   6  -41.94   41.38
  -5  -9   7    1.89   42.96
   5   9  -8  -39.90   44.69
  -5  -9  -8   38.94   36.90
  -5  -9   8   22.53   47.19
   5   9  -9  -43.57   44.29
  -5  -9  -9  -14.01   41.38
   5   9   9  -39.34   37.05
  -5  -9   9   -2.40   48.67
   5   9 -10   96.37   49.69
  -5  -9 -10   31.44   42.15
   5   9  10   -9.22   41.89
  -5  -9  10   61.00   48.62
   5  10  -3  265.93   49.13
  -5 -10   3  120.68   38.99
   5  10  -4  -62.02   38.43
  -5 -10   4   -9.33   36.29
   5  10  -5  -27.62   38.88
  -5 -10   5   76.55   37.66
   5  10  -6   28.34   38.12
  -5 -10   6   24.46   42.96
   5  10  -7   43.57   41.08
  -5 -10   7   -3.31   46.53
  -5 -10   8    4.69   46.53
   5  10  -9  416.93   70.79
  -5 -10   9  433.75   76.04
   5  11  -4  -10.91   35.42
  -5 -11   4   37.05   34.60
   5  11  -5  -42.20   36.90
  -5 -11   5   37.76   43.73
   5  11  -6   -6.98   35.62
  -5 -11   6   26.50   41.79
   5  11  -7   -2.50   38.17
  -5 -11   7   -4.99   43.27
   5  11  -8  -25.79   42.40
  -5 -11   8   21.30   45.71
  -5 -11   9  -15.03   46.27
  -5 -12   4   33.69   36.08
   5  12  -5   65.28   34.91
  -5 -12   5  -17.63   41.79
   5  12  -6   16.56   38.63
  -5 -12   6   -3.92   39.90
   5  12  -7    4.18   40.31
  -5 -12   7   55.60   47.91
   5  12  -8   41.94   41.89
  -5 -12   8   54.73   47.85
   5  13  -5   56.77   35.57
  -5 -13   5  178.63   49.54
   5  13  -6  363.01   61.72
  -5 -13   6  362.50   66.25
   5  13  -7   23.95   41.38
  -5 -13   7  -62.74   49.59
   5  14  -6    7.70   41.94
  -5 -14   6   62.33   46.58
   5  14  -7   -6.32   42.96
  -5 -14   7   20.28   48.77
  -5 -15   6   62.48   47.40
   6   0   6  508.21   71.81
   6   0  -6  678.32   92.75
  -6   0  -6  498.93   72.78
   6   0   7   19.77   38.88
  -6   0   7   88.63   47.50
   6   0  -7   82.41   39.04
  -6   0  -7  113.34   40.92
   6   0   8   17.89   36.85
  -6   0   8   47.40   41.03
   6   0  -8   14.07   37.66
  -6   0  -8   67.93   36.29
   6   0   9  285.04   54.58
  -6   0   9  426.26   70.64
   6   0  -9  427.84   68.14
  -6   0  -9  237.59   50.05
   6   0  10  -33.48   42.50
  -6   0  10   64.77   50.20
   6   0 -10   65.44   43.17
  -6   0 -10   43.73   40.16
   6   0  11   15.29   50.05
  -6   0  11   31.70   53.00
   6   0 -11   67.83   46.73
  -6   0 -11   61.72   49.89
   6   1  -5  114.46   53.10
  -6  -1  -5   32.51   40.26
   6   1   5   33.64   40.67
  -6  -1   5   75.68   43.22
   6   1  -6  -27.57   41.94
  -6  -1  -6   31.19   38.53
   6   1   6   11.87   38.07
  -6  -1   6    2.60   44.85
   6  -1   7   48.16   40.62
   6   1  -7  -42.61   42.50
  -6  -1  -7  -16.77   38.58
   6   1   7  -39.04   35.22
  -6  -1   7   -8.51   43.78
  -6   1  -7   43.27   38.17
   6  -1   8   34.30   40.46
  -6   1   8   12.03   38.73
   6   1  -8  -30.07   36.95
  -6  -1  -8   21.35   40.87
   6   1   8   24.36   39.70
  -6  -1   8  108.04   48.06
   6  -1  -8  -11.01   37.51
  -6   1  -8  -11.77   33.79
   6  -1   9   -4.54   38.94
  -6   1   9  -30.68   45.31
   6   1  -9   24.00   37.76
  -6  -1  -9  -29.05   40.01
   6   1   9  -46.17   40.92
  -6  -1   9  -20.08   46.68
   6  -1  -9  -13.61   37.92
  -6   1  -9   -3.67   38.32
   6  -1  10   52.65   41.38
  -6   1  10  107.69   45.10
   6   1 -10   32.77   47.40
  -6  -1 -10   -4.18   40.92
   6   1  10   50.25   49.08
  -6  -1  10    3.41   51.57
   6  -1 -10   34.71   40.46
  -6   1 -10   28.34   42.25
   6  -1  11   -0.36   46.33
  -6   1  11    1.02   57.38
   6   1 -11  -16.10   43.93
  -6  -1 -11  109.57   52.34
   6   1  11   -8.71   55.50
  -6  -1  11  146.83   59.22
   6  -1 -11   45.92   44.69
  -6   1 -11   91.73   54.84
   6   2  -4  -26.50   45.66
  -6  -2   4  -51.27   42.91
   6   2  -5 -113.14   50.45
  -6  -2  -5   49.28   40.41
   6   2   5   15.34   36.85
  -6  -2   5   39.09   44.75
   6   2  -6  -21.81   45.00
  -6  -2  -6  -15.59   39.70
   6   2   6  -31.09   37.41
  -6  -2   6   -4.89   42.50
   6  -2   7    4.38   41.23
   6   2  -7   72.32   45.61
  -6  -2  -7   80.62   41.13
   6   2   7  -11.82   34.35
  -6  -2   7   33.33   45.20
   6  -2   8    9.73   41.38
   6   2  -8   35.93   37.20
  -6  -2  -8    7.90   41.69
   6   2   8  -35.67   41.08
  -6  -2   8   95.05   45.20
  -6   2  -8   61.97   41.18
   6  -2   9   -6.47   40.36
   6   2  -9   -5.55   40.67
  -6  -2  -9  -15.44   41.74
   6   2   9    5.10   39.09
  -6  -2   9    4.03   46.22
   6  -2  -9   18.09   40.01
  -6   2  -9   12.89   38.38
   6  -2  10  -36.59   42.91
  -6   2  10  -44.13   46.17
   6   2 -10   18.45   46.53
  -6  -2 -10  145.04   48.98
   6   2  10  -30.37   47.40
  -6  -2  10  -29.71   49.94
   6  -2 -10  -16.05   41.43
  -6   2 -10  -21.56   42.96
   6  -2  11   33.18   48.01
   6   2 -11  -21.66   43.47
  -6  -2 -11  -10.75   49.08
   6   2  11   98.92   47.85
  -6  -2  11   34.86   57.13
   6  -2 -11   37.20   43.17
  -6   2 -11  108.70   52.24
  -6  -3   3   35.98   42.50
   6   3  -4  137.19   48.11
  -6  -3  -4   79.55   31.95
   6   3   4  112.37   38.58
   6   3  -5   54.43   44.90
  -6  -3  -5   53.10   34.25
   6   3   5   23.04   36.80
  -6  -3   5   70.69   50.61
   6   3  -6   39.50   48.26
  -6  -3  -6  119.10   39.50
   6   3   6  147.74   42.61
  -6  -3   6   82.41   49.18
   6   3  -7  149.88   47.34
  -6  -3  -7   96.01   36.80
   6   3   7  103.15   35.73
  -6  -3   7  167.52   46.53
   6   3  -8   -2.19   38.94
  -6  -3  -8    7.64   44.24
   6   3   8  -69.36   36.95
  -6  -3   8    0.15   43.06
   6  -3   9   16.61   40.41
   6   3  -9  -60.60   42.04
  -6  -3  -9  -50.30   41.94
   6   3   9    2.09   42.40
  -6  -3   9   95.00   45.00
  -6   3  -9   48.98   41.03
   6  -3  10   78.02   50.56
   6   3 -10   74.81   49.43
  -6  -3 -10  -16.77   45.20
   6   3  10  -22.88   46.33
  -6  -3  10   71.14   54.63
   6  -3 -10   -7.49   39.90
  -6   3 -10  -62.43   45.51
   6  -3  11   96.32   49.28
  -6   3  11    2.90   51.98
   6   3 -11   25.94   46.58
  -6  -3 -11   51.78   45.10
   6   3  11   11.62   43.52
  -6  -3  11   17.33   54.84
   6  -3 -11   89.44   43.88
  -6   3 -11    3.98   45.00
   6   4  -1   10.50   30.53
  -6  -4   1  -21.20   38.53
   6   4  -2   14.37   36.85
  -6  -4   2  -37.15   36.18
   6   4  -3   14.98   39.50
  -6  -4  -3   18.96   21.61
   6   4   3   27.16   24.92
  -6  -4   3  -47.19   43.37
  -6  -4  -4   41.23   31.85
   6   4   4   70.28   32.92
  -6  -4   4   26.96   46.43
   6   4  -5  -11.42   46.78
  -6  -4  -5   56.82   28.59
   6   4   5   41.79   35.52
  -6  -4   5   -4.18   46.02
   6   4  -6   19.06   47.04
  -6  -4  -6   19.98   34.71
   6   4   6  -24.82   35.01
  -6  -4   6  103.00   49.28
   6   4  -7  -28.08   41.94
  -6  -4  -7  -36.95   38.73
   6   4   7   43.32   33.89
  -6  -4   7    4.28   40.62
  -6  -4  -8   -4.28   38.27
   6   4   8  -44.90   35.32
   6  -4   9   42.25   41.59
   6   4  -9  -37.10   42.30
  -6  -4  -9    9.94   39.14
   6   4   9  -50.40   43.01
  -6  -4   9  -46.89   44.59
  -6   4  -9    7.13   40.16
   6  -4  10  -40.46   44.59
   6   4 -10   66.61   47.65
  -6  -4 -10  -73.54   47.60
   6   4  10  -97.29   43.83
  -6  -4  10   -0.41   50.00
  -6   4 -10  -24.82   43.78
   6  -4  11   46.53   48.36
   6   4 -11   21.05   48.11
  -6  -4 -11  -13.61   43.78
   6   4  11   41.54   43.37
  -6  -4  11   12.49   55.55
  -6   4 -11   50.81   48.31
   6   5   0  478.95   61.16
  -6  -5   0  678.32   84.09
   6   5  -1   61.61   31.39
  -6  -5  -1  103.81   21.66
   6   5   1  174.60   26.81
  -6  -5   1  122.36   33.89
   6   5  -2  626.85   84.09
   6   5   2  685.97   80.57
  -6  -5   2  535.11   73.59
   6   5  -3   32.46   41.99
  -6  -5  -3   81.90   25.43
   6   5   3   18.96   21.71
  -6  -5   3   90.41   41.64
   6   5  -4   33.58   35.88
  -6  -5  -4   51.73   31.29
   6   5   4   32.97   28.39
  -6  -5   4   46.27   51.12
   6   5   5   33.69   29.71
  -6  -5   5   -3.31   44.54
   6   5  -6  -61.87   44.75
  -6  -5  -6  -48.92   36.23
   6   5   6   51.57   34.86
  -6  -5   6   38.88   41.18
   6   5  -7   20.18   37.46
  -6  -5  -7   75.43   38.99
   6   5   7   41.99   34.04
  -6  -5   7   27.93   42.20
   6   5  -8   43.52   40.46
  -6  -5  -8   25.02   37.36
   6   5   8   31.75   31.85
  -6  -5   8   -6.12   42.76
   6  -5   9   77.97   45.41
   6   5  -9   15.34   39.55
  -6  -5  -9  -55.19   44.08
   6   5   9   34.66   43.11
  -6  -5   9  -26.91   48.26
   6  -5  10   45.20   50.91
   6   5 -10   46.99   48.92
  -6  -5 -10   53.10   52.44
   6   5  10  -11.67   42.71
  -6  -5  10   34.91   52.49
  -6   5 -10  -36.39   43.57
   6  -5  11  113.70   54.73
   6   5 -11   19.62   43.57
  -6  -5 -11   40.11   46.53
   6   5  11  101.11   48.62
  -6  -5  11   33.84   53.36
  -6   5 -11    4.18   51.47
  -6  -6   0   61.56   27.57
   6   6  -1   30.99   32.82
  -6  -6  -1  -47.55   19.21
   6   6   1   -8.41   18.04
  -6  -6   1   17.23   33.99
   6   6  -2   14.58   36.23
  -6  -6   2  -71.71   39.04
   6   6  -3  -29.76   45.77
  -6  -6  -3   25.48   20.28
   6   6   3   32.67   21.20
  -6  -6   3   29.15   41.94
   6   6  -4    7.90   40.82
  -6  -6  -4   11.21   27.16
   6   6   4  -27.32   25.28
  -6  -6   4   27.27   47.75
   6   6   5   18.86   27.83
  -6  -6   5  -34.20   43.78
  -6  -6  -6   15.19   33.84
   6   6   6  -24.31   28.74
  -6  -6   6   -6.32   44.19
   6   6  -7  -10.04   38.58
  -6  -6  -7   51.88   33.53
   6   6   7   71.30   36.90
  -6  -6   7   88.01   44.44
   6   6  -8   -4.13   34.09
  -6  -6  -8  -51.22   37.00
   6   6   8  -18.75   34.35
  -6  -6   8    2.80   42.91
   6   6  -9  -20.39   41.59
  -6  -6  -9   27.42   41.28
   6   6   9  -30.07   37.66
  -6  -6   9  -10.50   48.21
   6  -6  10  118.13   49.23
   6   6 -10   18.09   46.17
  -6  -6 -10   31.29   55.70
   6   6  10   33.94   41.74
  -6  -6  10   23.44   49.38
   6   7   0   56.31   26.65
  -6  -7   0   74.87   29.66
   6   7  -1   -6.37   31.85
  -6  -7   1   21.97   31.09
   6   7  -2   41.28   42.15
  -6  -7   2  183.32   43.37
   6   7  -3    6.06   40.52
  -6  -7   3   52.19   45.10
   6   7  -4   18.86   41.23
  -6  -7   4  -20.13   41.43
   6   7  -5  -46.53   41.38
  -6  -7  -5   25.02   26.65
   6   7   5  -31.50   25.74
  -6  -7   5    3.36   38.58
  -6  -7  -6    9.48   31.95
   6   7   6  -23.95   31.95
  -6  -7   6  -31.39   42.40
   6   7  -7    9.07   29.81
  -6  -7  -7    2.04   32.21
   6   7   7   41.64   30.68
  -6  -7   7   78.59   45.77
   6   7  -8  -55.09   39.09
  -6  -7  -8   45.05   41.08
   6   7   8   43.01   32.31
  -6  -7   8  -34.50   43.57
   6   7  -9   35.52   43.57
  -6  -7  -9   93.87   43.47
   6   7   9  -16.36   37.92
  -6  -7   9  -35.37   45.71
   6   7 -10   44.08   48.77
  -6  -7 -10   49.23   43.93
   6   7  10  -13.45   41.08
  -6  -7  10   -5.05   49.38
   6   8  -1   76.34   34.96
  -6  -8   1   10.75   32.67
   6   8  -2    6.27   40.41
  -6  -8   2   26.14   40.57
   6   8  -3  181.02   47.65
  -6  -8   3  240.90   51.73
   6   8  -4   87.91   38.12
  -6  -8   4   23.60   38.38
   6   8  -5  100.91   42.20
  -6  -8   5   37.00   38.07
   6   8  -6  -22.78   41.18
  -6  -8  -6  -45.77   32.46
   6   8   6  -19.26   30.43
  -6  -8   6   70.69   43.78
  -6  -8  -7  604.42   80.01
   6   8   7  628.38   81.54
  -6  -8   7  632.96   91.07
   6   8  -8   43.52   43.37
  -6  -8  -8   43.93   42.71
   6   8   8  -18.65   32.31
  -6  -8   8   25.28   47.85
   6   8  -9  209.05   55.50
  -6  -8  -9  252.37   53.00
   6   8   9  227.25   48.01
  -6  -8   9  181.38   56.16
   6   8 -10  -13.86   44.90
  -6  -8 -10   35.42   44.54
   6   8  10   60.09   43.27
  -6  -8  10  -30.68   49.43
  -6  -9   1  -65.13   30.53
   6   9  -2   -8.92   36.85
  -6  -9   2   63.91   39.09
   6   9  -3    4.99   34.76
  -6  -9   3   -1.07   35.73
   6   9  -4   62.38   37.41
  -6  -9   4   49.03   37.97
   6   9  -5   46.02   39.96
  -6  -9   5    7.08   37.71
   6   9  -6   -5.45   40.16
  -6  -9   6   58.25   44.19
   6   9  -7    8.71   40.72
  -6  -9  -7   -4.23   32.67
  -6  -9   7   -3.21   45.36
  -6  -9  -8  -38.27   37.71
   6   9   8    6.57   31.19
  -6  -9   8   90.66   45.15
   6   9  -9   20.89   42.76
  -6  -9  -9   13.15   41.94
   6   9   9  -14.52   37.10
  -6  -9   9   12.94   51.37
   6  10  -2   22.63   31.29
  -6 -10   2   -4.33   35.01
   6  10  -3  -19.98   34.55
  -6 -10   3   23.55   33.53
   6  10  -4   13.81   37.87
  -6 -10   4   25.33   35.01
   6  10  -5  -43.47   40.01
  -6 -10   5   -3.47   39.96
   6  10  -6  -16.51   34.25
  -6 -10   6  -18.65   43.78
   6  10  -7   13.66   39.70
  -6 -10   7   63.60   45.51
   6  10  -8  -35.01   43.93
  -6 -10   8   40.77   47.80
  -6 -10  -9  123.69   45.46
   6  10   9  145.55   39.34
  -6 -10   9  118.08   54.79
   6  11  -3  -14.12   32.57
  -6 -11   3   -9.99   33.69
   6  11  -4   17.63   37.56
  -6 -11   4   36.23   34.04
   6  11  -5   37.56   37.46
  -6 -11   5   18.35   40.26
   6  11  -6   -6.37   36.44
  -6 -11   6   25.33   38.43
   6  11  -7  -32.31   39.60
  -6 -11   7   -4.89   43.78
   6  11  -8   54.53   41.38
  -6 -11   8   41.18   46.27
  -6 -12   3   -9.33   37.10
   6  12  -4    1.07   37.31
  -6 -12   4  -29.00   37.00
   6  12  -5    3.87   31.50
  -6 -12   5   26.45   40.06
   6  12  -6  -15.65   36.18
  -6 -12   6  -82.87   46.27
   6  12  -7  232.09   51.83
  -6 -12   7  208.08   55.86
   6  12  -8   11.26   40.67
  -6 -12   8  -22.02   46.22
   6  13  -4   56.93   32.57
  -6 -13   4  115.33   41.99
   6  13  -5   52.80   37.56
  -6 -13   5  -31.55   41.74
   6  13  -6  123.03   43.47
  -6 -13   6  111.00   49.69
   6  13  -7  123.13   44.24
  -6 -13   7   28.08   47.80
   6  14  -5   21.56   35.06
  -6 -14   5   28.03   44.95
   6  14  -6   60.29   44.95
  -6 -14   6   19.16   43.78
  -6 -15   5  113.39   45.31
   7   0   7   69.67   36.34
   7   0  -7  -23.44   37.87
  -7   0  -7   83.17   40.92
   7   0   8  165.58   44.19
  -7   0   8   58.76   46.02
   7   0  -8   66.91   38.99
  -7   0  -8  123.38   41.23
   7   0   9   13.96   40.41
  -7   0   9  166.60   51.42
   7   0  -9   76.75   38.32
  -7   0  -9   32.21   41.38
   7   0  10  -19.01   46.84
  -7   0  10  180.41   55.45
   7   0 -10  128.53   50.86
  -7   0 -10    7.80   40.57
   7   0  11   42.81   50.86
  -7   0  11  110.74   56.82
   7   0 -11   82.36   47.80
  -7   0 -11   41.43   46.43
   7   1  -6   35.62   43.78
  -7  -1  -6   72.37   35.98
   7   1   6   39.90   34.30
  -7  -1   6    8.41   39.90
   7   1  -7  -26.25   39.09
  -7  -1  -7  -15.49   37.15
   7   1   7   22.27   32.97
  -7  -1   7   -1.38   40.77
   7  -1   8   51.73   38.27
   7   1  -8   21.05   35.88
  -7  -1  -8    9.43   41.38
   7   1   8  106.92   39.50
  -7  -1   8  -27.62   39.39
  -7   1  -8   96.93   37.31
   7  -1   9    5.40   39.65
  -7   1   9    9.89   42.30
   7   1  -9  -21.51   37.97
  -7  -1  -9  -25.63   40.52
   7   1   9    6.17   42.96
  -7  -1   9   79.35   49.13
   7  -1  -9  -28.79   37.36
  -7   1  -9   19.01   39.04
   7  -1  10    7.85   42.66
  -7   1  10  177.10   54.58
   7   1 -10   18.86   44.29
  -7  -1 -10    8.82   46.63
   7   1  10   78.13   48.87
  -7  -1  10   -9.78   48.72
   7  -1 -10   -4.23   42.66
  -7   1 -10  118.54   45.71
   7  -1  11   15.54   47.91
  -7   1  11   63.91   49.84
   7   1 -11   75.78   43.37
  -7  -1 -11   43.27   46.99
   7   1  11   60.49   44.08
  -7  -1  11   59.07   59.73
   7  -1 -11   -7.64   44.95
  -7   1 -11  -26.86   46.02
   7   2  -4  189.69   46.27
   7   2  -5   33.58   43.27
   7   2   5   22.02   29.97
  -7  -2   5   44.19   45.31
   7   2  -6  -33.99   41.69
  -7  -2  -6   54.43   38.38
   7   2   6  -76.14   37.51
  -7  -2   6   40.82   43.37
   7   2  -7  -47.60   40.16
  -7  -2  -7   27.77   34.86
   7   2   7  -10.19   32.31
  -7  -2   7  -22.53   38.58
   7  -2   8  -11.36   41.18
   7   2  -8    5.96   36.49
  -7  -2  -8   19.21   38.02
   7   2   8  -11.87   36.69
  -7  -2   8   44.29   40.82
   7  -2   9   64.83   43.37
   7   2  -9   14.73   44.19
  -7  -2  -9   47.45   40.97
   7   2   9   25.02   43.62
  -7  -2   9   39.45   43.73
  -7   2  -9   29.30   43.11
   7  -2  10   46.38   47.24
   7   2 -10  -20.64   46.73
  -7  -2 -10   42.10   48.52
   7   2  10  -43.62   47.09
  -7  -2  10  -23.90   50.66
   7  -2 -10   89.08   42.30
  -7   2 -10  -16.26   44.08
   7  -2  11  -55.14   47.85
  -7   2  11   20.23   55.80
   7   2 -11   16.97   46.02
  -7  -2 -11   19.42   41.03
   7   2  11   51.57   45.77
  -7  -2  11   10.55   52.75
   7  -2 -11  -21.61   43.83
  -7   2 -11   98.92   49.43
   7   3  -3   -4.33   36.59
  -7  -3   3   58.61   40.62
  -7  -3   4  128.68   49.28
   7   3  -5   37.92   40.87
   7   3   5   57.28   37.25
  -7  -3   5  -10.09   43.37
   7   3  -6   -4.69   44.80
  -7  -3  -6   47.60   35.27
   7   3   6  109.67   35.32
  -7  -3   6  -69.21   45.41
   7   3  -7   76.14   39.39
  -7  -3  -7   61.51   39.24
   7   3   7  130.21   36.03
  -7  -3   7  -31.55   40.87
   7   3  -8  109.93   41.84
  -7  -3  -8  117.06   39.70
   7   3   8  111.46   38.07
  -7  -3   8   -6.47   44.75
   7  -3   9   20.74   39.80
   7   3  -9   16.36   40.31
  -7  -3  -9   39.60   41.38
   7   3   9   67.37   43.27
  -7  -3   9   13.20   45.10
  -7   3  -9   72.32   40.36
   7  -3  10   21.05   51.07
   7   3 -10  -32.57   47.91
  -7  -3 -10   15.09   46.53
   7   3  10  -18.14   41.99
  -7  -3  10   58.40   50.40
  -7   3 -10   62.02   46.89
   7  -3  11    4.33   48.62
   7   3 -11  -34.55   46.84
  -7  -3 -11   37.87   48.21
   7   3  11   14.73   47.75
  -7  -3  11   99.07   56.01
   7  -3 -11   -5.05   42.71
  -7   3 -11  -48.92   46.68
   7   4  -2  -15.09   39.14
  -7  -4   2  -10.96   38.94
   7   4  -3   17.17   42.10
  -7  -4   3   22.32   39.85
   7   4  -4   31.14   38.53
  -7  -4  -4  -62.33   30.83
   7   4   4    5.50   28.28
  -7  -4   4  -48.52   49.38
   7   4   5    8.26   28.90
  -7  -4   5  -67.12   44.54
   7   4  -6  -34.35   44.39
  -7  -4  -6   15.34   35.52
   7   4   6  -61.77   33.64
  -7  -4   6   40.72   42.35
   7   4  -7    0.92   35.57
  -7  -4  -7    4.59   34.09
   7   4   7  -26.09   32.87
  -7  -4   7   41.23   44.54
   7   4  -8   -9.12   38.58
  -7  -4  -8  -50.61   38.78
   7   4   8    4.03   31.39
  -7  -4   8    9.99   43.06
   7   4  -9  -15.14   40.26
  -7  -4  -9   -4.03   42.96
   7   4   9  -35.37   43.11
  -7  -4   9   13.05   46.43
   7  -4  10   35.06   46.68
   7   4 -10 -106.11   49.49
  -7  -4 -10   20.79   52.54
   7   4  10   11.36   43.68
  -7  -4  10  137.45   55.14
  -7   4 -10   69.41   45.46
  -7  -5   0   41.59   27.27
   7   5  -1  115.64   36.74
  -7  -5   1  137.35   37.00
   7   5  -2  137.86   41.33
  -7  -5   2   81.95   40.92
   7   5  -3   10.09   45.46
  -7  -5  -3   91.73   23.60
   7   5   3   97.39   24.97
  -7  -5   3   14.88   42.61
   7   5  -4  -24.46   42.71
  -7  -5  -4   -6.83   26.70
   7   5   4  -37.05   25.02
  -7  -5   4    8.21   48.31
   7   5  -5  -14.83   37.36
   7   5   5   28.74   28.59
  -7  -5   5   -0.41   44.08
  -7  -5  -6   15.49   34.55
   7   5   6   71.09   30.43
  -7  -5   6   59.47   42.91
   7   5  -7   33.58   38.99
  -7  -5  -7   27.27   33.99
   7   5   7    2.60   34.91
  -7  -5   7   70.74   44.54
   7   5  -8  154.93   43.22
  -7  -5  -8  265.16   51.07
   7   5   8  343.29   55.14
  -7  -5   8  343.90   63.45
   7   5  -9    3.98   40.21
  -7  -5  -9   81.95   43.68
   7   5   9   29.41   38.73
  -7  -5   9   41.38   47.85
   7   5 -10   87.50   50.76
  -7  -5 -10   -5.91   54.17
   7   5  10  -64.06   41.99
  -7  -5  10    9.28   52.24
  -7  -6   0   26.45   27.72
   7   6  -1   19.98   31.24
  -7  -6  -1   38.43   19.26
   7   6   1   49.13   18.75
  -7  -6   1   70.84   33.43
   7   6  -2   36.23   40.16
  -7  -6   2   -4.54   36.18
   7   6  -3   27.67   41.59
  -7  -6  -3   46.58   19.67
   7   6   3   -6.63   18.35
  -7  -6   3   72.32   43.73
   7   6  -4  -27.01   39.04
  -7  -6  -4   12.59   21.91
   7   6   4  -61.05   26.81
  -7  -6   4  -38.88   41.28
   7   6  -5   11.21   40.46
  -7  -6  -5  -20.95   27.77
   7   6   5    3.98   25.63
  -7  -6   5   -9.94   40.01
   7   6  -6   35.47   35.42
  -7  -6  -6    1.02   31.39
   7   6   6  -10.19   31.85
  -7  -6   6   -5.66   40.31
  -7  -6  -7  -26.76   32.36
   7   6   7   -9.63   29.51
  -7  -6   7  -14.47   44.34
   7   6  -8   -9.07   38.94
  -7  -6  -8   15.80   40.62
   7   6   8   -8.61   30.68
  -7  -6   8  -21.05   43.17
   7   6  -9  -19.82   43.47
  -7  -6  -9   -9.89   42.15
   7   6   9  -35.98   37.00
  -7  -6   9  -19.42   47.04
   7   6 -10   75.07   49.23
  -7  -6 -10   22.58   43.93
   7   6  10   56.67   41.94
  -7  -6  10   34.09   50.61
   7   7   0   18.50   27.16
  -7  -7   0  -15.44   29.61
   7   7  -1  115.64   36.44
  -7  -7  -1  145.81   27.72
   7   7   1  107.99   23.65
  -7  -7   1  126.08   37.20
   7   7  -2   27.57   40.11
  -7  -7   2   27.47   36.18
   7   7  -3  -19.26   41.28
  -7  -7   3   85.57   44.44
   7   7  -4  -12.44   36.08
  -7  -7  -4   23.19   21.20
   7   7   4   10.19   21.10
  -7  -7   4  -14.58   37.76
   7   7  -5  205.38   48.11
  -7  -7  -5  156.87   34.86
   7   7   5  101.82   28.44
  -7  -7   5  158.19   44.64
   7   7  -6   80.52   42.76
  -7  -7  -6  -18.50   35.37
   7   7   6   29.35   28.69
  -7  -7   6  -19.01   41.28
   7   7  -7  -42.55   32.26
  -7  -7  -7   13.05   31.39
   7   7   7   17.38   32.00
  -7  -7   7   50.05   44.29
  -7  -7  -8  -20.33   39.70
   7   7   8    5.10   32.26
  -7  -7   8   79.25   47.40
   7   7  -9   27.98   46.58
  -7  -7  -9  -21.46   40.87
   7   7   9    3.52   39.14
  -7  -7   9   61.00   50.10
   7   7 -10   32.16   45.05
  -7  -7 -10   29.97   42.76
   7   7  10    2.45   42.71
  -7  -7  10   44.75   51.52
   7   8   0   -2.65   25.89
  -7  -8   0   47.09   27.06
   7   8  -1  117.93   34.91
  -7  -8   1  118.13   36.08
   7   8  -2   16.41   37.71
  -7  -8   2  -33.58   35.37
   7   8  -3  208.95   44.19
  -7  -8   3  186.88   45.56
   7   8  -4  326.78   56.16
  -7  -8   4  265.01   51.32
   7   8  -5   74.56   40.11
  -7  -8  -5   87.05   28.39
   7   8   5  101.01   25.84
  -7  -8   5  130.98   43.06
   7   8  -6   16.51   47.75
  -7  -8  -6   61.36   36.44
  -7  -8   6   46.22   43.68
   7   8  -7  -32.16   39.55
  -7  -8  -7  -21.30   32.11
   7   8   7  -32.67   32.67
  -7  -8   7   36.49   46.02
  -7  -8  -8   -5.55   36.18
   7   8   8   -7.03   33.94
  -7  -8   8   52.65   46.43
  -7  -8  -9   48.16   43.17
   7   8   9   10.19   37.76
  -7  -8   9  -19.98   51.47
  -7  -9   0  -53.72   24.87
   7   9  -1   24.87   30.12
  -7  -9   1    9.38   28.95
   7   9  -2   -8.15   31.95
  -7  -9   2  -51.73   35.67
   7   9  -3   31.29   38.68
  -7  -9   3  -50.86   38.99
   7   9  -4    8.46   38.78
  -7  -9   4  -55.50   37.20
   7   9  -5  -13.81   36.54
  -7  -9   5   19.47   38.68
   7   9  -6   31.04   36.69
  -7  -9  -6   14.78   25.07
  -7  -9   6   63.55   47.29
   7   9  -7    0.76   39.90
  -7  -9  -7   23.60   34.04
   7   9   7  -42.86   31.29
  -7  -9   7  -51.52   46.48
   7   9  -8    6.63   44.34
  -7  -9  -8   -3.26   37.92
   7   9   8   24.11   33.84
  -7  -9   8  -62.12   44.03
  -7  -9  -9  -50.10   42.76
   7   9   9    3.26   37.46
  -7  -9   9    4.13   50.15
   7  10  -1   44.59   27.47
  -7 -10   1   -3.06   29.86
   7  10  -2   11.21   30.48
  -7 -10   2  -20.59   33.28
   7  10  -3  112.02   40.11
  -7 -10   3   62.79   37.36
   7  10  -4   61.61   38.99
  -7 -10   4    3.87   35.93
   7  10  -5   -2.90   41.79
  -7 -10   5   49.74   37.66
   7  10  -6   16.31   36.13
  -7 -10   6   22.63   41.23
   7  10  -7   39.24   42.10
  -7 -10   7   57.89   48.52
   7  10  -8   30.02   41.59
  -7 -10  -8   22.63   38.38
   7  10   8   34.91   32.00
  -7 -10   8   50.96   49.28
   7  10  -9   41.94   45.82
  -7 -10  -9    9.43   37.81
   7  10   9  -51.73   35.73
  -7 -10   9   32.87   52.80
   7  11  -2  164.92   37.15
  -7 -11   2   88.42   31.95
   7  11  -3   39.85   34.35
  -7 -11   3   17.94   31.34
   7  11  -4   -6.32   37.31
  -7 -11   4    0.71   36.74
   7  11  -5    0.92   32.92
  -7 -11   5   62.89   41.13
   7  11  -6   -6.47   35.06
  -7 -11   6  -31.44   43.62
   7  11  -7   46.38   40.01
  -7 -11   7    6.22   47.09
   7  11  -8   29.66   38.12
  -7 -11   8   38.22   48.16
   7  12  -3  -23.39   32.67
  -7 -12   3   48.57   38.68
   7  12  -4  274.28   48.21
  -7 -12   4  175.21   45.31
   7  12  -5   89.64   35.52
  -7 -12   5  -13.00   39.70
   7  12  -6   -7.44   39.14
  -7 -12   6  -22.63   48.01
   7  12  -7  -38.83   39.85
  -7 -12   7  -35.42   49.54
  -7 -13   3   81.54   38.07
   7  13  -4   80.73   35.06
  -7 -13   4   46.33   38.22
   7  13  -5   43.27   35.27
  -7 -13   5   40.06   45.26
   7  13  -6   75.99   41.33
  -7 -13   6   88.12   45.97
   7  13  -7   35.32   44.39
  -7 -13   7   29.10   51.57
   7  14  -4   -4.18   34.45
  -7 -14   4  -20.49   42.20
   7  14  -5    4.59   38.02
  -7 -14   5   21.05   41.54
   7  14  -6   28.85   37.51
  -7 -14   6   22.12   44.95
   7  15  -5   69.00   40.87
  -7 -15   5  -62.07   43.62
   8   0   8 1306.19  159.41
   8   0  -8 1352.57  165.83
  -8   0  -8 1265.42  155.95
   8   0   9  -13.71   38.83
  -8   0   9   -0.71   46.38
   8   0  -9    6.98   39.09
  -8   0  -9  -16.00   41.48
   8   0  10  242.13   58.56
  -8   0  10   92.35   49.13
   8   0 -10  170.98   51.47
  -8   0 -10  101.42   51.22
   8   0 -11   26.30   45.82
   8   1  -7  392.62   59.73
  -8  -1  -7  393.28   61.46
   8   1   7  326.93   53.00
  -8  -1   7  369.23   63.55
   8  -1   8   -5.30   37.56
   8   1  -8   62.38   36.39
  -8  -1  -8    2.50   38.17
   8   1   8  -15.54   35.62
  -8  -1   8   68.85   41.08
   8  -1   9   71.81   43.62
   8   1  -9   96.78   45.41
  -8  -1  -9   25.84   37.31
   8   1   9   46.53   43.22
  -8  -1   9   67.53   45.31
  -8   1  -9   87.96   43.62
   8  -1  10   -3.87   47.91
  -8   1  10  -74.30   47.65
   8   1 -10   71.71   46.68
  -8  -1 -10  -39.80   48.98
   8   1  10   36.23   43.57
  -8  -1  10   51.68   50.71
   8  -1 -10   16.87   42.25
  -8   1 -10   24.87   43.01
   8   1  11   33.13   49.74
   8  -1 -11    7.59   47.45
   8   2  -5  106.11   41.23
   8   2  -6   62.99   42.35
   8   2   6   86.84   31.19
  -8  -2   6   79.20   45.31
   8   2  -7   74.97   34.30
   8   2   7   43.01   32.36
  -8  -2   7   33.43   41.99
   8   2  -8  154.72   42.96
  -8  -2  -8  206.96   45.77
   8   2   8  121.34   39.60
  -8  -2   8  129.34   47.24
   8  -2   9   -0.66   39.45
   8   2  -9   88.32   41.23
  -8  -2  -9   11.47   41.59
   8   2   9   29.71   38.43
  -8  -2   9  -23.70   46.33
   8  -2  10  -40.92   48.31
   8   2 -10  -71.45   45.97
   8   2  10  137.19   46.68
  -8  -2  10  -13.81   50.86
  -8   2 -10   20.23   47.09
   8   3  -4   10.86   40.87
  -8  -3   4  -68.95   44.95
  -8  -3   5  102.23   44.80
   8   3  -6  126.69   43.98
  -8  -3  -6  100.45   39.04
   8   3   6  111.61   34.55
  -8  -3   6  130.82   46.99
   8   3  -7   93.82   35.52
  -8  -3  -7  142.54   40.21
   8   3   7  129.80   35.62
  -8  -3   7  223.58   52.24
   8   3  -8   33.53   38.02
  -8  -3  -8   35.83   40.62
   8   3   8   28.85   35.67
  -8  -3   8   40.01   43.27
   8   3  -9   21.46   39.60
  -8  -3  -9   14.73   42.66
   8   3   9   62.63   44.80
  -8  -3   9   61.56   48.01
   8  -3  10  -37.00   42.35
   8   3 -10   77.67   54.53
  -8  -3 -10  127.61   54.79
   8   3  10   28.34   43.93
  -8  -3  10  -50.30   48.26
  -8   3 -10   58.35   48.72
   8   4  -3   14.01   46.58
  -8  -4   3   67.02   45.10
   8   4  -4   40.77   46.84
  -8  -4   4  111.66   53.05
   8   4  -5  -30.73   39.60
   8   4   5    8.46   27.27
  -8  -4   5   30.32   40.72
  -8  -4  -6   53.36   33.99
   8   4   6   11.31   30.27
  -8  -4   6  -27.72   41.59
   8   4  -7   41.84   37.31
  -8  -4  -7   16.05   32.62
   8   4   7   21.00   35.06
  -8  -4   7  -42.71   41.54
   8   4  -8   60.34   37.81
  -8  -4  -8  -26.25   37.31
   8   4   8   36.85   36.74
  -8  -4   8   57.38   44.49
   8   4  -9    2.65   40.77
  -8  -4  -9   49.49   43.52
   8   4   9   45.61   38.83
  -8  -4   9  -52.70   48.47
   8   4 -10   14.07   47.45
  -8  -4 -10   15.59   52.19
   8   4  10   55.35   41.74
  -8  -4  10  102.74   56.26
   8   5  -1   87.35   31.19
  -8  -5   1   50.66   31.75
   8   5  -2   22.02   39.55
  -8  -5   2    4.03   37.31
   8   5  -3  868.41  111.35
  -8  -5   3  872.49  112.88
   8   5  -4  -11.82   35.47
  -8  -5  -4  -23.04   22.88
   8   5   4  -24.31   25.02
  -8  -5   4   42.30   41.64
   8   5  -5  618.18   86.28
   8   5   5  647.74   81.03
  -8  -5   5  609.52   84.45
   8   5  -6  121.75   43.22
  -8  -5  -6  221.03   42.55
   8   5   6  149.58   39.24
  -8  -5   6  199.88   51.12
  -8  -5  -7 2158.81  255.33
   8   5   7 2385.59  280.50
  -8  -5   7 2029.36  244.37
   8   5  -8   11.01   40.01
  -8  -5  -8   -2.14   41.64
   8   5   8  -27.32   32.26
  -8  -5   8   18.86   43.27
   8   5  -9  340.74   62.84
  -8  -5  -9  369.43   63.76
   8   5   9  387.63   62.33
  -8  -5   9  393.39   70.74
   8   5 -10   -2.70   47.75
  -8  -5 -10   35.88   45.41
   8   5  10   -8.10   40.36
  -8  -5  10   17.33   48.06
   8   6   0   98.82   28.85
  -8  -6   0  113.34   32.26
   8   6  -1  -19.72   33.38
  -8  -6   1   44.24   33.38
   8   6  -2   51.93   39.39
  -8  -6   2   23.29   33.84
   8   6  -3  -20.84   40.31
  -8  -6   3   16.51   43.27
   8   6  -4   14.63   35.62
  -8  -6  -4   22.07   21.35
   8   6   4  -19.98   20.74
  -8  -6   4   13.86   38.32
   8   6  -5  -17.74   39.96
  -8  -6  -5  -14.93   27.67
   8   6   5  -27.88   25.02
  -8  -6   5   12.74   39.60
   8   6  -6  -29.66   40.41
  -8  -6  -6   21.61   35.32
   8   6   6   47.80   29.00
  -8  -6   6   22.58   40.67
   8   6  -7   33.89   36.59
  -8  -6  -7  -28.08   32.67
   8   6   7  -18.81   32.00
  -8  -6   7    1.63   43.93
  -8  -6  -8  151.16   45.15
   8   6   8  146.21   38.32
  -8  -6   8  133.01   50.50
   8   6  -9   77.52   50.50
  -8  -6  -9   14.68   42.91
   8   6   9   29.81   39.80
  -8  -6   9   47.14   49.89
   8   6 -10   46.73   46.89
  -8  -6 -10    4.33   45.31
   8   6  10    9.53   43.11
  -8  -6  10  107.69   53.15
   8   7   0   32.82   26.96
  -8  -7   0    4.38   28.54
   8   7  -1  101.26   32.67
  -8  -7  -1   61.97   22.02
   8   7   1   82.66   21.51
  -8  -7   1   35.01   32.31
   8   7  -2    8.87   35.42
  -8  -7   2   70.43   36.34
   8   7  -3  -16.00   34.91
  -8  -7  -3   10.75   13.56
   8   7   3    7.90   13.66
  -8  -7   3   -6.32   38.48
   8   7  -4   35.32   38.58
  -8  -7  -4   14.37   21.00
   8   7   4   12.08   18.55
  -8  -7   4   -4.84   37.76
   8   7  -5  101.47   40.92
  -8  -7  -5  144.38   30.93
   8   7   5  130.01   27.83
  -8  -7   5   88.73   40.77
   8   7  -6  -45.66   45.41
   8   7   6   20.69   25.38
  -8  -7   6   27.42   42.66
   8   7  -7   65.39   41.74
  -8  -7  -7   39.34   31.85
   8   7   7   18.30   33.89
  -8  -7   7   76.80   48.52
   8   7  -8   -6.47   34.55
  -8  -7  -8    2.09   35.88
   8   7   8   16.97   34.15
  -8  -7   8   46.33   45.20
  -8  -7  -9   37.25   43.88
   8   7   9  -20.95   36.85
  -8  -7   9   11.01   52.95
   8   8   0  667.11   82.61
  -8  -8   0  440.63   58.45
   8   8  -1   20.74   29.51
  -8  -8   1   80.11   30.22
   8   8  -2   29.71   30.93
  -8  -8   2  138.31   39.80
   8   8  -3   99.63   39.80
  -8  -8   3  223.58   46.73
   8   8  -4  278.00   53.05
  -8  -8  -4  178.27   28.85
   8   8   4  153.71   25.58
  -8  -8   4  221.84   47.45
   8   8  -5  169.86   43.68
  -8  -8  -5  239.73   37.87
   8   8   5  215.27   34.66
  -8  -8   5  250.74   50.20
   8   8  -6   97.34   38.53
   8   8   6  122.26   27.98
  -8  -8   6  135.56   50.20
   8   8  -7    0.92   40.31
  -8  -8  -7   96.58   35.78
   8   8   7   38.83   30.63
  -8  -8   7    4.33   48.16
   8   8  -8  129.34   45.56
  -8  -8  -8  150.29   41.64
   8   8   8  115.53   38.99
  -8  -8   8  102.54   44.90
   8   8  -9  -19.01   39.04
  -8  -8  -9  -30.68   42.20
   8   8   9   11.06   38.68
  -8  -8   9    5.20   50.45
   8   9   0   29.35   26.76
  -8  -9   0   27.88   23.60
   8   9  -1   54.38   31.24
  -8  -9  -1   -8.31   20.79
  -8  -9   1   26.96   29.76
   8   9  -2  -29.46   31.50
  -8  -9   2   37.71   33.69
   8   9  -3   75.17   39.29
  -8  -9   3  123.79   39.24
   8   9  -4   40.36   38.22
  -8  -9   4   41.84   36.39
   8   9  -5   35.11   43.06
  -8  -9  -5   18.55   22.93
  -8  -9   5   52.70   37.66
   8   9  -6   -0.25   35.57
   8   9   6  -63.81   24.82
  -8  -9   6  -39.90   42.71
   8   9  -7    5.50   42.15
  -8  -9  -7   36.39   31.60
   8   9   7   31.70   30.43
  -8  -9   7   53.15   47.29
   8   9  -8   30.53   43.27
  -8  -9  -8  -28.59   37.92
   8   9   8   59.37   35.11
  -8  -9   8   32.31   48.77
   8   9  -9  -34.30   44.13
  -8  -9  -9   14.78   36.80
   8   9   9   14.88   34.60
  -8  -9   9   31.14   46.53
   8  10   0   27.01   23.29
  -8 -10   0   15.95   23.55
   8  10  -1   71.30   29.56
  -8 -10   1  111.00   34.20
   8  10  -2   47.65   33.79
  -8 -10   2   22.68   31.85
   8  10  -3  -27.47   37.92
  -8 -10   3  -10.14   34.04
   8  10  -4  539.70   76.60
  -8 -10   4  458.92   68.90
   8  10  -5   80.32   41.59
  -8 -10   5   55.14   39.04
   8  10  -6  526.45   76.19
  -8 -10   6  504.74   76.60
   8  10  -7  112.58   43.27
  -8 -10  -7   30.73   29.15
   8  10   7   56.88   30.83
  -8 -10   7   23.49   46.84
   8  10  -8  101.42   42.55
  -8 -10  -8  177.45   44.08
   8  10   8   70.89   32.77
  -8 -10   8  238.36   61.31
   8  11  -1    1.12   27.21
  -8 -11   1   -0.97   29.56
   8  11  -2   25.23   32.92
  -8 -11   2  -22.83   30.07
   8  11  -3   18.96   32.67
  -8 -11   3    8.56   35.88
   8  11  -4    3.36   31.50
  -8 -11   4  -18.09   38.17
   8  11  -5  -10.04   32.11
  -8 -11   5   39.34   39.14
   8  11  -6   51.78   44.03
  -8 -11   6  -44.44   44.13
   8  11  -7   61.56   44.29
  -8 -11   7  -35.32   50.20
   8  11  -8   19.57   43.32
  -8 -11  -8  -15.65   34.86
  -8 -11   8   88.17   49.59
   8  12  -2  -83.12   32.26
  -8 -12   2   13.25   35.11
   8  12  -3   14.78   28.39
  -8 -12   3   -3.47   35.47
   8  12  -4   43.01   33.08
  -8 -12   4  -61.72   40.31
   8  12  -5   -5.61   35.32
  -8 -12   5   45.15   44.75
   8  12  -6   -2.29   38.73
  -8 -12   6  102.23   50.66
   8  12  -7   42.35   44.54
  -8 -12   7    9.68   47.50
  -8 -13   2  -25.74   36.95
   8  13  -3  222.35   42.25
  -8 -13   3  277.55   51.27
   8  13  -4   -1.63   34.09
  -8 -13   4   47.40   38.38
   8  13  -5   23.29   34.30
  -8 -13   5   36.08   47.60
   8  13  -6  129.96   41.23
  -8 -13   6  170.42   52.39
   8  14  -3  -17.63   33.69
  -8 -14   3  -58.76   40.41
   8  14  -4  -36.29   33.64
  -8 -14   4   87.50   42.55
   8  14  -5   90.82   40.82
  -8 -14   5   22.98   44.80
   8  15  -4   11.87   35.47
  -8 -15   4    5.05   40.01
   9   0   9   42.40   43.27
   9   0  -9   75.78   39.90
  -9   0  -9   69.82   43.11
   9   0  10   28.08   43.62
  -9   0  10  -43.47   47.34
   9   0 -10   60.34   43.06
  -9   0 -10   82.71   48.57
   9   1  -8  -43.57   34.76
  -9  -1  -8  -20.03   36.59
   9   1   8   10.86   39.45
  -9  -1   8  -20.95   42.71
   9  -1   9  -55.60   44.75
   9   1  -9   63.55   42.20
  -9  -1  -9  -34.86   42.86
   9   1   9    8.97   36.34
  -9  -1   9  152.48   51.57
   9  -1  10   31.75   46.73
   9   1 -10   14.07   46.12
  -9  -1 -10    7.08   41.94
   9   1  10   28.79   40.62
  -9  -1  10  -11.98   48.98
  -9   1 -10  -97.95   51.42
   9   2  -6  120.68   42.91
   9   2  -7  -13.40   33.58
   9   2   7   34.55   30.68
  -9  -2   7   54.28   41.38
   9   2  -8   12.79   37.05
  -9  -2  -8  -23.44   37.87
   9   2   8   -7.34   35.32
  -9  -2   8  -13.05   39.60
   9   2  -9  -12.44   40.52
  -9  -2  -9   23.65   42.86
   9   2   9  -52.34   40.67
  -9  -2   9   79.30   48.42
   9  -2  10   49.79   47.96
   9   2 -10   12.33   49.18
  -9  -2 -10  -31.39   43.68
   9   2  10   22.17   43.98
  -9  -2  10   13.45   45.05
   9   3  -5  208.29   45.46
  -9  -3   5  212.36   49.13
  -9  -3   6  -28.08   44.34
   9   3  -7  158.29   43.06
  -9  -3  -7  203.55   42.71
   9   3   7  171.29   38.53
  -9  -3   7  121.19   44.08
   9   3  -8   -3.06   38.63
  -9  -3  -8  -25.89   35.27
   9   3   8  -70.58   36.59
  -9  -3   8   52.03   43.47
   9   3  -9  145.04   47.50
  -9  -3  -9   65.39   43.78
   9   3   9   79.76   38.99
  -9  -3   9   27.67   45.46
   9   3 -10   -0.71   42.30
  -9  -3 -10   19.67   49.54
   9   3  10  -30.07   40.87
  -9  -3  10  -37.87   49.64
  -9  -4   4   57.18   39.24
   9   4  -5  -26.14   40.62
  -9  -4   5   -9.07   36.54
   9   4  -6   38.78   38.53
  -9  -4  -6   23.49   30.93
   9   4   6   -2.96   31.39
  -9  -4   6  -44.34   40.06
  -9  -4  -7   17.02   35.67
   9   4   7   22.02   31.09
  -9  -4   7  -30.78   43.47
   9   4  -8   24.46   43.57
  -9  -4  -8  -13.30   41.59
   9   4   8   75.07   34.25
  -9  -4   8   38.48   44.59
   9   4  -9  -46.17   42.30
  -9  -4  -9   50.81   43.17
   9   4   9  -24.97   39.55
  -9  -4   9   14.01   47.96
   9   4 -10  -20.74   44.85
  -9  -4 -10   38.27   45.46
   9   4  10   -0.56   40.77
  -9  -4  10  119.56   50.20
   9   5  -2    7.39   35.67
  -9  -5   2  -76.55   37.66
   9   5  -3   27.88   37.66
  -9  -5   3  -31.29   40.77
   9   5  -4   80.88   36.90
  -9  -5   4   93.67   40.57
   9   5  -5  256.65   52.80
  -9  -5  -5   86.84   26.81
   9   5   5  141.58   30.37
  -9  -5   5   74.20   38.83
   9   5  -6  -18.60   41.08
  -9  -5  -6   -4.33   31.09
   9   5   6   31.95   28.18
  -9  -5   6   29.46   44.69
   9   5  -7   45.15   40.46
  -9  -5  -7   30.73   33.43
   9   5   7   62.38   33.74
  -9  -5   7   33.23   45.41
  -9  -5  -8   25.33   41.23
   9   5   8   50.05   35.01
  -9  -5   8   42.61   47.96
   9   5  -9   57.54   49.13
  -9  -5  -9   97.70   45.92
   9   5   9   65.28   40.82
  -9  -5   9  -15.34   47.60
   9   5 -10   -8.97   45.10
  -9  -5 -10  -81.64   48.82
   9   5  10   15.59   43.73
  -9  -5  10    6.78   48.72
   9   6  -1  -21.20   30.48
  -9  -6   1  -33.53   30.99
   9   6  -2   -7.08   33.99
  -9  -6   2  -45.10   34.96
   9   6  -3    9.94   36.03
  -9  -6   3  -18.65   37.56
   9   6  -4  -89.80   38.38
   9   6   4   -6.06   18.24
   9   6  -5    4.59   38.07
  -9  -6  -5   -5.45   26.09
   9   6   5   48.57   23.95
  -9  -6   5  -56.62   37.76
   9   6  -6  -61.46   39.85
  -9  -6  -6  -15.95   30.88
   9   6   6   -2.45   24.00
  -9  -6   6   -5.45   43.27
   9   6  -7  -10.70   39.90
  -9  -6  -7  -12.18   32.06
   9   6   7  -25.79   35.52
  -9  -6   7   65.95   47.85
   9   6  -8   42.96   39.70
  -9  -6  -8   -5.05   37.71
   9   6   8   72.72   35.78
  -9  -6   8   17.79   44.08
  -9  -6  -9  -31.39   45.20
   9   6   9   71.91   39.09
  -9  -6   9  -17.17   52.19
   9   7   0  -43.62   24.31
  -9  -7   0    5.50   25.63
   9   7  -1  108.81   32.26
  -9  -7   1   79.50   30.12
   9   7  -2    6.52   30.27
  -9  -7   2  -62.89   35.93
   9   7  -3   88.68   37.97
  -9  -7   3  113.24   39.70
   9   7  -4   33.69   39.04
  -9  -7  -4  -12.38   19.37
   9   7   4   34.30   18.55
  -9  -7   4   66.71   37.05
   9   7  -5  274.23   51.42
  -9  -7  -5  329.02   46.48
   9   7   5  271.58   40.21
  -9  -7   5  164.36   44.13
   9   7  -6  -41.33   35.78
   9   7   6   -8.10   23.09
  -9  -7   6   51.83   46.94
   9   7  -7   39.09   41.43
  -9  -7  -7   70.13   34.25
   9   7   7   -9.48   29.61
  -9  -7   7    6.47   48.16
   9   7  -8   14.93   41.13
  -9  -7  -8   30.88   36.44
   9   7   8  102.03   38.22
  -9  -7   8   47.50   42.50
   9   7  -9    5.30   40.67
  -9  -7  -9   48.06   43.11
   9   7   9   -5.66   38.63
  -9  -7   9   70.74   50.45
   9   8   0  -14.88   28.90
  -9  -8   0  -29.71   24.00
   9   8  -1  -53.31   30.78
  -9  -8  -1  -23.39   19.32
  -9  -8   1  -36.54   28.59
   9   8  -2   23.80   31.95
  -9  -8  -2   18.70   11.16
   9   8   2   20.08   12.08
  -9  -8   2   34.96   34.71
   9   8  -3  -59.78   37.25
  -9  -8   3   19.11   33.43
   9   8  -5  -17.07   42.61
  -9  -8  -5   20.89   23.65
   9   8   5  -15.24   21.81
  -9  -8   5   15.03   36.54
   9   8  -6   58.71   37.92
  -9  -8  -6   78.64   25.18
   9   8   6   58.10   27.62
  -9  -8   6  119.76   46.58
   9   8  -7   13.71   42.50
  -9  -8  -7   42.55   31.24
   9   8   7   43.52   29.30
  -9  -8   7  -41.33   46.07
   9   8  -8  314.39   60.44
  -9  -8  -8  153.20   43.57
   9   8   8  152.94   40.92
  -9  -8   8  282.39   61.92
   9   8  -9  -45.36   43.62
  -9  -8  -9  -10.14   35.98
   9   8   9   19.98   34.96
  -9  -8   9   99.58   47.29
   9   9   0   -6.01   26.35
  -9  -9   0   -5.96   25.12
  -9  -9  -1    8.10   20.44
   9   9   1    3.41   19.47
  -9  -9   1   24.77   28.54
   9   9  -2  -25.63   32.92
  -9  -9   2  -41.89   32.67
   9   9  -3  -16.92   34.35
  -9  -9   3    0.82   34.45
   9   9  -4  -19.26   35.83
  -9  -9  -4   82.92   23.24
  -9  -9   4  -24.11   37.87
   9   9  -5  -36.59   43.78
  -9  -9  -5  -32.21   22.22
   9   9   5   20.84   21.40
  -9  -9   5  -29.66   35.01
   9   9  -6   57.18   37.10
  -9  -9  -6  105.24   31.09
   9   9   6   71.91   27.01
  -9  -9   6   47.85   44.34
   9   9  -7  -85.98   40.57
  -9  -9  -7   19.62   30.78
   9   9   7    2.19   31.39
  -9  -9   7  -17.53   45.66
   9   9  -8   29.05   38.99
  -9  -9  -8  -13.45   35.11
   9   9   8   49.03   32.97
  -9  -9   8  -22.98   50.45
   9  10   0   12.69   25.69
  -9 -10   0   19.11   23.95
   9  10  -1   -5.20   27.16
  -9 -10  -1  -38.43   21.76
  -9 -10   1  -38.94   32.06
   9  10  -2   39.24   32.67
  -9 -10   2   36.49   31.90
   9  10  -3  -14.22   30.68
  -9 -10   3   30.83   33.38
   9  10  -4  114.36   41.18
  -9 -10   4   74.00   40.87
   9  10  -5   61.00   33.74
  -9 -10   5   10.35   39.85
   9  10  -6  -34.81   41.89
  -9 -10  -6   -4.38   27.98
   9  10   6   19.88   24.16
  -9 -10   6  102.08   44.08
   9  10  -7   13.51   43.73
  -9 -10  -7  -15.44   31.34
   9  10   7   24.46   29.25
  -9 -10   7   67.42   51.07
   9  10  -8   82.56   44.95
  -9 -10  -8  104.22   38.22
   9  10   8   95.66   35.06
  -9 -10   8   43.17   48.52
   9  11   0  -18.86   23.90
  -9 -11   0   -4.64   24.16
   9  11  -1   -3.06   27.93
  -9 -11   1    4.59   29.86
   9  11  -2   -2.65   28.54
  -9 -11   2  -11.42   33.48
   9  11  -3   -8.41   29.41
  -9 -11   3  -41.59   34.25
   9  11  -4   26.30   31.70
  -9 -11   4   13.71   38.63
   9  11  -5   11.62   34.96
  -9 -11   5   35.11   42.25
   9  11  -6   43.62   40.62
  -9 -11   6    6.78   46.48
   9  11  -7    5.61   43.27
  -9 -11  -7    6.42   27.57
  -9 -11   7  -37.76   45.97
   9  12  -1  -11.77   25.18
  -9 -12   1  -15.34   31.29
   9  12  -2  131.38   33.23
  -9 -12   2  156.30   37.97
   9  12  -3  -42.40   31.80
  -9 -12   3  -61.67   37.20
   9  12  -4  558.56   76.85
  -9 -12   4  573.34   80.11
   9  12  -5  -27.93   37.10
  -9 -12   5   26.45   48.77
   9  12  -6   89.03   40.06
  -9 -12   6  112.07   51.32
   9  12  -7   -3.21   46.33
  -9 -12   7  -10.50   47.55
  -9 -13   1   56.42   33.69
   9  13  -2   -2.45   29.76
  -9 -13   2   24.72   34.76
   9  13  -3  954.03  118.44
  -9 -13   3 1054.43  131.69
   9  13  -4   24.36   33.94
  -9 -13   4   72.47   41.48
   9  13  -5  520.84   74.56
  -9 -13   5  594.74   88.37
   9  13  -6   54.89   38.88
  -9 -13   6  -51.47   42.30
   9  14  -2   18.86   30.78
  -9 -14   2   16.72   35.78
   9  14  -3   18.50   36.08
  -9 -14   3  -14.63   39.90
   9  14  -4   -4.89   33.53
  -9 -14   4   10.91   39.55
   9  14  -5   45.46   39.85
  -9 -14   5  -12.64   48.11
   9  15  -3  103.76   38.32
  -9 -15   3  108.45   39.45
  10   0  10  115.79   45.41
  10   0 -10  178.68   49.03
 -10   0 -10  142.24   49.18
  10   1  -9   16.77   42.66
 -10  -1  -9   75.22   49.33
  10   1   9   94.79   44.03
 -10  -1   9  107.63   49.54
  10  -1  10   35.01   43.62
  10   1 -10  -44.75   47.14
 -10  -1 -10  -36.74   40.11
  10   1  10  -43.62   39.60
 -10  -1  10  -14.27   46.94
  10   2  -7   78.84   36.90
  10   2  -8   46.68   39.14
  10   2   8   38.78   36.90
 -10  -2   8   48.06   40.92
  10   2  -9  -41.48   41.89
 -10  -2  -9  -12.23   44.59
  10   2   9   86.74   40.01
 -10  -2   9    5.15   47.96
  10   2 -10   52.90   42.40
 -10  -2 -10   22.73   45.82
  10   2  10  -39.70   43.22
 -10  -2  10   54.84   48.82
  10   3  -6  -19.93   31.90
 -10  -3   6  -13.05   35.62
  10   3   7    0.56   27.83
 -10  -3   7  -68.70   42.50
  10   3  -8  -15.29   40.06
 -10  -3  -8   37.41   38.53
  10   3   8   24.16   33.13
 -10  -3   8   21.86   40.16
  10   3  -9   72.21   42.35
 -10  -3  -9   -7.90   46.43
  10   3   9   -1.58   38.99
 -10  -3   9   94.89   49.18
  10   3 -10  -44.75   44.44
 -10  -3 -10   -6.12   43.68
  10   3  10    5.71   39.45
 -10  -3  10   19.26   46.78
  10   4  -5    4.59   36.90
 -10  -4   5  -86.84   36.34
  10   4  -6  -21.97   35.57
 -10  -4   6   26.91   43.93
  10   4  -7  -61.16   39.75
 -10  -4  -7  -24.16   31.75
  10   4   7    0.61   29.10
 -10  -4   7   -8.05   43.06
 -10  -4  -8   67.32   41.69
  10   4   8  -31.65   33.64
 -10  -4   8   27.21   49.08
  10   4  -9    8.00   43.42
 -10  -4  -9    8.31   43.37
  10   4   9   18.19   39.34
 -10  -4   9  -35.47   48.06
  10   5  -3   35.67   36.64
 -10  -5   3   81.54   34.50
  10   5  -4   76.04   38.17
 -10  -5   4   -4.64   36.49
  10   5  -5   24.82   39.75
 -10  -5   5  -66.66   36.54
  10   5  -6   38.58   38.07
 -10  -5  -6   12.89   26.55
  10   5   6    6.88   24.16
 -10  -5   6  -10.91   43.98
  10   5  -7   58.76   40.16
 -10  -5  -7   62.79   33.89
  10   5   7   11.77   31.70
 -10  -5   7  -22.37   46.84
  10   5  -8   53.72   39.80
 -10  -5  -8  -41.48   37.66
  10   5   8    6.78   32.67
 -10  -5   8  116.45   46.99
 -10  -5  -9  711.45   96.73
  10   5   9  655.90   88.01
 -10  -5   9  652.84   98.56
  10   6  -2  -12.28   30.99
 -10  -6   2   51.83   36.29
  10   6  -3   -6.32   37.31
 -10  -6   3   28.59   37.56
  10   6  -4  -74.36   37.71
 -10  -6   4  -35.62   34.35
  10   6  -5   45.61   37.97
  10   6   5   13.61   22.22
 -10  -6   5  -28.03   38.22
  10   6  -6   39.04   38.73
  10   6   6   17.38   23.04
 -10  -6   6  101.21   46.84
  10   6  -7  -13.00   39.70
 -10  -6  -7   39.34   35.11
  10   6   7   18.86   30.63
 -10  -6   7   32.51   46.99
  10   6  -8   31.95   43.11
 -10  -6  -8   70.58   40.97
  10   6   8   87.05   36.64
 -10  -6   8  -22.42   42.76
  10   6  -9   61.10   41.28
 -10  -6  -9   25.07   42.10
  10   6   9   13.51   37.66
 -10  -6   9  -20.44   50.45
  10   7   0    7.95   28.03
  10   7  -1  -53.15   29.20
 -10  -7   1  -14.17   28.69
  10   7  -2   -1.73   30.73
 -10  -7   2   42.10   32.82
  10   7  -3    2.04   37.00
 -10  -7   3   44.44   35.47
  10   7  -4  -39.50   38.58
 -10  -7   4  -34.50   35.42
  10   7  -5  -29.05   45.97
 -10  -7  -5   -3.41   23.49
  10   7   5   15.75   21.46
 -10  -7   5    4.18   38.68
  10   7  -6   11.16   36.29
  10   7   6  -26.65   25.79
 -10  -7   6  -18.35   41.54
  10   7  -7    7.85   41.94
 -10  -7  -7  -22.42   30.43
  10   7   7  -16.41   29.56
 -10  -7   7  -65.28   46.58
  10   7  -8   60.34   43.37
 -10  -7  -8   24.56   39.04
  10   7   8   25.58   34.91
 -10  -7   8   57.28   48.98
  10   7  -9  -63.19   44.49
 -10  -7  -9  -32.00   35.52
  10   7   9   46.38   36.23
 -10  -7   9   40.46   46.99
  10   8   0   77.77   27.42
 -10  -8   0  -16.21   25.18
  10   8  -1   54.12   29.51
 -10  -8  -1   32.31   20.08
  10   8   1  -26.81   18.91
 -10  -8   1   16.87   28.18
  10   8  -2   11.57   32.06
 -10  -8   2  -37.36   32.87
  10   8  -3   34.25   34.09
 -10  -8   3  -21.20   34.15
  10   8  -4  102.44   39.09
  10   8   4  113.95   20.33
 -10  -8   4   33.74   38.17
  10   8  -5    9.78   42.76
 -10  -8  -5   31.75   22.53
  10   8   5   -2.96   21.61
 -10  -8   5   11.62   34.50
  10   8  -6  192.69   45.46
 -10  -8  -6  118.34   31.80
  10   8   6   52.80   26.76
 -10  -8   6  125.62   47.85
  10   8  -7   72.32   41.38
 -10  -8  -7   -8.66   30.48
  10   8   7  -42.30   32.36
  10   8  -8   51.93   40.52
 -10  -8  -8  122.57   40.52
  10   8   8   22.07   33.94
 -10  -8   8   71.50   52.34
  10   9   0  -17.28   24.97
 -10  -9   0   -1.38   23.70
  10   9  -1  -27.11   28.49
 -10  -9  -1   31.55   20.03
  10   9   1   -4.74   18.24
 -10  -9   1   30.99   30.63
  10   9  -2  -53.15   32.21
 -10  -9  -2    8.10   12.94
  10   9   2   -5.45   11.93
 -10  -9   2   13.76   30.17
  10   9  -3   31.24   31.04
 -10  -9   3    6.73   32.77
  10   9  -4  -52.19   36.23
 -10  -9  -4   -8.05   13.76
  10   9   4   16.72   14.12
 -10  -9   4  -34.15   40.87
  10   9  -5    1.48   32.46
 -10  -9  -5   32.00   22.47
  10   9   5   20.39   18.96
 -10  -9   5   42.04   40.72
  10   9  -6   29.66   42.91
 -10  -9  -6   46.63   30.37
  10   9   6   -2.80   25.69
 -10  -9   6   -7.70   40.31
  10   9  -7   51.98   43.52
 -10  -9  -7  -18.91   33.08
  10   9   7   42.15   29.56
 -10  -9   7  122.72   53.61
  10   9  -8  -38.94   40.72
 -10  -9  -8   37.66   35.16
  10   9   8   43.37   32.82
 -10  -9   8   30.32   49.13
  10  10   0  845.99  102.84
 -10 -10   0  751.71   92.35
  10  10  -1   12.33   28.39
 -10 -10  -1   10.04   21.40
  10  10   1  -13.96   18.75
 -10 -10   1    5.35   30.07
  10  10  -2   41.23   30.58
 -10 -10  -2  -41.23   16.16
 -10 -10   2   17.33   33.38
  10  10  -3  -29.35   31.19
 -10 -10   3   -6.47   37.51
  10  10  -4  -16.36   28.90
 -10 -10   4   33.84   38.17
  10  10  -5   -3.82   34.86
 -10 -10  -5  -34.55   22.07
  10  10   5    3.41   18.09
 -10 -10   5  -58.51   39.90
  10  10  -6   39.75   40.92
 -10 -10  -6   61.41   30.22
  10  10   6   87.30   26.35
 -10 -10   6   19.37   46.94
  10  10  -7   46.73   42.91
  10  10   7   -0.71   27.93
 -10 -10   7   23.14   45.15
  10  11   0   10.70   23.09
 -10 -11   0   -8.26   25.48
  10  11  -1  -23.19   30.53
 -10 -11  -1  -24.72   22.32
  10  11   1   23.65   19.21
 -10 -11   1   46.73   32.46
  10  11  -2   13.51   27.57
 -10 -11   2  -10.04   33.23
  10  11  -3   -8.05   32.67
 -10 -11   3   -4.89   36.69
  10  11  -4   30.78   34.55
 -10 -11   4   23.04   36.64
  10  11  -5  -38.17   37.46
 -10 -11   5   28.18   44.03
  10  11  -6  -43.17   39.55
 -10 -11  -6  -19.37   27.72
 -10 -11   6  -19.21   47.14
  10  11  -7  -58.51   46.12
  10  11   7   17.84   29.66
 -10 -11   7  -23.75   45.00
  10  12   0    2.80   25.48
 -10 -12   0   -3.11   27.88
  10  12  -1   -1.94   27.21
 -10 -12   1   71.45   33.94
  10  12  -2   51.68   30.93
 -10 -12   2   45.00   35.47
  10  12  -3   11.06   32.41
 -10 -12   3   54.89   37.92
  10  12  -4  -32.62   34.20
 -10 -12   4   12.33   41.94
  10  12  -5   14.42   37.51
 -10 -12   5  -27.83   49.49
  10  12  -6  -22.47   38.83
 -10 -12   6   60.80   43.42
 -10 -13   0   69.62   28.49
  10  13  -1   22.88   27.11
 -10 -13   1  -13.05   31.55
  10  13  -2   97.34   34.50
 -10 -13   2   71.35   35.52
  10  13  -3   46.48   33.64
 -10 -13   3   36.64   39.96
  10  13  -4   -6.17   35.42
 -10 -13   4   85.62   41.03
  10  13  -5   86.74   40.97
 -10 -13   5   87.45   48.98
 -10 -14   1  -17.53   33.08
  10  14  -2   44.80   31.60
 -10 -14   2   29.00   36.49
  10  14  -3  -19.62   35.73
 -10 -14   3  -31.14   33.69
  10  14  -4   -3.11   33.74
 -10 -14   4    6.12   39.09
  10  15  -2  -22.78   30.32
 -10 -15   2   -1.38   35.88
  11   2  -8   59.88   41.69
  11   2  -9    8.97   40.01
  11   2   9  -15.85   38.78
 -11  -2   9  -17.94   47.45
  11   3  -7   18.70   38.88
 -11  -3   7   21.61   39.14
  11   3  -9   35.16   38.58
 -11  -3  -9   76.50   43.32
  11   3   9   22.93   39.39
 -11  -3   9   33.94   48.92
  11   4  -5  -70.48   37.51
  11   4  -6   -5.10   35.11
 -11  -4   6  -46.22   42.20
  11   4  -7  -26.91   38.78
 -11  -4   7  -10.60   43.98
  11   4  -8  -21.66   40.77
 -11  -4  -8  -56.16   39.29
  11   4   8    6.47   32.62
 -11  -4   8  -91.12   45.87
 -11  -4  -9  -65.44   41.23
  11   4   9   34.91   37.20
 -11  -4   9   47.85   48.92
  11   5  -4  -12.28   35.73
 -11  -5   4   25.23   32.36
  11   5  -5  -43.88   36.74
 -11  -5   5  -18.55   36.49
  11   5  -6  -37.71   34.81
 -11  -5   6   22.98   40.67
  11   5  -7  170.42   47.40
 -11  -5  -7   78.69   33.89
  11   5   7   89.54   33.99
 -11  -5   7  133.12   49.28
  11   5  -8  146.72   47.55
 -11  -5  -8   75.94   40.01
  11   5   8  125.52   38.22
 -11  -5   8   -3.06   45.00
  11   5  -9  -13.25   42.71
 -11  -5  -9   15.54   42.50
  11   5   9   39.45   37.00
 -11  -5   9    0.20   49.84
  11   6  -3  -45.66   35.98
 -11  -6   3   11.77   33.38
  11   6  -4   60.80   38.94
 -11  -6   4  -35.78   36.44
  11   6  -5   47.24   41.79
 -11  -6   5   57.79   38.68
  11   6  -6    7.08   35.27
  11   6   6    1.12   24.97
 -11  -6   6  -15.39   38.88
  11   6  -7   22.88   39.60
 -11  -6  -7   39.09   32.77
  11   6   7  -36.18   31.95
 -11  -6   7  -26.04   46.48
  11   6  -8   20.49   40.67
 -11  -6  -8   19.82   38.12
  11   6   8  -83.89   33.43
 -11  -6   8   71.86   49.79
 -11  -6   9   43.68   55.30
  11   7  -1    5.76   27.01
  11   7  -2  -31.95   31.34
 -11  -7   2  -41.38   31.65
  11   7  -3  -14.98   32.31
 -11  -7   3   -7.03   35.27
  11   7  -4   21.86   35.93
 -11  -7   4   22.73   37.00
  11   7  -5    2.34   33.53
 -11  -7   5   48.16   37.61
  11   7  -6   14.17   36.44
  11   7   6   45.10   25.48
 -11  -7   6  -34.04   44.44
  11   7  -7    2.04   39.34
 -11  -7  -7    9.58   32.31
  11   7   7  -27.67   31.24
 -11  -7   7    4.59   46.63
  11   7  -8   25.12   40.21
 -11  -7  -8   79.10   37.92
  11   7   8  -14.88   32.06
 -11  -7   8   65.03   50.10
  11   8   0  -17.53   24.97
 -11  -8   0   16.72   23.34
  11   8  -1  -43.62   27.52
 -11  -8   1   -1.89   30.53
  11   8  -2   80.37   33.64
 -11  -8   2   58.51   31.95
  11   8  -3    6.32   31.14
 -11  -8   3  -32.62   34.25
  11   8  -4  -40.62   31.44
 -11  -8   4   73.90   42.30
  11   8  -5   46.27   33.58
 -11  -8  -5   14.63   21.20
  11   8   5   65.33   21.51
 -11  -8   5   15.85   40.36
  11   8  -6   62.79   42.91
 -11  -8  -6   99.43   33.08
  11   8   6  135.92   30.73
 -11  -8   6   74.71   42.61
  11   8  -7   23.60   42.04
 -11  -8  -7   51.73   32.36
  11   8   7    7.49   29.51
 -11  -8   7    7.95   50.71
  11   8  -8   36.13   44.19
 -11  -8  -8  105.65   39.09
  11   8   8   19.62   32.87
 -11  -8   8   26.55   49.94
  11   9   0   -8.51   24.77
 -11  -9   0   27.93   24.97
  11   9  -1   29.35   29.35
 -11  -9  -1  -15.03   20.69
  11   9   1   -8.26   19.26
 -11  -9   1  -14.73   29.81
  11   9  -2  -49.18   29.76
  11   9   2   11.11   13.35
 -11  -9   2   28.18   33.99
  11   9  -3   27.88   31.50
 -11  -9   3  -37.71   37.10
  11   9  -4    9.02   28.90
 -11  -9  -4    4.69   13.25
  11   9   4   29.56   13.51
 -11  -9   4   84.96   40.26
  11   9  -5  -41.69   35.37
 -11  -9  -5    6.22   21.97
  11   9   5   20.59   18.65
 -11  -9   5   38.73   39.85
  11   9  -6   77.72   42.81
 -11  -9  -6   29.51   28.54
  11   9   6    2.40   24.05
 -11  -9   6   60.85   46.48
  11   9  -7   29.46   43.47
  11   9   7    1.17   29.81
 -11  -9   7   89.54   46.17
  11  10   0   -8.05   23.70
 -11 -10   0  -37.76   25.18
  11  10  -1   21.25   30.07
 -11 -10  -1   22.68   20.95
  11  10   1    3.82   18.91
 -11 -10   1   29.35   32.36
  11  10  -2   -9.58   26.81
 -11 -10  -2  -17.53   14.73
 -11 -10   2   48.36   35.57
  11  10  -3  -23.85   31.44
 -11 -10   3   14.68   37.10
  11  10  -4    7.29   34.15
 -11 -10  -4   30.83   13.96
  11  10   4   14.73   11.67
 -11 -10   4   44.69   36.59
  11  10  -5   -5.55   36.69
 -11 -10  -5   52.08   21.30
  11  10   5    0.92   18.19
 -11 -10   5  -14.27   43.57
  11  10  -6  163.18   46.38
 -11 -10  -6  160.59   34.04
  11  10   6  121.04   29.41
 -11 -10   6   70.18   47.60
  11  10  -7    0.41   44.49
  11  10   7   17.79   26.40
 -11 -10   7   -9.12   44.34
  11  11   0  -17.48   24.46
 -11 -11   0   29.66   27.27
  11  11  -1  -28.85   26.20
 -11 -11  -1   20.23   22.93
  11  11   1   17.68   21.35
 -11 -11   1  -62.43   32.57
  11  11  -2  -10.40   29.51
 -11 -11  -2  -41.74   18.45
  11  11   2   -4.33   12.59
 -11 -11   2  -25.02   35.22
  11  11  -3   -0.31   33.53
 -11 -11   3   47.60   36.74
  11  11  -4   31.85   35.67
 -11 -11   4   54.68   42.86
  11  11  -5   76.24   40.31
 -11 -11  -5  -34.45   19.47
 -11 -11   5  -58.96   48.62
  11  11  -6   31.09   39.04
 -11 -11  -6   -7.80   24.11
  11  11   6   -1.63   22.22
 -11 -11   6  -28.74   41.94
  11  12   0  230.15   38.88
 -11 -12   0  372.13   53.26
  11  12  -1   59.68   29.10
 -11 -12  -1   21.10   24.87
  11  12   1   16.61   22.17
 -11 -12   1   35.88   33.18
  11  12  -2   12.54   32.06
 -11 -12   2    5.66   35.06
  11  12  -3  -19.01   31.90
 -11 -12   3   11.52   39.24
  11  12  -4   64.06   37.46
 -11 -12   4   41.38   44.54
  11  12  -5   37.20   37.10
 -11 -12   5   15.75   43.57
  11  13   0   29.61   26.45
 -11 -13   0   42.66   30.07
  11  13  -1  243.60   42.25
 -11 -13  -1  235.25   37.71
 -11 -13   1  247.27   45.10
  11  13  -2   17.74   32.92
 -11 -13   2   21.40   37.51
  11  13  -3  -12.89   31.50
 -11 -13   3   53.21   38.12
  11  13  -4   14.37   37.05
 -11 -13   4   27.93   41.03
 -11 -14   0   -2.34   29.61
  11  14  -1  -16.82   26.65
 -11 -14   1   26.76   33.23
  11  14  -2   37.76   31.29
 -11 -14   2   36.18   34.86
  11  14  -3  -44.75   34.50
  12   2  -9   -1.12   39.14
  12   3  -8   21.56   41.54
 -12  -3   8   79.15   48.26
  12   3   9  -29.10   37.87
 -12  -3   9  -17.94   43.93
  12   4  -6    4.28   33.18
  12   4  -7   70.18   41.48
 -12  -4   7   14.42   44.80
  12   4  -8   51.32   40.52
 -12  -4   8   46.43   44.39
  12   5  -5  -30.93   34.96
 -12  -5   5  -27.88   41.23
  12   5  -6   73.13   36.64
 -12  -5   6   77.41   39.80
  12   5  -7  316.64   57.79
 -12  -5   7  358.42   64.47
  12   5  -8   46.53   38.48
 -12  -5  -8   90.61   38.12
  12   5   8   49.54   32.16
 -12  -5   8  -11.47   47.29
  12   6  -4  -11.42   33.38
 -12  -6   4   22.12   35.73
  12   6  -5  -36.90   31.65
 -12  -6   5   24.82   38.68
  12   6  -6   18.55   34.96
 -12  -6   6   36.18   44.90
  12   6  -7   45.71   38.22
  12   6   7   25.23   31.65
 -12  -6   7   14.58   47.96
  12   6  -8   38.12   40.11
 -12  -6  -8  -42.96   35.11
  12   6   8   37.61   32.51
 -12  -6   8   43.17   47.29
  12   7  -2  -26.70   32.31
  12   7  -3   54.53   32.92
 -12  -7   3  -52.19   35.06
  12   7  -4   58.56   31.70
 -12  -7   4   15.34   39.34
  12   7  -5   18.45   32.21
 -12  -7   5  -20.03   40.52
  12   7  -6   76.29   44.59
  12   7   6   38.17   24.21
 -12  -7   6   -8.05   45.77
  12   7  -7  -20.59   42.66
 -12  -7  -7   19.77   29.92
  12   7   7  -21.00   29.92
 -12  -7   7   66.86   50.20
  12   7  -8   84.65   46.17
 -12  -7  -8   41.33   41.38
  12   7   8   16.21   33.58
 -12  -7   8   49.03   53.00
  12   8  -1  163.24   36.29
 -12  -8   1  165.94   38.27
  12   8  -2  218.89   40.67
 -12  -8   2  149.68   41.43
  12   8  -3  113.85   35.62
 -12  -8   3  142.39   38.88
  12   8  -4   95.00   33.74
 -12  -8   4  199.01   46.02
  12   8  -5  206.50   44.69
 -12  -8   5   62.07   42.71
  12   8  -6  -14.63   39.34
 -12  -8  -6   -5.96   30.22
  12   8   6   64.16   26.25
 -12  -8   6  -14.07   45.71
  12   8  -7   68.29   45.97
 -12  -8  -7   16.41   28.28
  12   8   7   75.12   31.50
 -12  -8   7   21.56   43.88
  12   9   0    8.00   22.88
 -12  -9   0  -19.62   24.11
  12   9  -1   -5.20   30.32
  12   9   1  -21.86   17.94
 -12  -9   1   -5.86   31.24
  12   9  -2   37.51   27.88
 -12  -9   2    1.83   32.16
  12   9  -3  -44.44   32.62
 -12  -9   3   26.20   37.51
  12   9  -4   -9.84   33.74
 -12  -9   4    0.41   36.69
  12   9  -5   13.96   37.10
 -12  -9  -5   25.12   19.67
  12   9   5   28.44   19.93
 -12  -9   5  -17.53   44.69
  12   9  -6   78.43   40.87
 -12  -9  -6   36.03   28.28
  12   9   6   58.45   25.99
 -12  -9   6  -18.19   47.29
  12   9  -7   54.33   47.60
  12   9   7    4.54   26.55
 -12  -9   7   75.68   46.48
  12  10   0  -30.43   23.34
 -12 -10   0    2.34   25.89
  12  10  -1   95.10   28.54
 -12 -10  -1   -1.12   22.32
  12  10   1    5.30   21.00
 -12 -10   1    4.54   32.26
  12  10  -2  163.34   37.41
 -12 -10   2  106.56   38.02
  12  10  -3    9.63   33.84
 -12 -10   3   35.93   36.18
  12  10  -4   90.10   38.88
  12  10   4   73.54   14.27
 -12 -10   4   42.61   44.90
  12  10  -5  228.57   48.92
 -12 -10  -5  196.31   30.22
  12  10   5  172.00   27.42
 -12 -10   5  135.61   53.15
  12  10  -6   12.28   38.58
 -12 -10  -6   33.33   24.31
  12  10   6   44.34   23.60
 -12 -10   6   12.44   42.35
  12  11   0   13.51   26.70
 -12 -11   0  -22.17   27.67
  12  11  -1    0.61   28.54
 -12 -11  -1   10.14   23.19
  12  11   1   26.09   20.84
 -12 -11   1  -16.56   32.67
  12  11  -2   27.52   32.06
 -12 -11  -2   22.42   18.91
  12  11   2   39.09   16.87
 -12 -11   2  -22.93   36.29
  12  11  -3   -2.85   30.68
 -12 -11   3   25.99   39.80
  12  11  -4   -2.40   36.23
 -12 -11   4  -59.63   44.90
  12  11  -5   37.46   37.46
 -12 -11  -5    6.73   17.84
  12  11   5   25.12   16.61
 -12 -11   5  -72.16   42.91
  12  12   0   57.89   28.03
 -12 -12   0  122.26   33.23
  12  12  -1  180.72   37.25
 -12 -12  -1  170.27   31.24
  12  12   1  171.64   29.81
 -12 -12   1  180.92   39.80
  12  12  -2   48.11   32.72
 -12 -12  -2   16.92   19.98
  12  12   2   -8.00   17.33
 -12 -12   2  -38.58   36.90
  12  12  -3  181.84   39.96
 -12 -12   3  121.70   41.43
  12  12  -4  -23.04   36.34
 -12 -12   4   -1.02   39.90
  12  13   0 1521.76  180.61
 -12 -13   0 1427.48  170.27
  12  13  -1   35.11   27.32
 -12 -13  -1   31.70   25.74
  12  13   1   29.66   23.29
 -12 -13   1   22.12   31.24
  12  13  -2   46.78   32.67
 -12 -13  -2   22.37   21.86
 -12 -13   2   91.38   35.52
  12  13  -3   97.44   33.18
 -12 -13   3   56.16   38.68
  13   4  -7  118.69   41.99
  13   4  -8   56.62   39.29
 -13  -4   8  -22.58   44.80
  13   5  -6 1054.43  131.94
  13   5  -7  -58.91   38.78
 -13  -5   7  -75.88   49.74
  13   5  -8   22.27   42.45
 -13  -5   8   38.58   45.71
  13   6  -5   60.90   34.76
 -13  -6   5   27.37   41.43
  13   6  -6   24.46   41.54
 -13  -6   6   47.45   47.19
  13   7  -3  -12.08   29.66
  13   7  -4  118.64   36.08
 -13  -7   4  235.40   47.40
  13   7  -5   58.61   36.03
 -13  -7   5   27.88   40.52
  13   7  -6   36.39   37.81
 -13  -7   6  -41.28   46.22
  13   7  -7   -5.50   42.86
  13   7   7  -30.17   29.61
 -13  -7   7   53.87   47.40
  13   8  -2   59.12   29.35
 -13  -8   2   79.25   33.38
  13   8  -3  294.36   49.84
 -13  -8   3  251.71   49.59
  13   8  -4  102.59   36.80
 -13  -8   4  -10.86   36.39
  13   8  -5   67.83   37.41
 -13  -8   5   30.48   48.42
  13   8  -6   57.28   39.24
 -13  -8   6  119.36   47.24
  13   9   0   51.01   24.31
  13   9  -1  -26.70   26.20
 -13  -9   1   36.59   31.80
  13   9  -2   11.93   31.29
 -13  -9   2   13.76   34.25
  13   9  -3    1.53   34.55
 -13  -9   3   23.24   36.49
  13   9  -4   13.81   36.69
 -13  -9   4   61.00   43.83
  13   9  -5  173.12   44.75
 -13  -9   5   31.04   49.13
  13   9  -6   12.74   39.80
 -13  -9  -6    7.90   23.75
  13   9   6   39.09   23.39
 -13  -9   6   47.50   42.76
  13  10   0    7.70   27.16
 -13 -10   0   95.40   30.48
  13  10  -1    6.98   28.95
 -13 -10  -1  -23.04   22.58
  13  10   1   -3.01   20.74
 -13 -10   1    7.29   32.26
  13  10  -2  -37.46   31.70
 -13 -10   2   44.29   37.00
  13  10  -3  588.12   78.89
 -13 -10   3  697.18   93.77
  13  10  -4   40.97   36.69
 -13 -10   4   54.38   43.47
  13  10  -5  145.04   43.17
  13  10   5  106.72   21.46
 -13 -10   5   37.92   44.34
  13  11   0   21.51   27.52
 -13 -11   0   49.08   29.25
  13  11  -1    9.73   28.59
 -13 -11  -1   31.70   23.24
  13  11   1   36.18   22.27
 -13 -11   1   39.65   31.39
  13  11  -2   78.69   34.76
 -13 -11  -2   40.31   19.67
  13  11   2   80.01   19.82
 -13 -11   2   82.05   38.27
  13  11  -3   30.93   30.48
  13  11   3    2.40   11.16
 -13 -11   3   57.54   39.04
  13  11  -4   27.37   36.54
 -13 -11   4  -51.83   40.41
  13  12   0   40.46   27.21
 -13 -12   0   62.43   29.97
  13  12  -1  122.77   32.31
 -13 -12  -1  152.69   31.34
  13  12   1  139.89   30.22
 -13 -12   1  102.39   34.30
  13  12  -2   16.56   31.29
 -13 -12  -2   -2.29   18.91
  13  12   2   45.71   18.75
 -13 -12   2  -21.76   34.09
  13  12  -3   33.38   30.53
 -13 -12  -3   11.26   12.79
 -13 -12   3   31.65   38.83
  13  13   0    7.95   28.34
 -13 -13   0  -13.56   32.06
  14   5  -7   26.30   41.38
  14   6  -5   20.33   31.75
  14   6  -6   55.55   38.38
 -14  -6   6   22.63   43.83
  14   7  -4   39.85   34.30
  14   7  -5   78.94   34.45
 -14  -7   5   70.58   48.57
  14   7  -6  -15.49   35.42
 -14  -7   6  106.67   46.22
  14   8  -3  277.29   47.24
 -14  -8   3  237.18   48.72
  14   8  -4  -43.11   33.58
 -14  -8   4    7.13   40.72
  14   8  -5  174.55   43.62
 -14  -8   5  236.93   55.70
  14   9  -1    5.76   25.84
  14   9  -2   17.79   30.99
 -14  -9   2  -27.21   33.53
  14   9  -3   56.26   34.60
 -14  -9   3   15.95   39.90
  14   9  -4  121.04   39.09
 -14  -9   4   47.55   40.41
  14   9  -5  -23.24   37.20
 -14  -9   5  -75.58   44.44
  14  10   0   54.99   27.01
 -14 -10   0   18.40   28.39
  14  10  -1    6.68   28.13
 -14 -10   1   -2.90   31.50
  14  10  -2   -1.07   32.21
 -14 -10   2   77.26   39.24
  14  10  -3   62.79   31.39
 -14 -10   3   81.64   39.14
  14  10  -4   -0.36   35.06
 -14 -10   4   50.61   41.28
  14  11   0  -16.66   26.40
 -14 -11   0   45.92   30.12
  14  11  -1    3.57   27.72
 -14 -11  -1   -4.18   24.62
  14  11   1   17.68   24.41
 -14 -11   1   39.04   31.60
  14  11  -2    8.41   31.24
  14  11   2   19.06   17.63
 -14 -11   2  -17.94   34.04
  14  11  -3   45.00   33.08
 -14 -11   3  -30.68   39.90
  15   7  -5  -12.64   36.49
  15   8  -4   10.45   34.60
 -15  -8   4    2.55   36.64
  15   9  -2    1.68   30.78
  15   9  -3   29.61   32.97
 -15  -9   3  -21.97   34.40
  15  10  -1   14.12   28.95
 -15 -10   1  -54.63   30.17
  15  10  -2   16.10   29.35
 -15 -10   2   23.55   33.02
   0   0   0    0.00    0.00

_computing_structure_solution     'SHELXT 2014/5 (Sheldrick, 2014)'
;
_shelx_hkl_checksum              97418
loop_
_space_group_symop_operation_xyz
'x, y, z'
'-x+1/2, -y, z+1/2'
'-x, y+1/2, -z'
'x+1/2, -y+1/2, -z+1/2'
'-x, -y, -z'
'x-1/2, y, -z-1/2'
'x, -y-1/2, z'
'-x-1/2, y-1/2, z-1/2'
loop_
_atom_site_label
_atom_site_type_symbol
_atom_site_fract_x
_atom_site_fract_y
_atom_site_fract_z
_atom_site_U_iso_or_equiv
_atom_site_adp_type
_atom_site_occupancy
_atom_site_site_symmetry_order
_atom_site_calc_flag
_atom_site_refinement_flags_posn
_atom_site_refinement_flags_adp
_atom_site_refinement_flags_occupancy
_atom_site_disorder_assembly
_atom_site_disorder_group
Si1 Si 0.4244(8) 1.0535(10) 0.6655(10) 0.005(5) Uiso 1 1 d D . . . .
Si2 Si 0.3080(9) 1.0311(9) 0.8125(10) 0.010(6) Uiso 1 1 d D . . . .
Si3 Si 0.2799(8) 1.0611(9) 1.0327(10) 0.001(6) Uiso 1 1 d D . . . .
Si4 Si 0.1231(8) 1.0661(8) 1.0265(10) 0.001(6) Uiso 1 1 d D . . . .
Si5 Si 0.0737(9) 1.0290(9) 0.8151(11) 0.008(6) Uiso 1 1 d D . . . .
Si6 Si 0.1870(8) 1.0589(9) 0.6721(9) 0.001(5) Uiso 1 1 d D . . . .
Si7 Si 0.4238(9) 0.8281(6) 0.6757(10) 0.001(6) Uiso 1 1 d D . . . .
Si8 Si 0.3094(9) 0.8712(8) 0.8170(10) 0.009(6) Uiso 1 1 d D . . . .
Si9 Si 0.2724(9) 0.8276(7) 1.0314(11) 0.006(6) Uiso 1 1 d D . . . .
Si10 Si 0.1176(9) 0.8274(7) 1.0314(11) 0.015(7) Uiso 1 1 d D . . . .
Si11 Si 0.0709(9) 0.8700(9) 0.8156(10) 0.001(6) Uiso 1 1 d D . . . .
Si12 Si 0.1883(10) 0.8269(7) 0.6835(10) 0.015(6) Uiso 1 1 d D . . . .
O1 O 0.3727(15) 1.056(3) 0.755(2) 0.068(15) Uiso 1 1 d D . . . .
O2 O 0.311(2) 1.061(2) 0.9229(12) 0.048(11) Uiso 1 1 d D . . . .
O3 O 0.2014(8) 1.058(3) 1.031(2) 0.055(12) Uiso 1 1 d D . . . .
O4 O 0.099(2) 1.0663(18) 0.9133(14) 0.041(12) Uiso 1 1 d D . . . .
O5 O 0.1168(11) 1.058(2) 0.7255(19) 0.026(10) Uiso 1 1 d D . . . .
O6 O 0.2424(13) 1.052(3) 0.7555(19) 0.038(11) Uiso 1 1 d D . . . .
O7 O 0.3756(15) 0.845(2) 0.767(2) 0.040(13) Uiso 1 1 d D . . . .
O8 O 0.3088(19) 0.845(2) 0.9292(14) 0.041(12) Uiso 1 1 d D . . . .
O9 O 0.1950(9) 0.842(2) 1.023(2) 0.045(11) Uiso 1 1 d D . . . .
O10 O 0.091(2) 0.839(2) 0.9207(17) 0.048(13) Uiso 1 1 d D . . . .
O11 O 0.1176(15) 0.845(3) 0.727(3) 0.065(16) Uiso 1 1 d D . . . .
O12 O 0.2460(17) 0.844(3) 0.760(3) 0.053(14) Uiso 1 1 d D . . . .
O13 O 0.311(3) 0.9513(9) 0.821(3) 0.062(13) Uiso 1 1 d D . . . .
O14 O 0.081(2) 0.9494(9) 0.822(3) 0.054(12) Uiso 1 1 d D . . . .
O15 O 0.420(2) 1.1214(15) 0.603(3) 0.062(15) Uiso 1 1 d D . . . .
O16 O 0.404(2) 0.9942(15) 0.592(2) 0.036(11) Uiso 1 1 d D . . . .
O17 O 0.403(2) 0.8664(15) 0.5763(18) 0.044(13) Uiso 1 1 d D . . . .
O18 O 0.195(2) 1.1302(12) 0.6198(19) 0.029(10) Uiso 1 1 d D . . . .
O19 O 0.189(2) 1.0013(15) 0.589(2) 0.059(13) Uiso 1 1 d D . . . .
O20 O 0.200(2) 0.8702(13) 0.5849(16) 0.023(10) Uiso 1 1 d D . . . .
O21 O -0.0018(9) 1.046(2) 0.7953(18) 0.017(9) Uiso 1 1 d D . . . .
O22 O -0.0032(12) 0.848(3) 0.792(3) 0.056(14) Uiso 1 1 d D . . . .
O23 O 0.425(3) 0.750000 0.651(3) 0.021(14) Uiso 1 2 d DS . P . .
O24 O 0.193(4) 0.750000 0.652(3) 0.045(17) Uiso 1 2 d DS . P . .
O25 O 0.282(3) 0.750000 1.056(3) 0.028(16) Uiso 1 2 d DS . P . .
O26 O 0.109(3) 0.750000 1.058(3) 0.028(16) Uiso 1 2 d DS . P . .
loop_
_atom_type_symbol
_atom_type_description
_atom_type_scat_dispersion_real
_atom_type_scat_dispersion_imag
_atom_type_scat_source
O O 0.0000 0.0000 'International Tables Vol C Tables 4.2.6.8 and 6.1.1.4'
Si Si 0.0000 0.0000 'International Tables Vol C Tables 4.2.6.8 and 6.1.1.4'
loop_
_geom_angle_atom_site_label_1
_geom_angle_atom_site_label_2
_geom_angle_atom_site_label_3
_geom_angle
_geom_angle_site_symmetry_1
_geom_angle_site_symmetry_3
O16 Si1 O15 107(2) . .
O16 Si1 O21 112(2) . 6_657
O15 Si1 O21 108(2) . 6_657
O16 Si1 O1 108(3) . .
O15 Si1 O1 109(3) . .
O21 Si1 O1 112.1(18) 6_657 .
O2 Si2 O6 112(2) . .
O2 Si2 O1 107.4(17) . .
O6 Si2 O1 112(2) . .
O2 Si2 O13 108(2) . .
O6 Si2 O13 109(3) . .
O1 Si2 O13 108(3) . .
O19 Si3 O20 111(2) 2_575 2_575
O19 Si3 O2 106(2) 2_575 .
O20 Si3 O2 107.8(17) 2_575 .
O19 Si3 O3 112(3) 2_575 .
O20 Si3 O3 107(3) 2_575 .
O2 Si3 O3 112(2) . .
O17 Si4 O4 107.0(19) 2_575 .
O17 Si4 O16 107(2) 2_575 2_575
O4 Si4 O16 115(2) . 2_575
O17 Si4 O3 113(3) 2_575 .
O4 Si4 O3 110(2) . .
O16 Si4 O3 104(2) 2_575 .
O4 Si5 O5 106(2) . .
O4 Si5 O21 110(2) . .
O5 Si5 O21 109.0(15) . .
O4 Si5 O14 113(2) . .
O5 Si5 O14 111(2) . .
O21 Si5 O14 108(2) . .
O6 Si6 O19 114(3) . .
O6 Si6 O18 108(3) . .
O19 Si6 O18 110(2) . .
O6 Si6 O5 108.7(19) . .
O19 Si6 O5 109(3) . .
O18 Si6 O5 107.0(19) . .
O17 Si7 O23 107.7(18) . .
O17 Si7 O7 112(2) . .
O23 Si7 O7 112(3) . .
O17 Si7 O22 111(3) . 6_657
O23 Si7 O22 107(3) . 6_657
O7 Si7 O22 108(2) . 6_657
O8 Si8 O12 109(2) . .
O8 Si8 O7 107.1(18) . .
O12 Si8 O7 112(3) . .
O8 Si8 O13 108(2) . .
O12 Si8 O13 112(3) . .
O7 Si8 O13 109(3) . .
O8 Si9 O18 109(2) . 2_575
O8 Si9 O25 109(2) . .
O18 Si9 O25 107.7(17) 2_575 .
O8 Si9 O9 111(2) . .
O18 Si9 O9 111(2) 2_575 .
O25 Si9 O9 108(2) . .
O10 Si10 O26 108(3) . .
O10 Si10 O15 108(3) . 2_575
O26 Si10 O15 116(2) . 2_575
O10 Si10 O9 104(2) . .
O26 Si10 O9 107(3) . .
O15 Si10 O9 113(2) 2_575 .
O10 Si11 O11 112(3) . .
O10 Si11 O22 108(2) . .
O11 Si11 O22 109(2) . .
O10 Si11 O14 108(2) . .
O11 Si11 O14 106(3) . .
O22 Si11 O14 114(3) . .
O20 Si12 O12 108(2) . .
O20 Si12 O11 108(3) . .
O12 Si12 O11 112(3) . .
O20 Si12 O24 107.1(17) . .
O12 Si12 O24 110(3) . .
O11 Si12 O24 112(3) . .
Si1 O1 Si2 153(3) . .
Si2 O2 Si3 147(2) . .
Si3 O3 Si4 172(4) . .
Si5 O4 Si4 152(3) . .
Si6 O5 Si5 146(2) . .
Si6 O6 Si2 162(3) . .
Si8 O7 Si7 155(3) . .
Si8 O8 Si9 152(3) . .
Si9 O9 Si10 158(3) . .
Si11 O10 Si10 164(3) . .
Si12 O11 Si11 152(3) . .
Si8 O12 Si12 167(3) . .
Si2 O13 Si8 173(3) . .
Si5 O14 Si11 166(3) . .
Si1 O15 Si10 152(3) . 2_574
Si1 O16 Si4 174(3) . 2_574
Si4 O17 Si7 148(2) 2_574 .
Si6 O18 Si9 147(2) . 2_574
Si3 O19 Si6 154(3) 2_574 .
Si3 O20 Si12 150(2) 2_574 .
Si5 O21 Si1 150.4(19) . 6_557
Si7 O22 Si11 153(2) 6_557 .
Si7 O23 Si7 156(3) 7_575 .
Si12 O24 Si12 148(3) . 7_575
Si9 O25 Si9 152(3) . 7_575
Si10 O26 Si10 152(3) . 7_575
loop_
_geom_bond_atom_site_label_1
_geom_bond_atom_site_label_2
_geom_bond_distance
_geom_bond_site_symmetry_2
Si1 O16 1.601(10) .
Si1 O15 1.608(10) .
Si1 O21 1.609(10) 6_657
Si1 O1 1.610(10) .
Si2 O2 1.604(10) .
Si2 O6 1.606(10) .
Si2 O1 1.611(10) .
Si2 O13 1.612(10) .
Si3 O19 1.606(10) 2_575
Si3 O20 1.606(10) 2_575
Si3 O2 1.608(10) .
Si3 O3 1.611(10) .
Si4 O17 1.604(10) 2_575
Si4 O4 1.605(10) .
Si4 O16 1.607(10) 2_575
Si4 O3 1.614(10) .
Si5 O4 1.605(10) .
Si5 O5 1.609(10) .
Si5 O21 1.609(10) .
Si5 O14 1.613(10) .
Si6 O6 1.603(10) .
Si6 O19 1.608(10) .
Si6 O18 1.609(10) .
Si6 O5 1.609(10) .
Si7 O17 1.605(10) .
Si7 O23 1.608(10) .
Si7 O7 1.609(10) .
Si7 O22 1.611(10) 6_657
Si8 O8 1.602(10) .
Si8 O12 1.606(10) .
Si8 O7 1.608(10) .
Si8 O13 1.615(10) .
Si9 O8 1.604(10) .
Si9 O18 1.610(10) 2_575
Si9 O25 1.611(10) .
Si9 O9 1.617(10) .
Si10 O10 1.606(10) .
Si10 O26 1.607(10) .
Si10 O15 1.610(10) 2_575
Si10 O9 1.618(10) .
Si11 O10 1.602(10) .
Si11 O11 1.609(10) .
Si11 O22 1.611(10) .
Si11 O14 1.615(10) .
Si12 O20 1.607(10) .
Si12 O12 1.607(10) .
Si12 O11 1.608(10) .
Si12 O24 1.609(10) .
