#------------------------------------------------------------------------------
#$Date: 2018-01-11 12:53:52 +0200 (Thu, 11 Jan 2018) $
#$Revision: 205069 $
#$URL: file:///home/coder/svn-repositories/cod/cif/1/54/86/1548626.cif $
#------------------------------------------------------------------------------
#
# This file is available in the Crystallography Open Database (COD),
# http://www.crystallography.net/
#
# All data on this site have been placed in the public domain by the
# contributors.
#
data_1548626
loop_
_publ_author_name
'Gruene, T.'
'Teng, Li.'
'Van Genderen, E.'
'Pinar, A. B.'
'Van Bokhoven, J. A.'
_publ_section_title
;
 Characterization at the level of individual crystals: single crystal MFI
 type zeolite grains
;
_journal_name_full               'Chemistry - A European Journal'
_journal_paper_doi               10.1002/chem.201704213
_journal_year                    2017
_chemical_formula_sum            'O24 Si12'
_chemical_formula_weight         721.20
_space_group_crystal_system      orthorhombic
_space_group_IT_number           62
_space_group_name_Hall           '-P 2ac 2n'
_space_group_name_H-M_alt        'P n m a'
_symmetry_space_group_name_Hall  '-P 2ac 2n'
_symmetry_space_group_name_H-M   'P n m a'
_atom_sites_solution_hydrogens   .
_audit_creation_method           SHELXL-2016/6
_cell_angle_alpha                90
_cell_angle_beta                 90
_cell_angle_gamma                90
_cell_formula_units_Z            8
_cell_length_a                   20.197(4)
_cell_length_b                   20.072(4)
_cell_length_c                   13.490(3)
_cell_measurement_temperature    293(2)
_cell_volume                     5469(2)
_computing_structure_refinement  'SHELXL-2016/6 (Sheldrick, 2016)'
_computing_structure_solution    'SHELXT 2014/5 (Sheldrick, 2014)'
_diffrn_ambient_temperature      293(2)
_diffrn_measured_fraction_theta_full 0.688
_diffrn_measured_fraction_theta_max 0.688
_diffrn_radiation_wavelength     0.02508
_diffrn_reflns_av_R_equivalents  0.1363
_diffrn_reflns_av_unetI/netI     0.1159
_diffrn_reflns_Laue_measured_fraction_full 0.688
_diffrn_reflns_Laue_measured_fraction_max 0.688
_diffrn_reflns_limit_h_max       17
_diffrn_reflns_limit_h_min       -17
_diffrn_reflns_limit_k_max       16
_diffrn_reflns_limit_k_min       -16
_diffrn_reflns_limit_l_max       12
_diffrn_reflns_limit_l_min       -12
_diffrn_reflns_number            5416
_diffrn_reflns_point_group_measured_fraction_full 0.688
_diffrn_reflns_point_group_measured_fraction_max 0.688
_diffrn_reflns_theta_full        0.687
_diffrn_reflns_theta_max         0.687
_diffrn_reflns_theta_min         0.064
_exptl_absorpt_coefficient_mu    0.280
_exptl_crystal_density_diffrn    1.752
_exptl_crystal_F_000             940
_refine_diff_density_max         0.215
_refine_diff_density_min         -0.197
_refine_diff_density_rms         0.050
_refine_ls_extinction_coef       .
_refine_ls_extinction_method     none
_refine_ls_goodness_of_fit_ref   1.577
_refine_ls_hydrogen_treatment    undef
_refine_ls_matrix_type           full
_refine_ls_number_parameters     149
_refine_ls_number_reflns         1784
_refine_ls_number_restraints     48
_refine_ls_restrained_S_all      1.564
_refine_ls_R_factor_all          0.2408
_refine_ls_R_factor_gt           0.1730
_refine_ls_shift/su_max          0.283
_refine_ls_shift/su_mean         0.002
_refine_ls_structure_factor_coef Fsqd
_refine_ls_weighting_details
'w=1/[\s^2^(Fo^2^)+(0.2000P)^2^] where P=(Fo^2^+2Fc^2^)/3'
_refine_ls_weighting_scheme      calc
_refine_ls_wR_factor_gt          0.4626
_refine_ls_wR_factor_ref         0.4945
_reflns_Friedel_coverage         0.000
_reflns_Friedel_fraction_full    .
_reflns_Friedel_fraction_max     .
_reflns_number_gt                947
_reflns_number_total             1784
_reflns_threshold_expression     'I > 2\s(I)'
_cod_data_source_file            zsm5_ChemEurJ.cif
_cod_data_source_block           z2c
_cod_original_cell_volume        5468.8(19)
_cod_database_code               1548626
_shelx_shelxl_version_number     2016/6
_shelx_space_group_comment
;
The symmetry employed for this shelxl refinement is uniquely defined
by the following loop, which should always be used as a source of
symmetry information in preference to the above space-group names.
They are only intended as comments.
;
_shelx_res_file
;
TITL 06_a.res in Pnma
    z2c.res
    created by SHELXL-2016/6 at 11:17:26 on 31-Oct-2017
REM Old TITL 06 in Pnma
REM SHELXT solution in Pnma
REM R1 0.258,  Rweak 0.013,  Alpha 0.132,  Orientation as input
REM Formula found by SHELXT:  O2 Si
CELL  0.02508  20.1970  20.0720  13.4900   90.000   90.000   90.000
ZERR    8.000   0.0040   0.0040   0.0027    0.000    0.000    0.000
LATT  1
SYMM 1/2-X, -Y, 1/2+Z
SYMM -X, 1/2+Y, -Z
SYMM 1/2+X, 1/2-Y, 1/2-Z
SFAC O  0.237  0.799  0.649  3.654  0.800 10.924  0.261 29.964  0.035 =
   0.0 0.0 18.200 0.660 16.00
SFAC Si  0.543  0.995  1.112  6.061  2.706 23.751  1.394 71.925  0.071 =
   0.0 0.0 123.000 1.110 28.100
UNIT 192 96
L.S. 20
XNPD 0.001
RIGU
ACTA
LIST 4

FMAP 2
EQIV $1   x-1/2, y, -z+3/2
EQIV $2   -x+1/2, -y+2, z-1/2
EQIV $3   x, -y+3/2, z
EQIV $4   -x+1/2, -y+2, z+1/2
EQIV $5   x+1/2, y, -z+3/2

DFIX 1.609 0.01 Si1  O1 Si1 O21_$5 Si1 O16 Si1 O15
DFIX 1.609 0.01 Si2  O2 Si2 O13 Si2 O6 Si2 O1
DFIX 1.609 0.01 Si3  O20_$4 Si3 O19_$4 Si3 O2 Si3 O3
DFIX 1.609 0.01 Si4  O4 Si4 O16_$4 Si4 O3 Si4 O17_$4
DFIX 1.609 0.01 Si5  O4 Si5 O5 Si5 O14 Si5 O21
DFIX 1.609 0.01 Si6  O19 Si6 O6 Si6 O5 Si6 O18
DFIX 1.609 0.01 Si7  O23 Si7 O17 Si7 O7 Si7 O22_$5
DFIX 1.609 0.01 Si8  O13 Si8 O8 Si8 O12 Si8 O7
DFIX 1.609 0.01 Si9  O18_$4 Si9 O8 Si9 O25 Si9 O9
DFIX 1.609 0.01 Si10 O15_$4 Si10 O26 Si10 O10 Si10 O9
DFIX 1.609 0.01 Si11 O10 Si11 O14 Si11 O11 Si11 O22
DFIX 1.609 0.01 Si12 O20 Si12 O24 Si12 O11 Si12 O12

PLAN 20
WGHT    0.200000
FVAR       0.55340
SI1   2    0.423219    1.056860    0.662393    11.00000    0.01253
SI2   2    0.308225    1.029920    0.810014    11.00000    0.01625
SI3   2    0.280444    1.061456    1.030050    11.00000    0.01218
SI4   2    0.121915    1.064686    1.025545    11.00000    0.00344
SI5   2    0.072100    1.028887    0.814337    11.00000    0.00100
SI6   2    0.186168    1.059590    0.670376    11.00000    0.01427
SI7   2    0.422906    0.828169    0.673803    11.00000    0.00744
SI8   2    0.307273    0.870390    0.814498    11.00000    0.01223
SI9   2    0.274452    0.826797    1.030759    11.00000    0.01487
SI10  2    0.119568    0.826663    1.027658    11.00000    0.00951
SI11  2    0.069273    0.869996    0.817153    11.00000    0.00510
SI12  2    0.186096    0.827846    0.680632    11.00000    0.01414
O1    1    0.373519    1.055441    0.754798    11.00000    0.04858
O2    1    0.308662    1.062266    0.918696    11.00000    0.02430
O3    1    0.201054    1.059708    1.032403    11.00000    0.06175
O4    1    0.097945    1.064076    0.912714    11.00000    0.03514
O5    1    0.114758    1.057199    0.723300    11.00000    0.02700
O6    1    0.243040    1.054648    0.753217    11.00000    0.04858
O7    1    0.372866    0.842226    0.763499    11.00000    0.04235
O8    1    0.308154    0.846400    0.927514    11.00000    0.03411
O9    1    0.197124    0.846529    1.028580    11.00000    0.03798
O10   1    0.090626    0.834050    0.917638    11.00000    0.04318
O11   1    0.114678    0.842899    0.728513    11.00000    0.05024
O12   1    0.240078    0.846955    0.762236    11.00000    0.04528
O13   1    0.308528    0.950083    0.816604    11.00000    0.09053
O14   1    0.078703    0.949474    0.827646    11.00000    0.05481
O15   1    0.420817    1.125790    0.601477    11.00000    0.04522
O16   1    0.407831    0.996752    0.587110    11.00000    0.03179
O17   1    0.401033    0.866302    0.574507    11.00000    0.02441
O18   1    0.189226    1.130235    0.614805    11.00000    0.03540
O19   1    0.192135    1.002712    0.587315    11.00000    0.04055
O20   1    0.195569    0.870546    0.581048    11.00000    0.03879
O21   1   -0.003678    1.048788    0.792089    11.00000    0.02563
O22   1   -0.005317    0.850724    0.787642    11.00000    0.04970
O23   1    0.424385    0.750000    0.646584    10.50000    0.02534
O24   1    0.191423    0.750000    0.654794    10.50000    0.03789
O25   1    0.284098    0.750000    1.059269    10.50000    0.00989
O26   1    0.112181    0.750000    1.060295    10.50000    0.02979
HKLF 4




REM  06_a.res in Pnma
REM R1 =  0.1730 for     947 Fo > 4sig(Fo)  and  0.2408 for all    1784 data
REM    149 parameters refined using     48 restraints

END

WGHT      0.2000      0.0000

REM Highest difference peak  0.215,  deepest hole -0.197,  1-sigma level  0.050
Q1    1   0.1075  0.7500  1.3547  10.50000  0.05    0.22
Q2    1   0.1488  0.7500  1.3398  10.50000  0.05    0.21
Q3    1   0.1514  1.2070  0.8719  11.00000  0.05    0.20
Q4    1   0.1402  1.1935  0.8623  11.00000  0.05    0.20
Q5    1   0.1498  1.1220  0.8222  11.00000  0.05    0.20
Q6    1   0.2302  1.2170  0.8799  11.00000  0.05    0.20
Q7    1   0.1177  1.2500  0.8140  10.50000  0.05    0.17
Q8    1   0.2445  1.1166  0.8154  11.00000  0.05    0.16
Q9    1   0.3063  0.7500  0.4508  10.50000  0.05    0.16
Q10   1   0.0111  0.7500  1.3195  10.50000  0.05    0.16
Q11   1   0.1893  1.1697  0.7426  11.00000  0.05    0.15
Q12   1   0.1910  0.7500  0.3792  10.50000  0.05    0.15
Q13   1   0.1821  1.1561  0.8415  11.00000  0.05    0.15
Q14   1   0.4343  1.1828  0.9051  11.00000  0.05    0.15
Q15   1   0.2817  1.1618  0.7637  11.00000  0.05    0.15
Q16   1   0.0667  1.2225  0.8711  11.00000  0.05    0.14
Q17   1  -0.0320  0.7500  1.2555  10.50000  0.05    0.14
Q18   1   0.4311  1.1303  0.7300  11.00000  0.05    0.14
Q19   1   0.1479  0.7500  0.4478  10.50000  0.05    0.14
Q20   1   0.2093  0.7500  1.2626  10.50000  0.05    0.13
;
_shelx_res_checksum              62133
_shelx_hkl_file
;
   0   0   1  335.78   18.05
   0   0   3    4.56   11.49
   0   0  -3   -3.11   10.30
   0   0   4  705.50   35.07
   0   0  -4  744.78   36.56
   0   0   5  -14.77   10.87
   0   0  -5  -20.62   10.51
   0   0   7   12.19   10.43
   0   0  -7  -15.70   10.41
   0   0   8 1770.14   82.08
   0   0  -8 1719.00   79.81
   0   0   9   -1.70    9.68
   0   0  -9    7.19    9.39
   0   0  10   13.19   10.11
   0   0 -10    7.75    9.54
   0   0  11   -1.30   10.84
   0   0 -11   -5.61   10.52
   0   0  12  318.00   21.66
   0   0 -12  319.74   21.98
  -1   0 -12   20.37   11.70
   1   0  12   30.07   11.88
  -1   0 -11  126.80   14.39
   1   0  11  130.29   14.44
  -1   0 -10  461.07   26.59
   1   0  10  405.05   24.36
  -1   0  -9  144.70   13.61
   1   0   9  153.88   14.20
  -1   0  -8 1195.97   57.16
   1   0   8 1143.32   54.86
  -1   0  -7   -0.63   10.22
   1   0   7   -4.00   10.95
  -1   0  -6  232.80   16.46
   1   0   6  218.97   16.90
  -1   0  -5  442.01   24.42
   1   0   5  474.09   25.86
  -1   0  -4 3142.78  141.45
   1   0   4 2928.92  131.92
  -1   0  -3 1321.50   61.38
  -1   0  -2 1281.98   59.01
   1   0   2 1221.54   56.32
  -1   0   4 2472.15  111.29
   1   0  -4 2223.42  100.43
  -1   0   5  337.76   19.90
   1   0  -5  362.40   20.55
  -1   0   6  198.75   15.27
   1   0  -6  199.10   14.57
  -1   0   7   -9.88   10.13
   1   0  -7   11.08    9.55
  -1   0   8 1029.07   49.55
   1   0  -8  968.64   46.84
  -1   0  10  379.83   22.72
   1   0 -10  403.54   23.63
  -1   0  11  123.67   13.85
   1   0 -11  134.94   14.26
  -1   0  12   17.25   10.86
   1   0 -12   13.31   11.32
  -2   0 -12    8.73   11.43
   2   0  12   27.69   12.16
  -2   0 -11   10.59   11.45
   2   0  11    9.68   11.37
  -2   0 -10   65.89   11.81
   2   0  10   61.30   11.83
  -2   0  -9  248.84   17.60
   2   0   9  258.26   18.14
  -2   0  -8  149.82   13.65
   2   0   8  141.33   13.77
  -2   0  -6   10.10   10.96
   2   0   6   27.35   12.44
  -2   0  -5  461.19   25.51
   2   0   5  497.33   27.34
  -2   0  -4  639.83   32.94
   2   0   4  687.48   35.12
  -2   0  -3  596.48   31.22
  -2   0  -2  699.80   34.36
   2   0   2  635.06   31.88
  -2   0  -1   23.58   10.09
   2   0   1    3.95   11.70
   2   0  -7   78.16   10.58
  -2   0   9  191.43   14.59
   2   0  -9  193.05   14.40
  -2   0  10   37.49    9.98
   2   0 -10   39.82    9.82
  -2   0  11   -7.18   10.16
   2   0 -11   -4.36   10.32
  -2   0  12   -6.36   10.44
   2   0 -12  -10.65   10.54
  -3   0 -12   64.39   13.10
   3   0  12   41.63   12.53
  -3   0 -11  208.05   17.71
   3   0  11  186.66   17.39
  -3   0 -10    5.71   10.26
   3   0  10    9.61   10.60
  -3   0  -9   59.37   10.96
   3   0   9   23.72   10.70
  -3   0  -8   70.93   11.32
   3   0   8   63.98   11.37
  -3   0  -7  932.84   45.97
   3   0   7  856.24   42.90
  -3   0  -5 1513.27   70.68
   3   0   5 1371.48   64.60
  -3   0  -3 9691.00  429.92
   3   0   3 9999.00  443.29
  -3   0  -2   20.55   12.92
   3   0   2   -2.56   12.20
   3   0 -10   -3.65    8.94
   3   0 -11  142.84   14.23
  -3   0  12   48.12   11.27
   3   0 -12   49.71   11.61
  -4   0 -12   91.01   14.10
   4   0  12   82.80   14.35
  -4   0 -11   40.67   12.38
   4   0  11   65.99   14.11
  -4   0 -10   -6.54   10.55
   4   0  10   -0.89   11.23
  -4   0  -9  417.49   24.73
   4   0   9  484.90   27.82
  -4   0  -8   -4.39   10.65
   4   0   8   10.77   10.11
  -4   0  -7   93.05   13.01
   4   0   7   84.40   13.34
  -4   0  -6    9.16   11.67
   4   0   6   15.96   11.96
  -4   0  -5   39.21   12.47
   4   0   5   36.59   11.83
  -4   0  -4 1101.48   52.77
  -4   0  -3 1484.22   68.93
   4   0   3 1498.16   69.41
  -4   0  -2  151.68   15.62
   4   0   2  147.26   15.19
  -5   0 -12   11.58   11.16
   5   0  12   26.14   12.26
  -5   0 -11  966.78   49.49
   5   0  11  861.47   45.13
  -5   0 -10   -1.63   11.76
   5   0  10  -12.77   11.45
  -5   0  -9 1277.33   61.95
   5   0   9 1381.94   66.60
  -5   0  -8   28.96   11.52
   5   0   8    6.33   10.75
  -5   0  -7   52.67   12.30
   5   0   7   75.14   12.47
  -5   0  -6   63.94   12.63
   5   0   6   76.36   13.30
  -5   0  -5 1085.44   52.55
   5   0   5 1029.31   50.12
  -5   0  -4  137.61   14.54
   5   0   4   90.29   12.63
  -5   0  -3 3074.20  138.66
   5   0   3 3274.11  147.49
  -6   0 -12   64.29   13.74
   6   0  12   67.77   13.40
  -6   0 -11    0.69   12.74
   6   0  11   26.55   13.34
  -6   0 -10   34.02   12.75
   6   0  10   67.57   13.73
  -6   0  -8   15.85   11.36
   6   0   8    0.42   10.70
  -6   0  -7  152.72   14.95
   6   0   7  141.33   14.69
  -6   0  -6  611.47   32.83
   6   0   6  654.24   34.71
  -6   0  -5  361.47   22.90
  -6   0  -4   -1.49   11.53
   6   0   4    0.27   11.75
  -6   0  -3  584.16   30.94
   6   0   3  579.51   30.88
  -7   0 -11   26.64   13.20
   7   0  11   42.13   13.98
  -7   0 -10   47.73   13.63
   7   0  10   28.44   13.28
  -7   0  -9   91.58   14.04
   7   0   9   99.54   13.91
  -7   0  -7   40.25   11.41
   7   0   7   26.71   11.49
  -7   0  -6  576.02   31.32
   7   0   6  594.97   32.31
  -7   0  -5   31.80   12.60
  -7   0  -4  187.82   16.77
   7   0   4  192.24   16.62
   7   0   3 1465.62   68.59
  -8   0 -11   44.72   13.68
   8   0  11   35.64   12.97
  -8   0 -10  164.23   17.28
   8   0  10  163.76   17.59
  -8   0  -9   -1.87   11.60
   8   0   9   22.34   12.30
  -8   0  -8 1268.04   61.74
   8   0   8 1304.07   63.33
  -8   0  -7   -5.07   10.55
   8   0   7    6.60   11.15
  -8   0  -5  344.03   22.12
   8   0   5  317.30   21.03
  -9   0 -11   15.27   12.49
   9   0  11   31.08   13.24
  -9   0 -10   13.20   13.48
   9   0  10   19.65   13.42
  -9   0  -9   69.60   13.84
   9   0   9  105.26   14.77
  -9   0  -8   72.92   13.13
   9   0   8   30.83   12.34
  -9   0  -7   26.48   11.25
   9   0   7   19.05   11.30
  -9   0  -6  333.45   21.44
  -9   0  -5  110.78   13.66
   9   0   5  111.98   13.47
  -9   0  -4    8.80   11.66
   9   0   4   32.43   11.76
 -10   0 -10  191.43   18.76
  10   0  10  228.39   20.14
 -10   0  -9    7.66   12.59
  10   0   9   21.99   13.09
 -10   0  -8  582.99   32.78
  10   0   8  577.18   32.76
 -10   0  -7   22.40   11.34
  10   0   7   26.58   11.39
 -10   0  -6   30.89   11.19
  10   0   6   33.65   10.48
 -10   0  -5   11.86   10.84
  10   0   5   -6.58   10.54
 -11   0 -10  123.20   16.05
  11   0  10   90.90   15.09
 -11   0  -9   17.03   13.02
  11   0   9   -9.26   13.09
 -11   0  -8   41.30   12.84
  11   0   8   39.10   12.88
 -11   0  -7   22.50   11.75
 -11   0  -6  449.45   26.69
  11   0   6  447.12   26.42
 -11   0  -5   13.92   10.86
  11   0   5   16.12   10.88
 -12   0  -9   26.01   13.31
  12   0   9   20.68   13.05
 -12   0  -8  141.22   16.66
  12   0   8  161.79   17.35
 -12   0  -7  268.48   20.25
 -12   0  -6   18.65   11.37
  12   0   6    8.88   11.13
  12   0   5   32.58   11.68
 -13   0  -9   10.43   11.95
  13   0   9   26.83   12.16
 -13   0  -8   37.53   13.49
 -13   0  -7  461.65   28.45
  13   0   7  457.93   28.36
 -13   0  -6   23.76   12.08
  13   0   6   47.90   12.12
 -14   0  -8   46.10   13.65
 -14   0  -7   94.39   15.07
  14   0   7   84.97   14.56
  14   0   6  177.83   17.13
 -15   0  -7   47.41   13.41
  15   0   7   66.71   13.48
  16  -1   6    9.43   11.72
  16  -1   7   24.80   12.89
  15  -1   6   16.39   12.25
 -15   1  -6    3.93   12.44
  15  -1   7    6.95   12.51
 -15   1  -7  -22.93   11.69
  14  -1   5   13.59   10.84
  14  -1   6   14.94   12.45
 -14   1  -6    6.07   12.41
  14  -1   7   17.60   12.68
 -14   1  -7   -4.47   12.63
  13  -1   5   20.80   11.20
 -13   1  -5    8.59   11.11
  13  -1   6  235.59   19.01
 -13   1  -6  265.46   20.54
  13  -1   7   11.33   12.22
 -13   1  -7   -2.38   12.75
  13  -1   8   35.67   11.29
 -13   1  -8   53.81   13.34
  13  -1   9   16.23   12.22
 -13   1  -9    3.17   12.12
  12  -1   5   -2.59   10.73
 -12   1  -5   -0.49   10.86
  12  -1   6   27.62   11.54
 -12   1  -6   11.02   11.24
  12  -1   7   78.88   13.45
 -12   1  -7   44.45   12.84
 -12   1  -8   11.23   12.66
  12  -1   9   14.77   12.38
 -12   1  -9  -11.00   12.76
  11  -1   4   -3.29   10.43
 -11   1  -4   -1.13   10.18
  11  -1   5   12.40   10.66
 -11   1  -5   13.78   11.01
  11  -1   6   16.32   10.37
 -11   1  -6   27.57   10.91
  11  -1   7    7.88   11.44
 -11   1  -7    9.76   11.47
  11  -1   8    9.26   11.55
 -11   1  -8    9.88   12.48
  11  -1   9    3.86   13.17
 -11   1  -9  -10.44   12.98
  11  -1  10   28.05   13.11
 -11   1 -10    9.27   12.51
  10  -1   4   -6.76   10.82
 -10   1  -4   -3.00   10.81
  10  -1   5   34.24   11.53
 -10   1  -5   31.95   11.48
  10  -1   6   -7.69   10.17
 -10   1  -6  -12.46   10.69
 -10   1  -7    6.75   11.19
  10  -1   8   14.62   12.02
 -10   1  -8  -10.17   11.66
  10  -1   9   68.45   14.52
 -10   1  -9   96.76   14.97
  10  -1  10   15.92   13.15
 -10   1 -10   12.88   12.87
   9  -1   3   -9.84   11.25
   9  -1   4   27.96   11.75
  -9   1  -4   18.33   11.73
   9  -1   5    4.53   11.15
  -9   1  -5   23.93   11.37
   9  -1   6   -4.06   10.00
  -9   1  -6   -2.23   11.20
  -9   1  -7   -8.75   10.95
   9  -1   8    7.87   11.49
  -9   1  -8   26.48   11.61
   9  -1   9    4.49   12.37
  -9   1  -9    4.01   12.42
   9  -1  10  -12.34   13.20
  -9   1 -10    4.29   12.91
   9  -1  11    2.94   11.77
  -9   1 -11    0.29   11.91
   8  -1   3   33.57   12.20
  -8   1  -3   64.72   13.04
   8  -1   4   61.91   12.83
  -8   1  -4   50.87   13.15
   8  -1   5  102.94   13.98
  -8   1  -5  120.76   14.24
   8  -1   6   32.69    9.47
  -8   1  -6   54.98   12.09
   8  -1   7  474.90   27.95
  -8   1  -7  492.22   28.35
   8  -1   8   63.91   12.74
  -8   1  -8   61.89   12.48
   8  -1   9   80.48   13.73
  -8   1  -9   59.39   13.06
   8  -1  10    8.11   13.21
  -8   1 -10    7.01   13.31
   8  -1  11   27.10   12.77
  -8   1 -11   20.89   12.95
   7  -1   3   35.44   11.83
  -7   1  -3   44.34   12.68
   7  -1   4    3.29   12.11
  -7   1  -4   -1.38   12.45
   7  -1   5    6.64   12.18
  -7   1  -5   23.33   12.67
  -7   1  -6   62.68   12.27
   7  -1   7   -3.05   11.06
  -7   1  -7    4.09   11.22
   7  -1   8   54.68   12.19
  -7   1  -8   31.52   11.88
   7  -1   9   18.99   11.46
  -7   1  -9   -1.06   11.68
   7  -1  10    3.50   12.90
  -7   1 -10   22.37   12.78
   7  -1  11   12.52   12.94
  -7   1 -11   11.49   13.13
   6  -1   2  155.28   15.06
  -6   1  -2  141.91   14.90
   6  -1   3   33.67   12.12
  -6   1  -3   14.81   12.44
   6  -1   4    5.40   11.96
  -6   1  -4    7.78   11.96
   6  -1   5   33.33   12.59
  -6   1  -5   53.65   12.91
   6  -1   6   14.48   11.88
  -6   1  -6    2.74   11.82
   6  -1   7   12.88   11.15
  -6   1  -7   -2.03   10.82
   6  -1   8   14.64   11.23
  -6   1  -8   27.01   11.45
   6  -1   9   -7.58   11.16
  -6   1  -9   -5.09   11.27
   6  -1  10   24.76   12.27
  -6   1 -10   16.30   12.37
   6  -1  11   15.90   12.69
  -6   1 -11   21.92   12.58
   6  -1  12    9.23   11.91
  -6   1 -12   21.20   11.59
   5  -1   2  482.69   26.52
  -5   1  -2  554.87   29.80
   5  -1   3   77.15   13.37
  -5   1  -3   90.82   13.35
   5  -1   4  418.30   24.48
  -5   1  -4  407.03   23.98
  -5   1  -5    8.02   12.33
   5  -1   6   42.25   12.38
  -5   1  -6   39.06   12.73
   5  -1   7  -20.55   11.65
  -5   1  -7   11.77   11.05
   5  -1   8   37.68   11.48
  -5   1  -8   24.42   11.25
   5  -1   9   -4.50   10.37
  -5   1  -9   22.14   10.22
   5  -1  10  364.37   23.83
  -5   1 -10  342.87   22.70
   5  -1  11    9.72   12.53
  -5   1 -11   17.61   12.15
   5  -1  12   11.86   12.42
  -5   1 -12   11.48   11.34
   4  -1 -12   13.45   10.13
   4  -1   1   63.83   12.85
  -4   1  -1   31.65   11.77
   4  -1   2  121.22   14.60
  -4   1  -2  111.94   14.59
   4  -1   3   10.04   12.72
  -4   1  -3   -1.96   12.56
   4  -1   4    3.30   12.91
  -4   1  -4  -13.84   12.24
  -4   1  -5   -2.07   12.44
   4  -1   6    6.31   11.90
  -4   1  -6   11.44   12.67
   4  -1   7    3.44   11.12
  -4   1  -7    2.96   10.40
   4  -1   8   -2.28   10.95
  -4   1  -8   18.91   10.68
   4  -1   9   12.58   10.72
  -4   1  -9   -3.10   10.19
   4  -1  10   36.70   11.73
  -4   1 -10   20.22   11.13
   4  -1  11   13.60   12.24
  -4   1 -11   -7.96   12.06
   4  -1  12    4.92   11.92
  -4   1 -12   11.96   11.65
   3  -1 -12   10.84   10.74
  -3   1  12   21.93   10.27
   3  -1 -11   15.24   10.31
  -3   1  11    8.61   10.08
   3  -1 -10   20.47    9.24
  -3   1  10    6.09    9.11
   3  -1  -9  -10.55    8.60
  -3   1   9    0.60    8.10
   3  -1   1    9.40   11.67
  -3   1  -1   21.27   10.81
   3  -1   2  617.75   32.02
  -3   1  -2  557.42   29.67
   3  -1   3  221.30   17.46
  -3   1  -3  210.84   17.16
  -3   1  -4  364.37   22.48
   3  -1   5   18.76   12.37
  -3   1  -5   13.77   11.73
   3  -1   6  229.32   17.42
  -3   1  -6  202.35   16.36
   3  -1   7   37.11   11.37
  -3   1  -7    1.66   10.53
   3  -1   8   -5.44   10.11
  -3   1  -8    0.14   10.20
   3  -1   9   -4.85   10.54
  -3   1  -9    6.82   10.19
   3  -1  10   15.23   11.22
  -3   1 -10   32.93   11.00
   3  -1  11   -8.31   11.69
  -3   1 -11   -3.59   11.44
   3  -1  12    6.31   11.98
  -3   1 -12   -5.86   11.79
   2  -1 -12  -12.15   10.44
  -2   1  12   -1.64   10.17
   2  -1 -11   11.05   10.37
  -2   1  11   -2.80   10.08
   2  -1 -10   -7.62    8.88
  -2   1  10    9.57    9.23
   2  -1  -9   25.04    9.00
  -2   1   9    1.66    8.68
   2  -1  -8   -8.88    8.53
  -2   1   8   -9.54    8.75
   2  -1  -7   13.69    8.96
  -2   1   7   46.76   10.05
   2  -1  -6   19.76    9.32
  -2   1   6   14.67    9.87
   2  -1  -5   10.88    9.39
   2  -1   0   83.24   10.08
   2  -1   1   -8.05   12.12
  -2   1  -1    2.49   10.60
   2  -1   2  111.39   13.78
  -2   1  -2  101.05   13.46
   2  -1   3   94.61   13.78
  -2   1  -3   65.98   13.15
  -2   1  -4   46.21   12.32
   2  -1   5   45.05   12.40
  -2   1  -5   27.79   11.88
   2  -1   6   17.81   11.43
  -2   1  -6   18.68   11.51
   2  -1   7   42.90   11.69
  -2   1  -7   48.66   11.52
   2  -1   8   13.19   10.23
  -2   1  -8   -3.73    9.74
   2  -1   9   25.58   10.48
  -2   1  -9   33.38   10.40
   2  -1  10   15.68   10.68
  -2   1 -10    6.74   10.25
   2  -1  11    2.48   11.97
  -2   1 -11   18.68   11.51
   2  -1  12    1.27   11.53
  -2   1 -12   -2.27   11.45
   1  -1 -12    9.16   11.08
  -1   1  12    0.62   10.89
   1  -1 -11    6.39   10.57
  -1   1  11   15.64   10.67
   1  -1 -10   33.94    9.81
  -1   1  10   55.77   10.54
   1  -1  -9   -0.96    8.97
  -1   1   9    6.14    9.57
   1  -1  -8   -3.45    8.96
  -1   1   8    8.26    9.18
   1  -1  -7    8.00    9.38
  -1   1   7   -1.53    9.75
   1  -1  -6    3.20    9.46
  -1   1   6    8.26   10.24
   1  -1  -5   56.70   10.52
  -1   1   5   50.30   10.84
   1  -1  -4  263.60   16.45
  -1   1   4  265.81   16.70
   1  -1  -3  454.33   23.16
  -1   1   3  472.58   23.91
  -1   1   2  214.09   12.53
   1  -1   1  330.08   18.84
  -1   1  -1  392.50   20.76
   1  -1   2  252.91   16.82
  -1   1  -2  245.12   16.41
   1  -1   3  437.83   23.93
  -1   1  -3  516.16   27.60
   1  -1   4  267.21   18.31
  -1   1  -4  318.93   20.11
   1  -1   5   38.53   11.63
  -1   1  -5   63.22   12.04
   1  -1   6   -2.38   11.75
  -1   1  -6   -7.50   10.98
   1  -1   7   14.25   11.18
  -1   1  -7   11.52   10.22
   1  -1   8   -3.88    9.73
  -1   1  -8   17.89    9.65
   1  -1   9   -6.29    9.65
  -1   1  -9   -2.93    9.27
   1  -1  10   39.17   10.80
  -1   1 -10   30.06   10.76
   1  -1  11   23.02   11.34
  -1   1 -11   50.73   11.99
   1  -1  12   18.67   11.75
  -1   1 -12   -4.34   11.25
   0  -1 -12   -6.16   10.88
   0   1  12   19.12   11.46
   0  -1 -11  103.56   13.45
   0   1  11  141.91   14.63
   0  -1 -10   15.83    9.50
   0   1  10   24.93    9.74
   0  -1  -9  377.74   22.20
   0   1   9  316.25   19.78
   0  -1  -8   55.07   10.07
   0   1   8   66.64   10.82
   0  -1  -7   97.67   11.67
   0   1   7   96.10   12.26
   0  -1  -6    8.31    9.34
   0   1   6    1.28   10.81
   0  -1  -5  361.35   20.72
   0   1   5  303.35   18.74
   0  -1  -4  118.32   12.51
   0   1   4  121.69   12.74
   0  -1  -3 1268.04   58.37
   0   1   3 1176.22   54.41
   0  -1  -2   30.13    8.87
   0  -1  -1  864.50   39.44
   0   1   1  999.44   45.19
   0  -1   2   23.77    9.83
   0   1  -2   24.84   10.24
   0   1  -3 1184.35   55.24
   0  -1   4   99.92   12.59
   0   1  -4  117.04   13.38
   0  -1   5  274.88   18.24
   0   1  -5  312.53   19.33
   0  -1   6   25.28   11.33
   0   1  -6   12.13   10.08
   0  -1   7   81.49   12.34
   0   1  -7   64.89   11.23
   0  -1   8   52.80   10.58
   0   1  -8   78.77   11.24
   0  -1   9  346.24   21.30
   0   1  -9  364.95   21.85
   0  -1  10   23.04   10.40
   0   1 -10   20.57   10.15
   0  -1  11  101.26   13.11
   0   1 -11  107.46   13.82
   0  -1  12   -8.18   11.37
   0   1 -12    6.89   11.25
  -1  -1 -12   13.76   11.24
   1   1  12    3.32   11.26
  -1  -1 -11   18.36   10.93
   1   1  11    9.23   10.93
  -1  -1 -10   68.40   11.10
   1   1  10   54.14   11.17
  -1  -1  -9   22.63    9.53
   1   1   9   19.82    9.89
  -1  -1  -8    7.30    9.52
   1   1   8    7.28   10.05
  -1  -1  -7    4.97   10.27
   1   1   7   11.38   10.87
  -1  -1  -6   24.11   10.33
   1   1   6   -4.60   11.46
  -1  -1  -5   38.09   10.76
   1   1   5   20.08   11.25
  -1  -1  -4  320.21   19.67
   1   1   4  280.46   18.64
  -1  -1  -3  504.08   26.42
   1   1   3  518.84   27.41
  -1  -1  -2  223.27   14.98
  -1  -1   6    5.09   10.76
   1   1  -6    9.16    9.72
  -1  -1   7    5.53   10.03
   1   1  -7    8.35   10.13
  -1  -1   8    7.98    9.32
   1   1  -8   23.84    9.84
  -1  -1   9   12.38    9.53
   1   1  -9   -2.88    9.29
  -1  -1  10   32.60   10.36
   1   1 -10   41.97   10.47
  -1  -1  11   34.58   11.08
   1   1 -11   21.01   10.87
  -1  -1  12   -1.93   10.67
   1   1 -12    2.06   10.87
  -2  -1 -12    0.38   11.30
   2   1  12   24.87   11.67
  -2  -1 -11   11.96   11.30
   2   1  11   10.91   11.19
  -2  -1 -10   10.08   10.30
   2   1  10    1.85   10.73
  -2  -1  -9    9.30    9.84
   2   1   9    7.50   10.25
  -2  -1  -8   16.19    9.95
   2   1   8    5.07    9.62
  -2  -1  -7   55.99   11.26
   2   1   7   37.34   11.23
  -2  -1  -6   27.44   11.27
   2   1   6   25.36   12.22
  -2  -1  -5   30.61   11.10
   2   1   5   43.20   11.90
  -2  -1  -4   43.02   12.10
   2   1   4   38.31   12.41
  -2  -1  -3   93.52   13.41
   2   1   3   74.52   12.83
  -2  -1  -2   97.07   12.13
   2   1   2   75.05   11.74
   2   1  -9   25.44    9.18
  -2  -1  10   -3.25    9.18
   2   1 -10    9.52    9.32
  -2  -1  11   15.81   10.72
   2   1 -11   25.41   10.61
  -2  -1  12   -1.28   10.68
   2   1 -12   13.67   11.10
  -3  -1 -12    2.50   11.27
   3   1  12   13.98   11.58
  -3  -1 -11   23.27   11.58
   3   1  11   -4.43   11.45
  -3  -1 -10   27.60   10.75
   3   1  10   44.77   11.62
  -3  -1  -9    3.27    9.14
   3   1   9   26.91   10.32
  -3  -1  -8    8.41   10.19
   3   1   8    9.02   10.22
  -3  -1  -7   -4.58   10.74
   3   1   7  -18.21   11.48
  -3  -1  -6  257.44   18.39
   3   1   6  290.57   19.81
  -3  -1  -5   17.95   11.48
   3   1   5    8.08   11.94
  -3  -1  -4  355.77   21.66
   3   1   4  366.23   22.00
  -3  -1  -3  268.95   18.71
   3   1 -12    7.01   10.59
  -4  -1 -12   26.66   11.53
   4   1  12   10.83   11.76
  -4  -1 -11   15.93   11.53
   4   1  11   16.27   12.23
  -4  -1 -10    2.05   11.49
   4   1  10   -2.49   10.95
  -4  -1  -9   17.10   10.72
   4   1   9   29.48   10.97
  -4  -1  -8    4.24   10.31
   4   1   8    8.74   10.43
  -4  -1  -7   -0.74   11.00
   4   1   7   -2.95   11.18
  -4  -1  -5    2.00   11.84
   4   1   5  -14.99   11.98
  -4  -1  -4   15.57   11.66
   4   1   4  -20.93   11.63
  -4  -1  -3   -7.83   12.13
   4   1   3   -5.21   10.40
  -5  -1 -12   12.42   12.23
   5   1  12   11.33   11.72
  -5  -1 -11   -2.52   12.01
   5   1  11  -23.97   12.82
  -5  -1 -10  271.27   20.10
   5   1  10  310.91   21.78
  -5  -1  -9   -0.45   10.54
   5   1   9   -5.71   10.96
  -5  -1  -8   16.06   10.84
   5   1   8   12.99   10.58
  -5  -1  -7   -2.68   10.89
   5   1   7   12.54   11.17
  -5  -1  -6    1.66   11.43
   5   1   6   29.41   12.05
  -5  -1  -5   13.69   11.99
   5   1   5    4.08   10.97
  -5  -1  -4  280.11   18.90
   5   1   3    6.35   12.05
  -6  -1 -12   36.84   12.58
   6   1  12   22.30   12.76
  -6  -1 -11   36.93   13.32
   6   1  11   28.12   13.18
  -6  -1 -10   15.82   12.01
   6   1  10   -3.49   12.24
  -6  -1  -9    0.42   10.66
   6   1   9   -1.41   11.06
  -6  -1  -8    7.01   10.79
   6   1   8  -10.68   10.95
  -6  -1  -7   11.44   10.86
   6   1   7    8.73   10.94
  -6  -1  -6   17.68   11.38
   6   1   6    5.27   11.45
  -6  -1  -5   36.36   12.63
   6   1   5   25.12   12.16
  -6  -1  -4   12.90   11.69
  -7  -1 -11   13.88   12.35
   7   1  11   19.91   13.08
  -7  -1 -10  -10.09   12.24
   7   1  10   -1.79   12.48
  -7  -1  -9    8.82   11.08
   7   1   9   -3.45   11.17
  -7  -1  -8   71.74   12.09
   7   1   8   39.75   11.76
  -7  -1  -7   -2.07   10.67
   7   1   7    5.86   10.82
  -7  -1  -6   28.00   11.30
   7   1   6   32.76   12.05
  -7  -1  -5   26.19   12.30
   7   1   5   23.64   11.98
  -7  -1  -4    1.16   11.95
   7   1   4    0.34   11.51
  -8  -1 -11    0.50   12.09
   8   1  11   27.77   13.11
  -8  -1 -10   15.33   12.80
   8   1  10    2.28   12.90
  -8  -1  -9   39.31   12.37
   8   1   9   59.07   13.11
  -8  -1  -8   31.99   11.82
   8   1   8   56.92   12.54
  -8  -1  -7  437.94   26.00
   8   1   7  481.06   27.73
  -8  -1  -6   50.08   11.90
   8   1   6   63.87   12.13
  -8  -1  -5   47.06   12.67
  -9  -1 -11   -2.67   12.30
   9   1  11   23.48   12.04
  -9  -1 -10   24.70   13.27
   9   1  10   20.93   13.40
  -9  -1  -9    4.57   11.88
   9   1   9   24.72   12.60
  -9  -1  -8   10.43   11.38
   9   1   8    8.91   11.11
  -9  -1  -7   10.17   10.76
   9   1   7  -15.09   10.86
  -9  -1  -6   -2.14   10.90
   9   1   6   -0.05   10.76
  -9  -1  -5   27.58   11.13
   9   1   5   21.80    8.75
 -10  -1 -10   27.36   12.92
  10   1  10   29.20   12.83
 -10  -1  -9   97.57   14.54
  10   1   9   58.04   13.91
 -10  -1  -8   21.22   11.65
  10   1   8   39.26   11.81
 -10  -1  -7   12.84   10.96
  10   1   7   15.42   10.93
 -10  -1  -6    2.56   10.51
 -11  -1 -10  -17.50   12.05
  11   1  10   12.34   12.41
 -11  -1  -9    8.30   12.55
  11   1   9   20.70   13.24
 -11  -1  -8   15.13   11.99
  11   1   8   18.96   11.88
 -11  -1  -7   -1.26   11.47
  11   1   7   26.15   11.60
 -11  -1  -6    3.64   10.96
 -12  -1  -9   -3.82   12.15
  12   1   9   14.54   12.30
 -12  -1  -8   17.99   12.66
  12   1   8   10.01   12.88
 -12  -1  -7   45.67   13.03
  12   1   7   37.41   11.73
  12   1   6    8.18   11.18
 -13  -1  -9   -0.09   12.27
  13   1   9   -8.32   11.96
 -13  -1  -8   27.49   13.42
  13   1   8   24.40   13.20
 -13  -1  -7   16.73   12.39
 -14  -1  -8   30.40   12.35
  14   1   8   13.46   12.13
  14   1   7   15.75    9.98
  16  -2   5  -10.01   11.80
  16  -2   6    5.22   11.52
 -16   2  -6    3.00   12.33
  15  -2   5   45.22   12.78
  15  -2   6   10.89   12.65
 -15   2  -6   -0.52   12.42
  15  -2   7   16.53   12.47
 -15   2  -7    9.24   12.67
  14  -2   5   13.76   11.22
  14  -2   6    6.49   12.15
 -14   2  -6   32.88   13.06
  14  -2   7   40.42   13.10
 -14   2  -7   30.68   13.23
  14  -2   8   42.46   12.67
 -14   2  -8   11.79   12.42
  13  -2   4   35.26   10.97
  13  -2   5   51.51   11.48
 -13   2  -5   32.52   12.30
  13  -2   6   15.17   11.75
 -13   2  -6    3.46   12.01
  13  -2   7   91.34   14.57
 -13   2  -7   67.96   14.06
  13  -2   8   -1.87   12.66
 -13   2  -8   -2.02   12.47
 -13   2  -9    8.48   12.45
  12  -2   4   25.00   10.51
  12  -2   5   49.80   11.55
 -12   2  -5   27.48   11.49
  12  -2   6   16.38   11.19
 -12   2  -6   -0.03   11.45
  12  -2   7   43.32   12.63
 -12   2  -7   41.49   13.15
  12  -2   8   21.53   13.25
 -12   2  -8   41.17   13.52
 -12   2  -9   41.16   13.47
  11  -2   3   -9.74   10.36
  11  -2   4   -3.50   10.12
 -11   2  -4   28.89   11.33
  11  -2   5   -5.08   10.19
 -11   2  -5    7.87   11.09
  11  -2   6  -12.24   10.22
 -11   2  -6    7.30   11.08
  11  -2   7   -2.91   11.59
 -11   2  -7   -1.19   12.05
 -11   2  -8   -5.23   12.38
  11  -2   9    7.80   13.41
 -11   2  -9   21.83   13.39
  11  -2  10   48.41   13.38
 -11   2 -10   41.70   13.61
  10  -2   3   22.76   10.61
  10  -2   4   22.51   10.68
 -10   2  -4   29.74   11.46
  10  -2   5   12.49   10.88
 -10   2  -5    6.15   10.90
  10  -2   6   15.75   11.25
 -10   2  -6   -4.02   10.93
  10  -2   7   25.04   11.39
 -10   2  -7   37.09   11.82
 -10   2  -8   31.76   12.19
  10  -2   9    4.75   12.94
 -10   2  -9   -3.74   12.49
  10  -2  10   61.10   14.25
 -10   2 -10   66.13   14.48
   9  -2   3  -11.16   11.03
  -9   2  -3   -3.63   11.80
   9  -2   4  491.64   27.69
  -9   2  -4  437.25   25.76
   9  -2   5   28.93   11.27
  -9   2  -5   31.00   11.62
   9  -2   6   44.31   11.53
  -9   2  -6   50.69   12.02
   9  -2   7    4.17    9.60
  -9   2  -7   21.72   11.13
   9  -2   8   -1.55   11.70
  -9   2  -8    2.77   11.33
   9  -2   9   24.99   12.89
  -9   2  -9   15.07   12.46
   9  -2  10    1.88   13.02
  -9   2 -10   -8.07   13.45
   9  -2  11  -11.06   12.01
  -9   2 -11   20.22   12.94
   8  -2   2    0.06   11.74
   8  -2   3   31.23   12.13
  -8   2  -3   31.47   12.72
   8  -2   4  100.41   13.45
  -8   2  -4  122.50   15.04
   8  -2   5  -23.16   11.55
  -8   2  -5   17.63   11.67
   8  -2   6   68.16   12.05
  -8   2  -6   80.20   12.69
  -8   2  -7   27.89   11.24
   8  -2   8  198.40   17.22
  -8   2  -8  203.86   17.31
   8  -2   9   21.79   12.38
  -8   2  -9   14.76   11.95
   8  -2  10    4.87   13.40
  -8   2 -10   25.01   13.31
   8  -2  11    3.39   12.67
  -8   2 -11   13.24   12.62
   7  -2   2   32.30   11.05
   7  -2   3   40.02   11.92
  -7   2  -3   31.21   12.05
   7  -2   4  166.55   15.55
  -7   2  -4  127.38   14.84
   7  -2   5    9.53   12.24
  -7   2  -5   17.19   12.73
   7  -2   6   15.69   11.62
  -7   2  -6    2.84   11.31
  -7   2  -7  -14.41   10.90
   7  -2   8    3.16   11.45
  -7   2  -8   19.77   11.17
   7  -2   9   28.01   12.11
  -7   2  -9   27.24   12.46
   7  -2  10    2.28   12.60
  -7   2 -10   13.01   12.94
   7  -2  11    5.92   12.39
  -7   2 -11   -4.49   12.61
   6  -2   2   41.93   12.02
  -6   2  -2   28.81   12.48
   6  -2   3   -5.75   12.55
  -6   2  -3   -0.52   12.03
   6  -2   4  -12.12   12.05
  -6   2  -4    6.90   12.33
   6  -2   5    0.45   12.20
  -6   2  -5  -12.54   12.95
  -6   2  -6    3.03   12.12
   6  -2   7   56.53   12.38
  -6   2  -7   82.54   12.99
   6  -2   8    3.52   11.20
  -6   2  -8  -18.46   11.26
   6  -2   9   18.34   11.16
  -6   2  -9   28.24   10.88
   6  -2  10   20.63   11.90
  -6   2 -10  -19.69   10.89
   6  -2  11   13.87   12.69
  -6   2 -11    3.09   12.19
   6  -2  12   12.67   12.78
  -6   2 -12    5.13   11.79
   5  -2   1  397.15   22.83
   5  -2   2   76.36   12.95
  -5   2  -2   52.77   13.12
   5  -2   3  521.05   28.64
  -5   2  -3  478.16   26.85
   5  -2   4   99.57   13.18
  -5   2  -4   79.21   13.39
   5  -2   5   19.22   12.32
  -5   2  -5   25.84   13.25
  -5   2  -6   31.66   12.47
   5  -2   7   21.25   10.96
  -5   2  -7    5.44   10.44
   5  -2   8   -0.30   10.84
  -5   2  -8    0.89   10.51
   5  -2   9   14.41   11.17
  -5   2  -9   22.18   10.88
   5  -2  10   -4.02   11.81
  -5   2 -10    0.30   11.55
   5  -2  11  142.61   16.71
  -5   2 -11  163.07   16.75
   5  -2  12    2.77   11.86
  -5   2 -12  -12.46   11.30
   4  -2 -12   -1.65    9.59
  -4   2  12   -8.54    9.10
   4  -2 -11    5.85    9.68
  -4   2  11   15.27    9.76
   4  -2 -10  -12.49    8.83
   4  -2   0   54.23   10.43
  -4   2   0   54.36   10.01
   4  -2   2   -3.11   12.45
  -4   2  -2   17.17   12.95
   4  -2   3  244.54   18.14
  -4   2  -3  210.02   17.38
   4  -2   4    8.07   12.26
  -4   2  -4   10.91   12.17
   4  -2   5   56.02   10.08
  -4   2  -5   86.54   13.28
   4  -2   6    5.30   11.86
  -4   2  -6   -6.26   11.26
   4  -2   7  417.25   25.06
  -4   2  -7  406.33   24.19
   4  -2   8    6.74   10.79
  -4   2  -8   -3.46   10.13
   4  -2   9   58.08   11.77
  -4   2  -9   64.48   11.46
   4  -2  10   -3.86   10.77
  -4   2 -10  -14.39   11.00
   4  -2  11   21.04   12.59
  -4   2 -11   14.99   12.18
   4  -2  12   -0.23   11.89
  -4   2 -12   -4.27   11.32
   3  -2 -12    2.32   10.09
  -3   2  12   26.53   10.15
   3  -2 -11   36.27   10.39
  -3   2  11   19.10   10.08
   3  -2 -10   26.17    9.02
  -3   2  10   13.70    8.91
   3  -2  -9   -0.44    8.22
  -3   2   9   12.15    8.52
   3  -2  -8   24.41    8.36
  -3   2   8   15.66    8.81
   3  -2  -7   49.28    8.95
  -3   2   7   76.51    9.76
   3  -2   0   -8.82    9.19
   3  -2   1  250.82   17.18
  -3   2  -1  238.50   16.31
   3  -2   2   44.39   13.25
  -3   2  -2   23.63   13.02
   3  -2   3  718.40   36.52
  -3   2  -3  690.74   35.50
   3  -2   4   46.25   12.84
  -3   2  -4   43.14   12.51
  -3   2  -5  150.86   15.40
   3  -2   6    5.92   11.53
  -3   2  -6   18.47   11.32
   3  -2   7  106.01   13.35
  -3   2  -7   86.37   12.45
   3  -2   8   26.81   11.09
  -3   2  -8   39.64   11.06
   3  -2   9  -13.69   10.39
  -3   2  -9   11.73   10.16
   3  -2  10   16.57   10.93
  -3   2 -10   14.52   11.02
   3  -2  11   34.66   12.69
  -3   2 -11   26.00   12.30
   3  -2  12   13.41   11.94
  -3   2 -12   26.09   11.83
   2  -2 -12    2.48   10.67
  -2   2  12    3.72   10.32
   2  -2 -11   -9.40   10.07
  -2   2  11   -1.29    9.73
   2  -2 -10   -5.65    8.72
  -2   2  10    0.35    8.98
   2  -2  -9    2.93    8.30
  -2   2   9   -2.59    8.57
   2  -2  -8   11.38    8.22
  -2   2   8   18.32    8.79
   2  -2  -7   22.28    9.04
  -2   2   7   10.54    8.68
   2  -2  -6   12.04    8.62
  -2   2   6   12.55    9.73
   2  -2  -5   12.78    8.35
  -2   2   5   13.51    8.87
   2  -2   0  167.25   12.20
   2  -2   1  -18.26   10.93
  -2   2  -1   -1.81    9.84
   2  -2   2  -20.10   11.99
  -2   2  -2    9.77   11.66
   2  -2   3  -11.18   11.80
  -2   2  -3   13.35   12.23
   2  -2   4   15.06   12.31
  -2   2  -4   15.06   12.10
   2  -2   5   29.03   12.15
  -2   2  -5   28.66   11.52
   2  -2   6   17.19   11.23
  -2   2  -6   -2.78   10.98
   2  -2   7    6.28   10.79
  -2   2  -7    6.73   10.69
   2  -2   8    6.82   10.41
  -2   2  -8   13.46   10.45
   2  -2   9   -2.86    9.97
  -2   2  -9    2.22    9.91
   2  -2  10   -3.28   10.66
  -2   2 -10    2.60   10.81
   2  -2  11   -4.66   11.55
  -2   2 -11  -16.49   11.37
   2  -2  12  -15.31   11.11
  -2   2 -12    3.92   11.25
   1  -2 -12   -0.51   10.77
  -1   2  12   17.17   10.91
   1  -2 -11   28.89   11.03
  -1   2  11   10.18   10.47
   1  -2 -10   41.61   10.32
  -1   2  10   45.25   10.24
   1  -2  -9   21.28    9.12
  -1   2   9   15.78    9.10
   1  -2  -8   24.27    9.09
  -1   2   8   12.12    9.08
   1  -2  -7   -1.92    8.93
  -1   2   7  -12.16    9.52
   1  -2  -6  108.72   11.40
  -1   2   6  124.48   12.78
   1  -2  -5   35.40    9.32
  -1   2   5   44.93    9.97
   1  -2  -4  550.10   27.38
  -1   2   4  556.26   27.88
   1  -2  -3  234.66   14.25
  -1   2   3  257.33   15.20
   1  -2  -2   67.26    7.42
  -1   2   2   86.00    8.05
   1  -2   1  114.63   12.74
  -1   2  -1  152.61   12.68
   1  -2   2   48.35   11.73
  -1   2  -2   33.62   11.63
   1  -2   3  272.32   18.56
  -1   2  -3  214.32   16.92
  -1   2  -4  533.83   28.70
   1  -2   5   43.79   12.01
  -1   2  -5   44.35   11.41
   1  -2   6  112.50   13.30
  -1   2  -6  121.92   13.49
   1  -2   7    6.76   11.02
  -1   2  -7   -4.86   10.16
   1  -2   8    2.67    9.97
  -1   2  -8   21.78   10.24
   1  -2   9   -3.72    9.86
  -1   2  -9   -1.35    9.68
   1  -2  10   53.05   11.72
  -1   2 -10   42.20   10.97
   1  -2  11   29.29   12.13
  -1   2 -11   23.76   11.41
   1  -2  12    7.45   11.51
  -1   2 -12    7.59   11.40
   0  -2 -12   18.98   11.38
   0   2  12   58.42   12.29
   0  -2 -11    0.36   10.44
   0   2  11  -12.48   10.82
   0  -2 -10  123.43   12.80
   0   2  10  156.33   13.96
   0  -2  -9   11.66    9.31
   0   2   9   27.87    9.74
   0  -2  -8  161.67   13.35
   0   2   8  161.56   13.84
   0  -2  -7   39.13    9.72
   0   2   7   39.55   10.53
   0  -2  -6   39.13   10.00
   0   2   6   46.53   11.25
   0  -2  -5   19.96    9.97
   0   2   5    3.53   10.55
   0  -2  -4   53.22   10.82
   0   2   4   64.47   11.32
   0  -2  -3   21.23    9.72
   0   2   3   22.99   10.03
   0   2   2  531.97   25.58
   0  -2   4   25.23    9.51
   0   2  -4   51.04   12.22
   0  -2   5    4.47   11.10
   0   2  -5   22.42   11.38
   0  -2   6   31.28   10.93
   0   2  -6   30.40   11.48
   0  -2   7   -2.38   10.72
   0   2  -7    7.24   10.23
   0  -2   8  116.46   12.82
   0   2  -8  137.61   13.17
   0  -2   9   12.84    9.47
   0   2  -9    5.94    9.45
   0  -2  10  119.71   13.09
   0   2 -10  110.15   12.89
   0  -2  11   26.31   11.55
   0   2 -11    2.19   11.03
   0  -2  12   10.83   11.53
   0   2 -12   30.43   12.09
  -1  -2 -12   24.81   11.66
   1   2  12    0.30   11.18
  -1  -2 -11   47.57   11.76
   1   2  11   32.99   11.46
  -1  -2 -10   80.30   11.40
   1   2  10   61.83   10.94
  -1  -2  -9  -12.94    9.02
   1   2   9    6.18    9.52
  -1  -2  -8   20.13    9.53
   1   2   8    5.59    9.77
  -1  -2  -7    3.05    9.43
   1   2   7   14.63   10.67
  -1  -2  -6  113.54   12.58
   1   2   6  146.56   14.30
  -1  -2  -5   29.73   10.69
   1   2   5   51.05   11.65
  -1  -2  -4  504.89   26.60
   1   2   4  557.31   28.84
  -1  -2  -3  220.13   15.16
   1   2   3  241.17   16.28
   1   2  -7   -9.96    9.14
  -1  -2   8   16.50    9.58
   1   2  -8   25.77    9.69
  -1  -2   9   16.81    9.64
   1   2  -9   -1.63    8.97
  -1  -2  10   36.08   10.38
   1   2 -10   26.20   10.23
  -1  -2  11   13.04   10.82
   1   2 -11   25.45   11.22
  -2  -2 -12    3.39   11.22
   2   2  12   11.33   11.34
  -2  -2 -11    8.89   10.98
   2   2  11    3.14   11.40
  -2  -2 -10   -2.53    9.66
   2   2  10    4.25   10.55
  -2  -2  -9    5.46    8.96
   2   2   9   27.65   10.13
  -2  -2  -8    9.67   10.22
   2   2   8   18.17   10.57
  -2  -2  -7   -0.92   10.75
   2   2   7   23.91   11.63
  -2  -2  -6   15.78   11.06
   2   2   6   17.17   11.67
  -2  -2  -4   -6.93   10.83
   2   2   4  -22.48   11.09
  -2  -2  -3   13.24   11.73
   2   2   3   -2.38   11.59
   2   2 -11   -2.85   10.68
  -2  -2  12   17.28   10.77
   2   2 -12   16.24   11.16
  -3  -2 -12    7.03   11.33
   3   2  12    1.73   11.63
  -3  -2 -11   46.06   12.31
   3   2  11   37.81   11.94
  -3  -2 -10   13.98   11.01
   3   2  10   17.13   10.88
  -3  -2  -9  -16.86   10.30
   3   2   9  -14.19   10.82
  -3  -2  -8   22.75   10.37
   3   2   8   55.46   11.40
  -3  -2  -7   78.16   12.05
   3   2   7   99.36   13.25
  -3  -2  -6   22.97   11.25
   3   2   6   21.73   11.90
  -3  -2  -5  117.51   13.02
   3   2   5  108.63   13.55
  -3  -2  -4   72.19   12.10
   3   2   4   62.01   12.34
  -4  -2 -12   15.46   12.24
   4   2  12   36.75   11.83
  -4  -2 -11   13.46   12.29
   4   2  11   25.64   12.90
  -4  -2 -10  -28.55   11.06
   4   2  10   -1.48   11.49
  -4  -2  -9   66.20   11.54
   4   2   9   58.73   11.76
  -4  -2  -8   -5.46    9.97
   4   2   8    4.96   10.62
  -4  -2  -6    4.74   11.39
   4   2   6   12.32   11.73
  -4  -2  -5   99.43   13.30
   4   2   5   87.81   13.20
  -4  -2  -4   12.34   11.60
   4   2   4  -11.51   11.39
  -5  -2 -12   -3.70   11.62
   5   2  12   -7.35   11.86
  -5  -2 -11  161.56   16.79
   5   2  11  156.67   17.00
  -5  -2 -10    4.68   11.72
   5   2  10   12.77   12.13
  -5  -2  -9   28.06   10.93
   5   2   9   11.43   11.29
  -5  -2  -8   22.29   10.53
   5   2   8   19.71   10.74
  -5  -2  -7   38.32   10.77
   5   2   7   26.45   11.31
  -5  -2  -6   27.82   11.23
   5   2   6   14.71   11.72
  -5  -2  -5   63.27   12.83
   5   2   5   67.57   12.59
  -5  -2  -4   47.53   11.81
   5   2   4   49.88   12.51
  -6  -2 -12    9.32   12.06
   6   2  12   -1.12   12.67
  -6  -2 -11   13.69   12.66
   6   2  11    8.08   13.10
  -6  -2 -10   -4.09   11.72
   6   2  10   19.79   12.37
  -6  -2  -9  -15.61   10.89
   6   2   9    6.89   11.29
  -6  -2  -8   12.01   10.54
   6   2   8    8.01   10.90
  -6  -2  -7   39.20   11.73
   6   2   7   30.18   11.08
  -6  -2  -6   -2.99   10.87
   6   2   6   -3.48   11.08
  -6  -2  -5  -14.26   11.18
   6   2   5   -5.99   11.09
  -7  -2 -11  -11.54   12.39
   7   2  11  -10.33   12.85
  -7  -2 -10   22.70   12.24
   7   2  10   25.31   12.67
  -7  -2  -9   38.70   11.97
   7   2   9   20.11   11.61
  -7  -2  -8   12.73   10.98
   7   2   8    6.47   10.94
  -7  -2  -7   -6.53   10.72
   7   2   7   -0.14   10.87
  -7  -2  -6    5.85   11.06
   7   2   6    8.22   10.87
  -7  -2  -5   12.67   11.59
   7   2   5    9.95   11.03
  -8  -2 -11    9.75   12.25
   8   2  11    9.60   12.45
  -8  -2 -10   12.88   12.53
   8   2  10   15.63   12.92
  -8  -2  -9   13.30   11.62
   8   2   9  -10.23   11.76
  -8  -2  -8  183.52   16.24
   8   2   8  160.16   15.37
  -8  -2  -7   13.52   10.83
   8   2   7   32.26   10.81
  -8  -2  -6   79.02   12.16
   8   2   6   83.52   12.60
  -9  -2 -11    0.28   11.89
   9   2  11   -9.17   12.62
  -9  -2 -10   15.60   12.77
   9   2  10   24.80   12.85
  -9  -2  -9    4.87   11.83
   9   2   9  -21.51   11.86
  -9  -2  -8    4.53   11.32
   9   2   8    5.21   10.94
  -9  -2  -7   -9.44   10.75
   9   2   7  -12.09   10.72
  -9  -2  -6   83.18   12.77
   9   2   6  110.14   13.15
 -10  -2 -10   64.40   13.81
  10   2  10   55.36   13.73
 -10  -2  -9    8.05   12.53
  10   2   9  -13.70   12.11
 -10  -2  -8    7.78   11.46
  10   2   8   -0.52   11.54
 -10  -2  -7   11.55   11.36
  10   2   7   13.32   11.29
  10   2   6   17.78   11.05
 -11  -2 -10   -3.63   11.47
  11   2  10  -19.10   11.65
 -11  -2  -9    2.70   12.54
  11   2   9   13.87   12.97
 -11  -2  -8   17.17   12.04
  11   2   8    5.00   11.89
 -11  -2  -7  -13.37   11.19
  11   2   7   20.64   11.19
 -12  -2  -9   26.27   12.77
  12   2   9   21.44   12.27
 -12  -2  -8   26.10   12.78
  12   2   8   10.03   12.58
  12   2   7   15.10   11.98
 -13  -2  -9    8.94   11.46
  13   2   9   -0.67   11.89
 -13  -2  -8   -0.01   12.63
  13   2   8    8.78   12.37
  14   2   8   11.52   11.66
  17  -3   5    3.34   10.72
 -17   3  -5   14.62   11.60
  16  -3   5   -4.07   11.24
 -16   3  -5   19.25   12.46
  16  -3   6   -0.20   11.65
  15  -3   4   12.04   11.62
 -15   3  -4   23.30   12.18
  15  -3   5   -2.72   12.15
 -15   3  -5   20.29   12.77
  15  -3   6  -10.03   12.62
  15  -3   7   -4.73   11.67
 -15   3  -7    8.61   12.24
  14  -3   4   22.91   11.15
 -14   3  -4    3.06   10.88
  14  -3   5   34.55   12.30
 -14   3  -5   15.64    9.07
  14  -3   6  143.66   16.43
 -14   3  -6  132.61   16.70
  14  -3   7   11.47   12.80
 -14   3  -7    5.74   12.62
  14  -3   8    8.96   11.96
 -14   3  -8    7.09   11.88
  13  -3   3   35.66   10.47
  13  -3   4  -16.19   10.93
 -13   3  -4   14.56   10.52
  13  -3   5   58.58   11.74
  13  -3   6   70.06   13.13
 -13   3  -6   53.82   13.21
  13  -3   7   33.25   12.87
 -13   3  -7   10.83   12.56
  13  -3   8   33.19   13.61
 -13   3  -8   56.60   13.74
  13  -3   9   25.42   12.58
 -13   3  -9    3.27   12.54
  12  -3   3  105.72   12.54
 -12   3  -3  115.81   13.37
  12  -3   4   20.19   10.48
 -12   3  -4   26.27   10.67
  12  -3   5   23.27   10.63
 -12   3  -5   24.91   11.29
  12  -3   6   62.98   12.60
 -12   3  -6   66.10   12.82
  12  -3   7   78.01   14.33
 -12   3  -7   77.29   14.66
  12  -3   8   17.43   13.32
 -12   3  -8   30.63   13.38
  12  -3   9   25.71   10.48
 -12   3  -9    8.83   13.38
  11  -3   2    0.77    9.94
  11  -3   3   59.65   11.25
 -11   3  -3   56.73   11.52
  11  -3   4   -8.95   10.37
  11  -3   5    9.04   10.95
 -11   3  -5   20.42   11.18
  11  -3   6    7.55   11.00
 -11   3  -6   -1.01   10.88
  11  -3   7   17.76   11.92
 -11   3  -7    9.67   11.83
  11  -3   8   23.27   13.06
 -11   3  -8   26.59   13.13
 -11   3  -9   24.78   13.53
  11  -3  10  -18.06   11.87
 -11   3 -10   14.32   12.37
  10  -3   2   13.13   10.54
 -10   3  -2  -17.60   11.32
  10  -3   3   15.95   10.51
 -10   3  -3   27.88   11.56
  10  -3   4   -2.75   10.63
  10  -3   5  147.96   14.78
 -10   3  -5  111.76   13.96
  10  -3   6   -0.76   10.84
 -10   3  -6   11.63   11.08
  10  -3   7   30.02   11.70
 -10   3  -7    8.95   11.03
  10  -3   8    3.13   11.61
 -10   3  -8   -5.76   11.59
  10  -3   9   33.01   13.25
 -10   3  -9   47.05   14.11
  10  -3  10   24.43   13.15
 -10   3 -10   18.91   13.62
   9  -3   2   13.16   11.17
  -9   3  -2   -5.22   11.84
   9  -3   3  602.75   31.90
   9  -3   4   -3.67   11.00
  -9   3  -4   -5.28   11.19
   9  -3   5  333.45   21.66
  -9   3  -5  338.10   21.90
   9  -3   6   -3.75   10.96
  -9   3  -6   10.67   11.32
   9  -3   7  167.83   15.86
  -9   3  -7  176.66   16.46
  -9   3  -8    2.96   11.58
   9  -3   9   57.60   13.99
  -9   3  -9   58.90   14.03
   9  -3  10   -7.76   13.38
  -9   3 -10  -16.86   13.23
   9  -3  11   14.32   12.16
  -9   3 -11    3.15   12.27
   8  -3   1   24.01   10.79
  -8   3  -1   40.92   11.45
   8  -3   2    1.96   10.89
  -8   3  -2   15.50   11.66
   8  -3   3  433.29   25.15
   8  -3   4   46.40   12.46
  -8   3  -4   64.31   13.09
   8  -3   5  118.55   14.08
  -8   3  -5   94.19   13.45
   8  -3   6  119.13   14.34
  -8   3  -6  152.02   15.35
   8  -3   7   89.98   13.26
  -8   3  -7   64.76   12.68
  -8   3  -8    1.55   11.17
   8  -3   9   24.30   12.42
  -8   3  -9   12.55   11.96
   8  -3  10   15.00   13.08
  -8   3 -10   34.57   13.89
   8  -3  11   10.20   11.86
  -8   3 -11   17.39   12.29
   7  -3   1  433.41   23.85
  -7   3  -1  489.32   26.26
   7  -3   2  142.61   14.02
  -7   3  -2  129.59   13.28
   7  -3   3   62.02   12.78
  -7   3  -3   56.08   12.84
   7  -3   4  117.97   14.44
  -7   3  -4  109.09   14.97
   7  -3   5   32.95   12.35
  -7   3  -5   25.27   12.15
   7  -3   6   33.12   11.63
  -7   3  -6   31.88   11.66
  -7   3  -7   -0.83   10.65
   7  -3   8   69.35   12.85
  -7   3  -8   95.14   13.58
   7  -3   9   13.06   11.41
  -7   3  -9   32.72   11.89
   7  -3  10   13.17   12.44
  -7   3 -10   11.39   12.41
   7  -3  11   17.20   13.59
  -7   3 -11   -1.79   11.92
   6  -3   0  727.58   35.25
  -6   3   0  676.79   33.16
   6  -3   1   24.93   10.61
  -6   3  -1  -12.92   10.29
   6  -3   2 1119.03   53.23
   6  -3   3   17.29   11.56
  -6   3  -3   27.37   12.32
   6  -3   4  163.07   15.41
  -6   3  -4  146.68   15.68
   6  -3   5   16.88   12.17
  -6   3  -5   13.02   12.77
   6  -3   6  100.23   13.53
  -6   3  -6  105.09   13.94
  -6   3  -7   88.51   12.44
   6  -3   8   13.38   11.17
  -6   3  -8   18.92   10.69
   6  -3   9    2.00   11.23
  -6   3  -9  -19.76   10.34
   6  -3  10   -4.65   11.94
  -6   3 -10    5.10   11.53
   6  -3  11   -0.96   12.20
  -6   3 -11   13.49   12.46
   5  -3 -12    5.10    8.62
   5  -3 -11   22.16    9.37
   5  -3   0   24.40   10.20
  -5   3   0   39.31   10.76
   5  -3   1   73.36   12.03
  -5   3  -1   61.66   12.19
   5  -3   2  250.47   17.95
   5  -3   3   44.29   12.72
  -5   3  -3   24.19   13.17
   5  -3   4  221.06   17.28
  -5   3  -4  183.17   16.59
   5  -3   5   16.38   11.99
  -5   3  -5    5.58   12.47
   5  -3   6  683.65   35.51
  -5   3  -6  788.95   40.54
   5  -3   7   23.35   11.03
  -5   3  -7   -2.32   10.46
   5  -3   8   -1.22   10.89
  -5   3  -8    6.87   10.54
   5  -3   9   -2.13   10.77
  -5   3  -9    2.42   10.32
   5  -3  11   -1.55   12.40
  -5   3 -11   26.58   12.41
   5  -3  12  -24.40   11.75
  -5   3 -12    2.91   11.39
   4  -3 -12   -0.33    9.09
  -4   3  12   12.95    9.24
   4  -3 -10   11.09    8.58
  -4   3  10    5.53    8.67
   4  -3  -9    8.95    7.89
  -4   3   9    8.38    7.86
   4  -3  -8   -2.23    7.54
   4  -3   0 1308.71   60.04
  -4   3   0 1278.50   58.53
   4  -3   1   96.57   12.78
   4  -3   2 1993.29   91.15
  -4   3  -2 1853.82   85.14
   4  -3   3   -4.16   12.37
  -4   3  -3   20.99   12.38
   4  -3   4  523.25   28.82
  -4   3  -4  545.92   29.66
   4  -3   5   -0.40   11.53
  -4   3  -5   19.86   12.63
  -4   3  -6  917.73   45.77
   4  -3   7   44.13   11.53
  -4   3  -7   15.56   10.55
   4  -3   8   26.93   10.97
  -4   3  -8   20.62   10.86
   4  -3   9   -5.18   10.59
  -4   3  -9   14.05   10.72
   4  -3  10   23.45   11.68
  -4   3 -10   10.13   11.51
   4  -3  11   27.91   13.05
  -4   3 -11   -7.15   11.98
   4  -3  12   20.44   12.22
  -4   3 -12   -0.24   11.49
   3  -3 -12    5.52    9.52
  -3   3  12    1.38    9.10
   3  -3 -11   18.99    9.84
  -3   3  11    5.28    9.83
   3  -3 -10    2.53    8.78
  -3   3  10   -9.60    8.48
   3  -3  -9   -0.85    7.92
  -3   3   9   10.32    8.21
   3  -3  -8   11.37    7.89
  -3   3   8   14.18    8.05
   3  -3  -7   22.77    8.07
  -3   3   7   22.86    8.01
   3  -3  -6    6.73    8.04
  -3   3   6   19.99    8.89
   3  -3  -5   66.03    8.37
  -3   3   5   41.57    8.21
   3  -3  -1  183.87   11.03
  -3   3   1  160.04    9.59
   3  -3   0   42.05    9.70
  -3   3   0   72.80    9.79
   3  -3   1  174.46   14.31
   3  -3   2  537.90   28.80
  -3   3  -2  471.88   26.14
   3  -3   3  232.45   17.62
  -3   3  -3  200.96   16.81
   3  -3   4   46.14   12.58
  -3   3  -4   44.20   12.52
   3  -3   5   72.41   12.40
  -3   3  -5   80.35   13.04
   3  -3   6   -6.10   11.45
  -3   3  -6   10.07   11.61
   3  -3   7   34.46   11.70
  -3   3  -7   16.06   10.98
   3  -3   8   17.88   10.80
  -3   3  -8   10.60   10.29
   3  -3   9   18.47   10.48
  -3   3  -9   -1.41    9.97
   3  -3  10    0.70   10.77
  -3   3 -10   -5.01   10.74
   3  -3  11   11.58   12.11
  -3   3 -11   25.16   12.31
   3  -3  12    0.28   11.73
  -3   3 -12   -4.00   11.39
   2  -3 -12   -2.71   10.07
  -2   3  12   -0.77    9.91
   2  -3 -11   24.79   10.20
  -2   3  11   24.36   10.31
   2  -3 -10    8.82    8.97
  -2   3  10    9.29    9.00
   2  -3  -9   13.98    8.29
  -2   3   9    6.86    8.60
   2  -3  -8    2.50    8.07
  -2   3   8  -10.66    8.64
   2  -3  -7  135.52   11.54
  -2   3   7  117.85   11.24
   2  -3  -6   13.69    8.64
  -2   3   6   -0.31    9.25
   2  -3  -5  106.13    9.87
  -2   3   5  120.29   10.75
   2  -3  -4  110.92    9.58
  -2   3   4  102.30    9.75
  -2   3   3  245.24   13.28
   2  -3  -2  326.95   15.27
  -2   3   2  321.83   15.04
   2  -3  -1   44.35    5.51
   2  -3   1   -8.19   10.40
  -2   3  -1   -3.15   10.19
   2  -3   2  325.78   20.33
  -2   3  -2  288.24   18.94
   2  -3   3  248.38   18.02
  -2   3  -3  233.96   17.97
   2  -3   4   72.80   13.16
  -2   3  -4  110.59   13.54
  -2   3  -5  105.71   13.55
   2  -3   6   11.73   11.44
  -2   3  -6   28.07   11.59
   2  -3   7  131.45   14.03
  -2   3  -7  113.23   13.34
   2  -3   8   20.55   10.63
  -2   3  -8   -9.84    9.90
   2  -3   9    8.22   10.40
  -2   3  -9    8.35    9.91
   2  -3  10   11.03   10.77
  -2   3 -10   10.76   10.98
   2  -3  11   28.60   12.03
  -2   3 -11   12.22   11.95
   2  -3  12   -3.41   11.38
  -2   3 -12   28.79   11.83
   1  -3 -12   -9.31   10.24
  -1   3  12   -3.68   10.37
   1  -3 -11   24.26   10.31
  -1   3  11   20.49   10.43
   1  -3 -10   -2.53    8.95
  -1   3  10   14.09    9.23
   1  -3  -9   21.83    8.72
  -1   3   9   28.77    9.17
   1  -3  -8    9.88    8.35
  -1   3   8   21.25    9.50
   1  -3  -7  149.58   12.49
  -1   3   7  183.99   13.84
   1  -3  -6   98.83   10.63
  -1   3   6  130.17   12.75
   1  -3  -5   52.01    9.10
  -1   3   5   62.95    9.90
   1  -3  -4  147.03   11.65
  -1   3   4  118.32   11.10
  -1   3   3 5573.08  246.98
   1  -3   3 4656.05  207.81
  -1   3  -3 4515.42  201.65
   1  -3   4  136.33   14.69
  -1   3  -4  162.83   14.82
  -1   3  -5   52.02   11.89
   1  -3   6   93.24   12.78
  -1   3  -6   51.21   11.58
   1  -3   7  143.19   14.08
  -1   3  -7  116.46   13.04
   1  -3   8    5.30   10.01
  -1   3  -8   18.83   10.31
   1  -3   9   10.26   10.34
  -1   3  -9   24.81   10.09
   1  -3  10   12.89   10.81
  -1   3 -10   34.33   10.95
   1  -3  11    3.00   11.55
  -1   3 -11   10.13   11.32
   1  -3  12   14.08   11.30
  -1   3 -12   -0.62   11.13
   0  -3 -12    8.65   11.16
   0   3  12    3.56   10.72
   0  -3 -11   96.26   12.97
   0   3  11  122.62   13.61
   0  -3 -10    2.74    9.17
   0   3  10  -17.71    9.54
   0  -3  -9   47.82    9.83
   0   3   9   77.12   10.90
   0  -3  -8    7.09    8.67
   0   3   8    4.66    9.43
   0  -3  -7  669.93   33.54
   0   3   7  658.89   33.32
   0  -3  -6   14.59   10.03
   0   3   6   16.69   10.58
   0  -3  -5 1372.64   63.29
   0   3   5 1462.13   67.32
   0  -3  -4    8.12    9.43
   0   3   4   20.06   10.16
   0  -3  -3 1323.82   60.38
   0   3   3 1273.85   58.16
   0  -3   6    1.65   10.04
   0   3  -6    6.53   10.67
   0  -3   7  353.56   21.49
   0   3  -7  296.96   19.26
   0  -3   8    7.98    9.80
   0   3  -8    0.92    9.97
   0  -3   9   68.42   11.34
   0   3  -9   48.63   11.00
   0  -3  10  -11.81   10.50
   0   3 -10   14.46   10.01
   0  -3  11   87.05   13.54
   0   3 -11   93.30   13.61
   0  -3  12    0.85   11.36
   0   3 -12   -9.95   11.27
  -1  -3 -12    8.35   11.04
   1   3  12   23.35   10.94
  -1  -3 -11   18.00   11.02
   1   3  11    1.23   11.24
  -1  -3 -10   11.43    9.86
   1   3  10   13.91   10.45
  -1  -3  -9   14.16    9.01
   1   3   9   -4.09    9.32
  -1  -3  -8    2.06    9.75
   1   3   8   11.51   10.11
  -1  -3  -7  144.12   13.09
   1   3   7  128.20   13.31
  -1  -3  -6  133.20   13.19
   1   3   6  118.55   13.21
  -1  -3  -4  124.01   12.15
   1   3   4   98.94   11.81
   1   3  -9   14.64    9.60
  -1  -3  10  -10.91    9.82
   1   3 -10    7.44    9.96
  -1  -3  11   30.65   11.41
   1   3 -11    1.02   10.52
  -1  -3  12    3.45   10.62
   1   3 -12   -3.49   11.02
  -2  -3 -12   -1.31   10.83
   2   3  12   -4.44   11.17
  -2  -3 -11   32.08   11.51
   2   3  11   52.20   12.15
  -2  -3 -10   12.88   10.61
   2   3  10   19.56   10.45
  -2  -3  -9  -14.66    9.60
   2   3   9   -3.82   10.02
  -2  -3  -8   11.48    9.93
   2   3   8   -2.32   10.04
  -2  -3  -7  133.08   13.02
   2   3   7  136.45   13.82
  -2  -3  -5  101.07   12.16
   2   3   5   99.61   12.52
  -2  -3  -4  119.25   12.45
   2   3   4   99.83   12.23
   2   3 -12    4.16   10.59
  -3  -3 -12   -5.47   11.61
   3   3  12   -3.65   10.79
  -3  -3 -11   20.10   11.91
   3   3  11   11.99   12.18
  -3  -3 -10   -5.94   10.84
   3   3  10   23.57   11.33
  -3  -3  -9   14.23   10.18
   3   3   9   -1.17   10.55
  -3  -3  -8   13.62   10.02
   3   3   8    8.14   10.27
  -3  -3  -6    7.25   10.72
   3   3   6    1.05   11.04
  -3  -3  -5   64.88   11.60
   3   3   5   56.49   11.96
  -3  -3  -4   66.85   11.59
   3   3   4   48.77   11.25
  -4  -3 -12   19.62   12.05
   4   3  12    3.95   11.80
  -4  -3 -11   24.87   12.83
   4   3  11   16.28   12.67
  -4  -3 -10   53.62   12.41
   4   3  10   14.18   12.01
  -4  -3  -9    7.95   10.07
   4   3   9   -0.69   10.66
  -4  -3  -8   26.51   10.39
   4   3   8    9.82   10.34
  -4  -3  -7   20.90   10.76
   4   3   7   24.28   11.04
  -4  -3  -6  988.28   48.02
   4   3   6  978.98   47.69
  -4  -3  -5   15.42   10.81
   4   3   5    8.35   11.55
  -5  -3 -12   16.42   11.73
   5   3  12   -3.07   11.60
  -5  -3 -11   -6.02   12.29
   5   3  11    9.17   12.73
  -5  -3 -10   73.84   13.16
   5   3  10   51.98   12.48
  -5  -3  -9   10.82   10.81
   5   3   9    9.17   10.74
  -5  -3  -8   -0.08    9.94
   5   3   8    5.30   10.77
  -5  -3  -7   15.14   10.23
   5   3   7   13.02   10.62
  -5  -3  -6  525.81   28.82
   5   3   6  557.54   30.35
  -5  -3  -5  -15.81   11.92
   5   3   5    8.66   11.43
  -6  -3 -11    0.78   12.12
   6   3  11   30.21   12.69
  -6  -3 -10   17.78   11.80
   6   3  10    2.46   12.06
  -6  -3  -9    9.19   10.77
   6   3   9    2.89   11.29
  -6  -3  -8   18.65   10.61
   6   3   8    9.70   10.45
  -6  -3  -7   90.97   12.38
   6   3   7   76.66   11.87
  -6  -3  -6   65.63   11.77
   6   3   6   67.98   12.12
  -7  -3 -11   52.99   13.40
   7   3  11   14.19   13.30
  -7  -3 -10   -1.62   12.34
   7   3  10    5.43   12.09
  -7  -3  -9   25.21   11.58
   7   3   9   36.53   11.83
  -7  -3  -7   11.23   11.02
   7   3   7    7.83   10.26
  -7  -3  -6   48.76   11.31
   7   3   6   43.85   10.93
  -8  -3 -11   -5.76   11.72
   8   3  11  -29.36   11.43
  -8  -3 -10   13.95   12.46
   8   3  10    6.02   12.70
  -8  -3  -9   11.45   11.59
   8   3   9    7.47   11.79
  -8  -3  -8    3.59   10.77
   8   3   8    8.89   10.75
  -8  -3  -7  153.07   14.77
   8   3   7  110.53   13.39
   8   3   6  132.85   13.99
  -9  -3 -11   49.02   12.81
   9   3  11    9.65   12.51
  -9  -3 -10    9.89   11.63
   9   3  10   12.33   12.23
  -9  -3  -9   33.04   12.89
   9   3   9   41.04   12.49
  -9  -3  -8  -11.06   11.05
   9   3   8   -6.40   10.70
  -9  -3  -7  130.64   14.17
   9   3   7  159.00   15.17
 -10  -3 -10   26.46   11.90
  10   3  10    0.59   12.40
 -10  -3  -9   64.59   13.87
  10   3   9   66.40   13.75
 -10  -3  -8  -20.17   11.15
  10   3   8    5.31   11.17
  10   3   7   24.31   11.48
 -11  -3 -10    6.37   11.95
  11   3  10   -8.16   11.24
 -11  -3  -9   27.93   13.02
  11   3   9   27.53   12.63
 -11  -3  -8   11.05   11.76
  11   3   8    5.33   11.99
 -12  -3  -9   16.96   12.62
  12   3   9   18.78   12.72
 -12  -3  -8    1.48   12.18
  12   3   8    8.32   12.05
 -13  -3  -9   16.23   12.30
  13   3   9   17.50   11.58
  13   3   8   -0.88   11.52
  17  -4   4   -3.91   10.74
  17  -4   5  -14.23   10.87
 -17   4  -5   -2.50   11.76
  16  -4   4   32.24   11.82
 -16   4  -4   24.65   12.54
  16  -4   5   10.12   11.58
 -16   4  -5   19.91   12.55
  16  -4   6   10.34   11.49
 -16   4  -6  -19.98   11.47
  15  -4   3    2.77   10.91
  15  -4   4   15.00   11.73
 -15   4  -4   13.28   11.99
  15  -4   5   35.43   13.19
 -15   4  -5   36.23   13.68
  15  -4   6    6.85   12.32
 -15   4  -6   13.96   11.08
  15  -4   7   -6.45   11.34
 -15   4  -7   -1.86   12.35
  14  -4   3    0.14    9.93
 -14   4  -3   10.11   11.03
  14  -4   4  -10.03   10.95
 -14   4  -4   13.21   11.44
  14  -4   5   18.36   11.84
 -14   4  -5   29.96   12.15
  14  -4   6   12.38   12.68
  14  -4   7    5.85   12.88
 -14   4  -7   21.72   13.44
  14  -4   8    8.41   11.91
 -14   4  -8   12.72   13.06
  13  -4   2    4.32    9.72
  13  -4   3   64.95   11.18
 -13   4  -3   68.66   11.94
  13  -4   4    1.41   10.43
 -13   4  -4   16.52   10.94
  13  -4   5    9.91   10.63
 -13   4  -5   -6.68   11.08
  13  -4   6   55.08   12.99
  13  -4   7   78.85   14.70
 -13   4  -7   74.78   14.48
  13  -4   8   15.76   13.04
 -13   4  -8   -8.90   12.74
  12  -4   2    9.72    9.59
 -12   4  -2   -5.90   10.07
  12  -4   3   17.65   10.22
 -12   4  -3    3.92   10.57
  12  -4   4    5.49   10.08
 -12   4  -4   14.31   10.91
  12  -4   5    1.35   10.45
  12  -4   6  -22.57   11.09
 -12   4  -6    4.43   12.12
  12  -4   7   51.43   13.60
 -12   4  -7   71.53   14.32
  12  -4   8   28.84   13.65
 -12   4  -8  -19.05   13.19
  12  -4   9   13.87   12.56
 -12   4  -9   15.11   13.13
  11  -4   2    3.38   10.15
 -11   4  -2    1.00   10.55
  11  -4   3    0.76   10.00
 -11   4  -3    3.70   10.48
  11  -4   4   -8.32   10.20
 -11   4  -4   -6.90   10.44
  11  -4   5   -0.28   10.63
  11  -4   6   28.52   11.22
 -11   4  -6   15.84   11.40
  11  -4   7   -5.23   11.82
 -11   4  -7   15.68   12.40
  11  -4   8    2.42   12.77
 -11   4  -8  -10.32   12.90
  11  -4   9    8.35   13.26
 -11   4  -9    6.03   13.17
 -11   4 -10   -3.32   13.02
  10  -4   1   21.04    9.95
 -10   4  -1    2.13   10.46
  10  -4   2   82.39   11.66
 -10   4  -2  108.20   13.60
  10  -4   3    2.77   10.40
 -10   4  -3  -19.60   10.96
  10  -4   4    0.30   10.75
 -10   4  -4   -3.96    8.12
  10  -4   5  -10.62   10.73
 -10   4  -5   21.44   11.39
  10  -4   6   31.65   11.33
 -10   4  -6   24.76   11.46
  10  -4   7   -4.86   11.20
 -10   4  -7  -16.90   11.61
  10  -4   8  -14.91   11.79
 -10   4  -8   -6.51   12.40
 -10   4  -9   -2.37   13.15
  10  -4  10   11.36   12.97
 -10   4 -10  -23.95   12.92
   9  -4   1   -2.77   10.47
  -9   4  -1    1.52   11.06
   9  -4   2  -10.03   10.66
  -9   4  -2   -7.86   11.56
   9  -4   3   12.34   11.05
  -9   4  -3    0.00   11.92
   9  -4   4   31.53   11.03
   9  -4   5  -11.67   10.54
  -9   4  -5   11.92   11.44
   9  -4   6    3.81   10.80
  -9   4  -6  -11.56   11.09
   9  -4   7   11.89   11.11
  -9   4  -7    7.80   10.90
   9  -4   8   -1.69   11.29
  -9   4  -8   -5.37   11.91
  -9   4  -9    0.55   13.15
   9  -4  10    5.39   13.15
  -9   4 -10   47.44   14.33
   8  -4   0   11.04    9.60
  -8   4   0   21.18   10.16
   8  -4   1   10.36   10.33
  -8   4  -1   16.38   11.23
   8  -4   2   28.30   11.17
  -8   4  -2   34.89   12.25
   8  -4   3   36.40   11.75
  -8   4  -3   56.81   13.15
   8  -4   4  141.22   14.64
  -8   4  -4  121.34   14.30
   8  -4   5   46.94   12.01
  -8   4  -5    7.45   11.54
   8  -4   6    0.36   10.95
  -8   4  -6  -10.45   11.30
   8  -4   7   56.88   12.10
  -8   4  -7   62.17   12.25
   8  -4   8   36.84    9.72
  -8   4  -8   68.25   12.84
   8  -4   9   11.61   12.42
  -8   4  -9    1.86   12.56
   8  -4  10   17.77   12.95
  -8   4 -10   21.04   12.98
   8  -4  11    5.15   12.08
  -8   4 -11   14.89   11.83
   7  -4   0   29.54    9.22
  -7   4   0   30.60   10.24
   7  -4   1    3.70   10.12
  -7   4  -1  -10.09   10.57
   7  -4   2   23.28   11.06
  -7   4  -2   13.33   11.33
   7  -4   3   13.04   12.40
   7  -4   4    7.25   11.88
  -7   4  -4   18.48   12.73
   7  -4   5    3.31   11.63
  -7   4  -5    2.19   11.59
   7  -4   6   35.86   11.87
  -7   4  -6   30.30   11.79
   7  -4   7    4.65   10.34
  -7   4  -7   12.19   10.82
  -7   4  -8   15.74   11.49
   7  -4   9    0.27   11.41
  -7   4  -9   13.51   11.70
   7  -4  10   23.09   12.92
  -7   4 -10   18.75   12.84
   7  -4  11   18.21   12.51
  -7   4 -11   -3.75   11.55
   6  -4   0    0.31    8.47
  -6   4   0   -2.13    9.58
   6  -4   1   22.28   10.41
  -6   4  -1  -11.29   10.60
   6  -4   2   -7.86   10.87
  -6   4  -2   -0.44   11.46
   6  -4   3   33.74   11.95
   6  -4   4   10.23   11.81
  -6   4  -4    3.38   13.01
   6  -4   5   14.88   11.27
  -6   4  -5   18.42   12.53
   6  -4   6   35.27   11.49
  -6   4  -6    3.14   11.27
   6  -4   7    3.73   10.47
  -6   4  -7   13.88   10.63
   6  -4   8   -5.57   10.59
  -6   4  -8   -2.30   10.87
   6  -4   9   31.01   11.74
  -6   4  -9   -0.56   10.84
   6  -4  10   11.55   12.30
  -6   4 -10   -9.44   11.91
   6  -4  11   34.01   13.40
  -6   4 -11   30.82   13.11
   5  -4 -12   11.11    8.69
  -5   4  12    2.74    8.82
   5  -4 -11   37.24    9.98
  -5   4  11   38.87    9.68
   5  -4 -10   16.34    8.84
   5  -4  -1  237.22   14.26
  -5   4   1  260.81   14.97
   5  -4   0    9.58    9.86
  -5   4   0   23.69   10.26
   5  -4   1  230.83   16.20
  -5   4  -1  216.30   15.63
   5  -4   2    4.90   11.61
  -5   4  -2   -7.59    8.72
   5  -4   3   -7.45   11.26
  -5   4  -3    2.41   12.06
   5  -4   4    1.82   11.49
  -5   4  -4   15.40   12.11
   5  -4   5  140.75   14.98
  -5   4  -5  186.54   16.90
   5  -4   6   14.78   11.27
  -5   4  -6  -10.23   11.40
  -5   4  -7    9.61   10.80
   5  -4   8  -16.79   10.79
  -5   4  -8   13.62   10.33
   5  -4   9   22.08   11.12
  -5   4  -9    4.32   11.20
   5  -4  10   19.08   11.79
  -5   4 -10   -2.66   11.39
   5  -4  11   54.85   13.82
  -5   4 -11   40.96   13.24
   5  -4  12   12.70   12.33
  -5   4 -12   21.64   12.54
   4  -4 -12    4.87    8.89
  -4   4  12   -7.65    8.73
   4  -4 -11   49.05   10.34
  -4   4  11   41.69   10.08
   4  -4 -10   14.38    8.93
  -4   4  10   16.81    8.68
   4  -4  -9    5.38    7.78
  -4   4   9   17.53    8.05
   4  -4  -8    8.41    7.26
  -4   4   8    1.57    7.14
   4  -4  -7   23.45    7.38
  -4   4   7   28.71    7.38
   4  -4  -6    1.34    6.57
   4  -4   0   18.90   10.10
  -4   4   0   40.01   10.30
   4  -4   1   35.16   11.27
  -4   4  -1   22.69   11.46
   4  -4   2    8.09   11.68
   4  -4   3   40.08   12.23
  -4   4  -3   20.86   12.52
   4  -4   4    4.37   11.32
  -4   4  -4   16.27   11.99
   4  -4   5   30.39   11.94
  -4   4  -5   30.85   12.80
   4  -4   6    8.74   11.46
  -4   4  -6   25.41   11.88
  -4   4  -7   29.09   11.02
   4  -4   8   -9.08   10.81
  -4   4  -8  -13.54   10.15
   4  -4   9    0.20   10.62
  -4   4  -9    7.30   10.48
   4  -4  10   -4.09   11.09
  -4   4 -10   32.23   11.86
   4  -4  11   38.29   12.98
  -4   4 -11   45.22   13.12
   4  -4  12   -1.29   11.32
  -4   4 -12   26.20   11.84
   3  -4 -12   22.26    9.33
  -3   4  12    4.86    9.30
   3  -4 -11   10.16    9.64
  -3   4  11    5.64    9.79
   3  -4 -10   -3.60    8.83
  -3   4  10   19.90    9.04
   3  -4  -9    0.52    7.90
  -3   4   9    5.23    7.79
   3  -4  -8    4.96    7.52
  -3   4   8   15.00    7.75
   3  -4  -7   51.34    8.29
  -3   4   7   57.59    8.59
   3  -4  -6   42.75    7.94
  -3   4   6   50.51    8.47
   3  -4  -5    3.93    7.03
  -3   4   5   -0.10    7.37
  -3   4   4   35.03    6.16
   3  -4  -3  156.44    8.36
  -3   4   3  148.65    8.00
   3  -4  -1   39.75    7.24
  -3   4   1   34.91    6.99
   3  -4   0   27.98    9.15
  -3   4   0   47.18    9.24
   3  -4   1   24.73   11.20
  -3   4  -1    6.80   10.16
   3  -4   2   63.26   12.78
  -3   4  -2   85.31   13.39
   3  -4   3  172.36   15.74
  -3   4  -3  148.65   14.94
   3  -4   4   24.09   11.87
  -3   4  -4   16.00   12.19
   3  -4   5   17.98   11.73
  -3   4  -5    6.68   12.30
  -3   4  -6   36.25   11.51
   3  -4   7   31.58   11.13
  -3   4  -7   72.65   11.73
   3  -4   8   -4.89   10.37
  -3   4  -8   16.91   10.73
   3  -4   9  -12.53   10.63
  -3   4  -9  -13.71   10.15
   3  -4  10    8.58   10.87
  -3   4 -10   20.26   11.27
   3  -4  11    9.31   12.26
  -3   4 -11   -3.78   12.03
   3  -4  12  -16.67   11.15
  -3   4 -12   -5.49   11.03
   2  -4 -12    5.47    9.52
  -2   4  12    3.74    9.38
   2  -4 -11    1.93    9.80
  -2   4  11   10.09    9.80
   2  -4 -10   -2.78    8.90
  -2   4  10   -6.38    8.65
   2  -4  -9    4.09    7.73
  -2   4   9   17.55    8.30
   2  -4  -8   -6.57    8.04
  -2   4   8   -4.16    8.09
   2  -4  -7   38.81    8.52
  -2   4   7   40.38    8.58
   2  -4  -6    0.49    8.02
  -2   4   6   -5.97    9.02
   2  -4  -5   13.20    7.50
  -2   4   5    7.90    8.28
   2  -4  -4    5.56    6.33
  -2   4   4   24.20    7.42
   2  -4  -3   19.68    5.75
  -2   4   3   11.88    5.83
   2  -4   1   32.07   10.57
   2  -4   2   37.36   11.97
  -2   4  -2   22.26   11.98
   2  -4   3   27.51   12.06
  -2   4  -3   22.52   12.09
   2  -4   4   33.25   11.94
  -2   4  -4   14.60   11.51
   2  -4   5   56.71   11.83
  -2   4  -5   56.88   12.26
  -2   4  -6   -1.95   11.06
   2  -4   7   22.00   10.98
  -2   4  -7   30.71   11.06
   2  -4   8    5.33   10.27
  -2   4  -8    8.14   10.20
   2  -4   9   11.84   10.54
  -2   4  -9    6.02   10.23
   2  -4  10   21.19   11.12
  -2   4 -10    1.13   10.75
   2  -4  11   18.58   12.06
  -2   4 -11   -4.57   11.32
   2  -4  12   -9.58   11.19
  -2   4 -12    3.37   11.26
   1  -4 -12   56.18   11.46
  -1   4  12   32.06   10.76
   1  -4 -11   19.21   10.30
  -1   4  11   11.16   10.31
   1  -4 -10   60.84   10.41
  -1   4  10   48.35   10.15
   1  -4  -9    6.14    8.32
  -1   4   9   11.58    8.82
   1  -4  -8   21.22    8.65
  -1   4   8    8.73    8.89
   1  -4  -7   -5.60    8.30
  -1   4   7    4.70    8.90
   1  -4  -6   14.61    9.21
  -1   4   6   10.39    9.53
   1  -4  -5    3.02    8.36
  -1   4   5   14.47    8.91
   1  -4  -4   -2.35    7.83
  -1   4   4   -0.98    8.15
  -1   4  -5    0.53   11.30
   1  -4   6    6.96   11.18
  -1   4  -6  -11.19   11.41
   1  -4   7  -14.44   10.34
  -1   4  -7  -10.09   10.11
   1  -4   8   -3.22   10.11
  -1   4  -8    3.60    9.94
   1  -4   9   10.66   10.46
  -1   4  -9   -1.17    9.79
   1  -4  10   56.89   11.75
  -1   4 -10   48.51   11.83
   1  -4  11    6.89   11.60
  -1   4 -11    6.75   11.52
   1  -4  12   21.07   12.08
  -1   4 -12   28.59   11.45
   0  -4 -12   -0.93   10.43
   0   4  12    6.23   10.63
   0  -4 -11   17.95   10.39
   0   4  11    9.27   10.65
   0  -4 -10   15.55    9.48
   0   4  10   26.27    9.86
   0  -4  -9   26.19    8.62
   0   4   9   36.17    9.48
   0  -4  -8   17.72    9.01
   0   4   8   -3.03    9.27
   0  -4  -7   29.27    9.41
   0   4   7   14.60    9.73
   0  -4  -6   19.43    9.52
   0   4   6   39.75   11.04
   0  -4  -5   11.26    8.93
   0   4   5    5.40    9.36
   0  -4  -4  383.90   20.29
   0   4   4  440.50   22.78
   0   4  -8    5.28   10.05
   0  -4   9   13.31    9.98
   0   4  -9   27.96   10.24
   0  -4  10   22.95   10.83
   0   4 -10   33.19   10.81
   0  -4  11   -6.00   11.24
   0   4 -11    3.31   11.15
   0  -4  12    4.65   10.90
   0   4 -12   13.01   11.10
  -1  -4 -12   33.44   11.54
   1   4  12   62.40   11.92
  -1  -4 -11   11.53   10.73
   1   4  11   21.99   11.19
  -1  -4 -10   40.68   10.69
   1   4  10   52.93   11.11
  -1  -4  -9   -6.45    9.47
   1   4   9   -5.66   10.02
  -1  -4  -8   18.34    9.66
   1   4   8   -8.50    9.91
  -1  -4  -7   16.60    9.60
   1   4   7    6.42   10.08
  -1  -4  -6   -2.28    9.84
   1   4   6   18.51   10.87
  -1  -4  -5    1.32    9.45
   1   4   5   -1.16    9.96
  -1  -4  -4   -2.84    9.02
   1   4   4  -14.44    9.22
   1   4 -11   19.93   11.22
  -1  -4  12   22.69   10.74
   1   4 -12   13.30   11.32
  -2  -4 -12   23.71   11.76
   2   4  12   10.57   10.69
  -2  -4 -11    3.80   11.59
   2   4  11  -10.77   11.48
  -2  -4 -10    5.72   10.55
   2   4  10   11.62   11.15
  -2  -4  -9    0.45    9.89
   2   4   9   13.03   10.25
  -2  -4  -8   -7.64    9.45
   2   4   8   -6.90    9.88
  -2  -4  -7   50.38   10.34
   2   4   7   38.82   10.55
  -2  -4  -5   29.03    9.97
   2   4   5   21.75   10.72
  -3  -4 -12    2.53   11.41
   3   4  12    7.21   11.75
  -3  -4 -11    5.53   12.04
   3   4  11   15.17   12.03
  -3  -4 -10    5.54   10.61
   3   4  10   16.25   11.16
  -3  -4  -9  -11.22    9.61
   3   4   9    3.52   10.65
  -3  -4  -8   27.46   10.15
   3   4   8   26.30   10.54
  -3  -4  -7   54.85   10.63
   3   4   7   46.86   11.02
  -3  -4  -6   72.29   11.54
   3   4   6   44.69   11.16
  -3  -4  -5    6.51   10.15
   3   4   5    7.52   10.82
  -4  -4 -12   17.82   11.49
   4   4  12   14.34   11.88
  -4  -4 -11   37.67   12.34
   4   4  11   35.21   12.82
  -4  -4 -10   21.99   11.03
   4   4  10   23.95   11.79
  -4  -4  -9    9.77    9.94
   4   4   9   -0.29   10.65
  -4  -4  -8    6.75    9.88
   4   4   8    1.67   10.58
  -4  -4  -7   36.46   10.39
   4   4   7   24.40   10.88
  -4  -4  -6    1.65   11.13
   4   4   6   26.28   10.96
  -5  -4 -12    4.39   11.79
   5   4  12   -5.53   12.08
  -5  -4 -11   42.42   12.55
   5   4  11   13.97   12.80
  -5  -4 -10   19.10   11.40
   5   4  10   15.97   11.96
  -5  -4  -9   -5.20   10.52
   5   4   9    9.12   11.03
  -5  -4  -8    5.20    9.66
   5   4   8    6.10   10.58
  -5  -4  -7   29.31   10.19
   5   4   7   19.43   10.34
  -5  -4  -6   13.06   10.67
   5   4   6    5.50   10.76
  -6  -4 -11   11.00   12.19
   6   4  11   15.11   12.60
  -6  -4 -10  -12.08   11.65
   6   4  10   28.44   12.44
  -6  -4  -9   18.07   11.18
   6   4   9  -16.40   10.88
  -6  -4  -8    9.25   10.30
   6   4   8    1.88   10.51
  -6  -4  -7   15.73   10.18
   6   4   7    2.67   10.39
   6   4   6  -11.23   10.40
  -7  -4 -11   11.70   12.04
   7   4  11   -2.43   12.29
  -7  -4 -10    8.68   12.19
   7   4  10    4.97   12.63
  -7  -4  -9    9.93   11.17
   7   4   9    3.11   11.45
  -7  -4  -8   38.69   10.93
   7   4   8   37.86   11.22
  -7  -4  -7    5.28   10.27
   7   4   7    5.74   10.02
  -8  -4 -11    7.15   11.73
   8   4  11   18.83   11.95
  -8  -4 -10    7.03   11.69
   8   4  10    7.46   12.29
  -8  -4  -9   13.96   11.59
   8   4   9   17.04   11.39
  -8  -4  -8   36.51   11.26
   8   4   8   27.51   11.00
   8   4   7   82.86   12.27
  -9  -4 -10    0.66   11.82
   9   4  10   24.92   12.53
  -9  -4  -9   12.25   11.96
   9   4   9   25.52   11.76
  -9  -4  -8    5.21   11.39
   9   4   8   10.72   10.74
 -10  -4 -10   35.11   11.96
  10   4  10   20.34   12.31
 -10  -4  -9   12.29   12.42
  10   4   9   29.60   12.77
 -10  -4  -8   -0.33   11.41
  10   4   8   19.54   11.75
 -11  -4 -10   -1.31   11.72
  11   4  10    7.82   11.97
 -11  -4  -9    7.86   11.94
  11   4   9   13.73   11.75
 -12  -4  -9   13.90   11.77
  12   4   9    1.60   11.36
  17  -5   3    8.71   10.79
  17  -5   4   10.20   11.20
 -17   5  -4    7.12   11.70
  16  -5   3  318.46   21.58
 -16   5  -3  280.57   21.01
  16  -5   4   10.94   11.79
 -16   5  -4    5.82   12.63
  16  -5   5   21.82   11.95
 -16   5  -5   15.57   12.12
  16  -5   6   -4.49   11.38
 -16   5  -6  -12.58   11.76
  15  -5   2   49.12   11.34
  15  -5   3  -23.29   10.69
 -15   5  -3   -0.58   11.73
  15  -5   4  487.11   28.75
 -15   5  -4  473.74   28.66
  15  -5   5   -5.81   11.67
 -15   5  -5  -10.81   12.33
  15  -5   6   15.71   11.98
 -15   5  -6   22.51   12.30
  15  -5   7    7.07   11.52
  14  -5   2  167.72   14.68
 -14   5  -2  152.02   14.84
  14  -5   3   22.89   10.84
 -14   5  -3   19.89   11.94
  14  -5   4   96.18   13.02
 -14   5  -4  111.43   14.27
  14  -5   5  128.20   15.19
 -14   5  -5  118.55   15.11
  14  -5   6  326.60   23.36
 -14   5  -6  310.33   23.25
  14  -5   7   36.11   13.17
  14  -5   8    6.81   13.42
 -14   5  -8    8.44   12.51
  13  -5   2  918.31   45.43
 -13   5  -2  928.54   46.05
  13  -5   3   32.97   11.00
 -13   5  -3   14.48   10.65
  13  -5   4  268.95   19.19
 -13   5  -4  260.00   19.33
  13  -5   5  281.85   20.50
 -13   5  -5  254.77   19.64
  13  -5   7   19.65   13.20
 -13   5  -7   -6.46   12.96
  13  -5   8   41.46   13.75
 -13   5  -8   63.27   14.40
  12  -5   1   83.94   10.95
 -12   5  -1   89.75   11.51
  12  -5   2  120.41   12.58
 -12   5  -2  143.54   13.76
  12  -5   3   34.61   10.46
 -12   5  -3   45.58   10.87
  12  -5   4   83.47   12.22
 -12   5  -4   99.41   13.26
  12  -5   5    4.56   10.73
 -12   5  -5    8.33   11.75
  12  -5   6   99.84   14.33
  12  -5   7  453.87   28.32
 -12   5  -7  398.08   26.37
  12  -5   8   43.36   13.88
 -12   5  -8   41.03   13.88
  12  -5   9   40.06   13.03
 -12   5  -9   31.80   13.26
  11  -5   1  213.63   15.57
 -11   5  -1  245.01   16.74
  11  -5   2   -0.96    9.81
 -11   5  -2    2.60   10.37
  11  -5   3  176.78   15.07
 -11   5  -3  175.62   15.35
  11  -5   4   -1.50   10.11
 -11   5  -4    0.79   10.88
  11  -5   5   13.60   10.43
 -11   5  -5   -2.63   10.37
  11  -5   6   23.18   11.34
 -11   5  -6   28.75   11.98
  11  -5   7  162.60   16.71
 -11   5  -7  135.40   16.06
  11  -5   8   82.04   15.00
 -11   5  -8   67.71   15.14
  11  -5   9   -4.56   12.75
 -11   5  -9    9.77   13.71
  10  -5   0    6.04    9.18
 -10   5   0   -2.23    9.76
  10  -5   2   -8.21   10.11
 -10   5  -2   18.51   11.41
  10  -5   3   26.12   10.77
 -10   5  -3   44.63   11.48
  10  -5   4   15.64   10.33
 -10   5  -4    0.34   10.68
  10  -5   5   -0.52   10.69
  10  -5   6  -15.75   10.40
 -10   5  -6   15.26   11.43
  10  -5   7   25.34   11.94
 -10   5  -7   25.84   11.95
  10  -5   8   44.76   13.06
 -10   5  -8   12.99   12.95
  10  -5   9  654.01   37.24
 -10   5  -9  652.50   37.13
 -10   5 -10    2.29   12.47
   9  -5   0   12.13    9.80
  -9   5   0  -18.84    9.96
   9  -5   1   90.52   11.59
  -9   5  -1   52.05   11.63
   9  -5   2    4.22   10.39
  -9   5  -2   18.81   11.60
   9  -5   3   29.01   11.02
  -9   5  -3   17.71   11.68
   9  -5   4   82.99   12.26
  -9   5  -4   67.42   12.39
   9  -5   5  118.20   13.73
   9  -5   6    0.84   10.84
  -9   5  -6  -14.83   11.08
   9  -5   7  153.88   15.56
  -9   5  -7  133.31   14.98
   9  -5   8   35.93   12.26
  -9   5  -8   36.58   13.41
   9  -5   9  110.33   14.23
  -9   5  -9  109.92   15.77
   9  -5  10   26.69   12.78
  -9   5 -10   20.75   13.11
   8  -5  -1   74.49    9.44
   8  -5   0   16.45    9.26
  -8   5   0    4.97   10.11
   8  -5   1   61.89   11.30
  -8   5  -1   63.06   11.56
   8  -5   2   79.34   12.20
  -8   5  -2   56.20   11.97
   8  -5   3  775.35   39.30
  -8   5  -3  785.23   40.03
   8  -5   4   30.38   11.34
   8  -5   6  220.13   17.42
  -8   5  -6  161.21   15.53
   8  -5   7 1693.43   80.32
  -8   5  -7 1786.41   84.38
   8  -5   8   17.64   11.46
  -8   5  -8   15.49   11.67
  -8   5  -9  353.68   24.20
   8  -5  10   36.30   13.84
  -8   5 -10   37.73   13.74
   8  -5  11   14.46   12.37
  -8   5 -11  -13.96   12.23
   7  -5  -1   49.45    8.75
  -7   5   1   60.83    9.25
   7  -5   0    4.00    8.81
  -7   5   0  -10.58    9.94
   7  -5   1   78.77   11.61
  -7   5  -1   94.57   12.23
   7  -5   2  119.83   13.25
  -7   5  -2  126.80   14.31
   7  -5   3  106.74   13.58
  -7   5  -3   82.22   13.85
   7  -5   4   88.27   12.99
   7  -5   5   55.56   11.74
  -7   5  -5   18.04   11.34
   7  -5   6   46.25   11.89
  -7   5  -6   33.21   11.31
   7  -5   7   60.55   12.37
  -7   5  -7   82.47   12.55
   7  -5   8  373.20   24.04
  -7   5  -8  341.47   22.65
   7  -5   9   13.95   11.03
  -7   5  -9   -4.31   11.84
   7  -5  10    6.33   13.18
  -7   5 -10   31.38   13.16
   7  -5  11   -2.12   12.06
  -7   5 -11   -0.72   11.95
   6  -5 -11   49.75    9.73
   6  -5  -1  100.83    9.53
  -6   5   1  138.31   11.17
   6  -5   1  126.22   12.60
  -6   5  -1  144.35   13.41
   6  -5   2  574.51   30.22
  -6   5  -2  629.37   32.60
   6  -5   3   32.69   11.86
  -6   5  -3    0.21    9.77
   6  -5   4   48.23   12.56
  -6   5  -4   48.94   13.23
   6  -5   5    4.71   11.24
  -6   5  -5   -1.50   11.62
   6  -5   6   61.29   12.17
  -6   5  -6   43.49   11.62
   6  -5   7   75.28   12.03
  -6   5  -7  108.43   13.70
  -6   5  -8    0.88   11.27
   6  -5   9   17.53   11.83
  -6   5  -9   -6.01   11.38
   6  -5  10   62.83   13.82
  -6   5 -10   47.37   13.81
   6  -5  11   75.99   14.23
  -6   5 -11  100.69   14.63
   5  -5 -11    0.23    9.07
  -5   5  11   12.92    8.76
   5  -5  -9    1.92    7.26
  -5   5   9    2.14    7.07
   5  -5  -8    1.46    6.51
   5  -5  -2 1456.32   65.27
  -5   5   2 1391.24   62.50
   5  -5  -1   -7.18    7.69
  -5   5   1  -14.59    8.01
   5  -5   0   10.07    9.07
  -5   5   0    8.83   10.16
   5  -5   1   -2.73    9.89
  -5   5  -1    3.38   10.15
   5  -5   2 1910.77   87.52
  -5   5  -2 1758.51   80.98
   5  -5   3   28.37   11.58
   5  -5   4  126.69   14.25
  -5   5  -4  117.39   14.66
   5  -5   5   24.65   11.33
  -5   5  -5   27.86   12.54
   5  -5   6    1.88   11.03
  -5   5  -6   -8.46   11.05
   5  -5   7   31.79   10.94
  -5   5  -7   23.49   11.13
  -5   5  -8    5.24   10.94
   5  -5   9   10.34   11.01
  -5   5  -9   -3.53   10.54
   5  -5  11   13.59   12.39
  -5   5 -11   16.95   12.25
   4  -5 -12   31.88    9.23
  -4   5  12   42.29    9.57
   4  -5 -11   67.86   10.62
  -4   5  11   63.75   10.34
   4  -5 -10  145.86   12.59
  -4   5  10  123.90   11.62
   4  -5  -9    7.25    7.66
  -4   5   9    8.15    7.68
   4  -5  -8   -0.94    7.15
  -4   5   8    4.40    7.08
   4  -5  -7   -1.01    6.67
  -4   5   7    3.03    6.86
   4  -5  -6  241.40   13.53
  -4   5   6  260.70   14.51
  -4   5   5    9.55    6.23
   4  -5  -2   99.94    7.08
  -4   5   2  103.21    7.33
   4  -5  -1  189.33   11.95
  -4   5   1  205.84   12.45
   4  -5   0  374.48   20.44
  -4   5   0  392.03   21.19
   4  -5   1  202.58   14.80
  -4   5  -1  211.30   15.11
   4  -5   2   89.89   12.45
  -4   5  -2  101.41   12.75
   4  -5   3   66.10   12.29
  -4   5  -3   53.02   12.11
   4  -5   4    7.81   11.20
  -4   5  -4    6.69   11.99
   4  -5   5   39.17   12.12
  -4   5  -5   15.73   12.16
   4  -5   6  317.88   20.83
  -4   5  -6  350.31   22.19
  -4   5  -7   23.07   10.75
   4  -5   8   -8.04   10.45
  -4   5  -8   22.91   10.29
   4  -5   9    1.44   10.76
  -4   5  -9   -2.64   10.52
   4  -5  10  104.14   14.26
  -4   5 -10  139.82   15.52
   4  -5  11   54.98   13.66
  -4   5 -11   60.19   13.26
   4  -5  12   28.46   13.23
  -4   5 -12   11.18   11.95
   3  -5 -12   25.83    9.27
  -3   5  12   14.70    9.29
   3  -5 -11   66.04   10.84
  -3   5  11   30.06   10.25
   3  -5 -10   54.03    9.98
  -3   5  10   53.27    9.69
   3  -5  -9   18.05    8.15
  -3   5   9   16.10    8.32
   3  -5  -8   10.97    7.39
  -3   5   8    4.08    7.37
   3  -5  -7   12.03    7.45
  -3   5   7    2.98    7.18
   3  -5  -6 1350.56   61.54
  -3   5   6 1371.48   62.48
   3  -5  -5  151.56   10.16
  -3   5   5  171.09   11.03
   3  -5  -4  878.91   39.92
  -3   5   4  923.77   41.86
   3  -5   0  -17.43    8.86
  -3   5   0   -6.78    8.80
   3  -5   1  155.63   13.32
  -3   5  -1  122.15   12.74
   3  -5   2 2540.72  114.82
   3  -5   3   12.15   11.23
  -3   5  -3   -0.83   11.46
   3  -5   4  833.58   41.31
  -3   5  -4  900.06   44.49
   3  -5   5  169.58   15.48
  -3   5  -5  158.53   15.86
   3  -5   6 1144.72   55.39
  -3   5  -6 1301.74   62.27
  -3   5  -7   -5.00   10.11
   3  -5   8    8.11   10.23
  -3   5  -8    7.24    9.94
   3  -5   9    7.04   10.83
  -3   5  -9   15.45   10.30
   3  -5  10   52.31   12.33
  -3   5 -10   56.37   12.34
   3  -5  11   41.92   13.02
  -3   5 -11   48.20   13.05
   3  -5  12   15.59   11.59
  -3   5 -12   -0.08   11.53
   2  -5 -12   27.15    9.60
  -2   5  12   26.48    9.54
   2  -5 -11  165.51   14.40
  -2   5  11  219.55   16.31
   2  -5 -10   71.11   10.59
  -2   5  10   67.95   10.40
   2  -5  -9   84.24   10.05
  -2   5   9   59.37    9.27
   2  -5  -8   -0.57    7.57
  -2   5   8    8.66    7.88
   2  -5  -7  487.11   24.77
  -2   5   7  440.96   22.99
   2  -5  -6   46.28    8.44
  -2   5   6   49.20    8.68
   2  -5  -5   14.92    7.57
  -2   5   5   27.31    8.12
  -2   5   4  204.56   11.74
   2  -5   3   80.99   12.59
  -2   5  -3   96.07   13.39
   2  -5   4  161.09   14.56
  -2   5  -4  137.38   14.67
   2  -5   5   12.01   11.33
  -2   5  -5    2.89   12.13
   2  -5   6   36.29    9.64
  -2   5  -6   50.51   11.83
   2  -5   7  451.54   25.98
  -2   5  -7  415.51   24.55
   2  -5   8    9.22   10.57
  -2   5  -8   -2.94    9.91
   2  -5   9   74.22   12.05
  -2   5  -9   69.43   11.82
   2  -5  11  212.11   18.58
  -2   5 -11  159.58   16.59
   2  -5  12    9.00   11.49
  -2   5 -12   21.06   11.55
   1  -5 -12   -6.99    9.33
  -1   5  12    5.32    9.41
   1  -5 -11    9.14    9.96
  -1   5  11   26.56   10.37
   1  -5 -10  252.10   16.95
  -1   5  10  259.30   17.31
   1  -5  -9   82.20   10.08
  -1   5   9  102.18   11.03
   1  -5  -8   14.89    8.57
  -1   5   8   29.89    8.59
   1  -5  -7    8.18    8.29
  -1   5   7   -1.79    8.57
   1  -5  -6   22.99    8.67
  -1   5   6   11.46    9.53
   1  -5  -5  113.51   10.13
  -1   5   5  141.22   11.37
  -1   5   4  310.44   16.54
  -1   5  -6   -3.05   10.88
   1  -5   7    5.43   10.15
  -1   5  -7   19.05   10.18
   1  -5   8   52.67   11.02
  -1   5  -8   31.97   10.96
   1  -5   9   89.61   12.56
  -1   5  -9   82.81   12.31
   1  -5  11   24.00   12.05
  -1   5 -11   19.32   11.80
   1  -5  12    8.35   11.25
  -1   5 -12   17.24   11.53
   0  -5 -12   -3.80    9.75
   0   5  12    9.32    9.80
   0  -5 -10  -14.64    9.67
   0   5  10    9.82    9.12
   0  -5  -9 2042.11   93.78
   0   5   9 1965.40   90.45
   0  -5  -8   11.58    8.83
   0   5   8   17.76    9.01
   0  -5  -6    1.19    9.00
   0   5   6   30.73   10.01
   0  -5  -5  237.68   14.77
   0   5   5  275.92   16.61
   0   5  -9 1650.42   78.87
   0   5 -10   -7.15   10.25
   0  -5  11  522.09   30.34
   0   5 -11  520.70   30.14
   0  -5  12   17.64   11.13
   0   5 -12    5.95   10.77
  -1  -5 -12    9.22   10.87
   1   5  12   -3.79    9.89
  -1  -5 -10  260.23   18.13
   1   5  10  229.08   16.95
  -1  -5  -9  110.74   11.99
   1   5   9   87.65   11.40
  -1  -5  -8   50.23    9.82
   1   5   8   29.52    9.97
  -1  -5  -7    0.63    8.76
   1   5   7    5.96    9.70
  -1  -5  -6   -8.98    9.32
   1   5   6  -12.81    9.94
  -1  -5  -5  127.15   11.60
   1   5   5  110.81   11.60
  -2  -5 -12   10.65   11.29
   2   5  12   35.40   11.40
  -2  -5 -11  213.51   18.03
   2   5  11  222.11   18.19
  -2  -5 -10   65.04   12.09
   2   5  10   75.71   12.22
  -2  -5  -9   53.59   10.62
   2   5   9   93.07   12.12
  -2  -5  -8    0.83    9.30
   2   5   8  -19.36    9.41
  -2  -5  -6   24.54    9.74
   2   5   6   36.97   10.73
  -3  -5 -12   24.12   11.37
   3   5  12   26.05   11.77
  -3  -5 -11   76.84   13.48
   3   5  11  100.85   13.98
  -3  -5 -10   93.03   13.12
   3   5  10   50.26   11.81
  -3  -5  -9   17.76    9.81
   3   5   9   19.87   10.66
  -3  -5  -8    8.41    9.44
   3   5   8   10.30    9.96
  -3  -5  -7    2.73    9.55
   3   5   7    9.58   10.02
  -3  -5  -6 1319.18   61.64
   3   5   6 1316.85   61.76
  -4  -5 -12   43.53   12.23
   4   5  12   44.27   12.53
  -4  -5 -11   36.80   12.48
   4   5  11   75.86   13.46
  -4  -5 -10  101.80   13.69
   4   5  10  104.19   13.94
  -4  -5  -9   -3.57    9.69
   4   5   9    3.36   10.12
  -4  -5  -8   28.36   10.12
   4   5   8   -4.51    9.61
  -4  -5  -7  -13.13    9.68
   4   5   7   18.60   10.36
  -5  -5 -11   40.53   12.33
   5   5  11    9.77   12.30
  -5  -5  -9   -5.46    9.90
   5   5   9   16.49   10.72
  -5  -5  -8   22.66    9.68
   5   5   8   11.83   10.70
  -5  -5  -7   14.76   10.02
   5   5   7   18.54   10.00
  -6  -5 -11   76.98   13.80
   6   5  11   85.42   13.88
  -6  -5 -10   67.31   13.30
   6   5  10  110.25   14.41
  -6  -5  -9    9.76   10.70
   6   5   9  -14.17   10.57
  -6  -5  -8   -1.94    9.77
   6   5   8   -2.32   10.50
   6   5   7   72.75   11.72
  -7  -5 -11   -5.18   11.47
   7   5  11    5.81   12.06
  -7  -5 -10    0.56   11.46
   7   5  10    7.08   12.09
  -7  -5  -9   13.06   11.32
   7   5   9    3.44   11.29
  -7  -5  -8  223.85   17.10
   7   5   8  214.44   17.05
  -8  -5 -11   21.41   11.77
   8   5  11   -1.81   11.47
  -8  -5 -10   32.03   12.62
   8   5  10   33.93   12.89
  -8  -5  -9  279.87   20.36
   8   5   9  247.21   19.43
  -8  -5  -8   16.45   11.25
   8   5   8   -1.71   10.48
  -9  -5 -10   -6.97   11.84
   9   5  10    9.32   11.72
  -9  -5  -9   41.80   12.73
   9   5   9   25.84   12.27
 -10  -5 -10    6.80   11.60
  10   5  10  -12.15   11.90
 -10  -5  -9  530.69   30.78
  10   5   9  555.45   31.79
  11   5   9    3.97   12.03
  17  -6   2    2.65   10.76
  17  -6   3    5.53   11.16
 -17   6  -3    7.37   11.80
  17  -6   4    0.00   11.10
 -17   6  -4   22.75   11.61
  16  -6   2   32.26   11.51
 -16   6  -2    8.84   12.11
  16  -6   3   19.32   11.83
 -16   6  -3   10.12   12.69
  16  -6   4   12.77   11.80
 -16   6  -4   28.68   13.03
  16  -6   5    9.47   11.30
 -16   6  -5   22.08   12.26
  15  -6   1    2.52    9.84
  15  -6   2   13.54   10.86
 -15   6  -2   16.09   11.60
  15  -6   3   23.28   11.26
 -15   6  -3   12.53   12.46
  15  -6   4   16.45   12.08
 -15   6  -4   23.93   12.53
  15  -6   5   18.43   12.05
 -15   6  -5   39.76   13.30
  15  -6   6  -15.59   11.31
 -15   6  -6    5.97   12.27
  14  -6   1   -3.96    9.61
 -14   6  -1   13.91   10.30
  14  -6   2   31.99   10.27
 -14   6  -2   25.40   11.16
  14  -6   3    3.45   10.57
 -14   6  -3   -0.87   11.63
  14  -6   4   -7.92   11.49
 -14   6  -4    5.14   12.22
  14  -6   5    6.25   12.03
 -14   6  -5   -5.75   12.60
  14  -6   6   -9.17   12.35
 -14   6  -6   10.08   13.19
  14  -6   7   13.24   12.03
 -14   6  -7   10.07   11.03
  13  -6   1   19.58    9.64
 -13   6  -1   22.92    9.91
  13  -6   2   44.78   10.30
 -13   6  -2   43.32   10.87
  13  -6   3  109.68   13.02
 -13   6  -3   79.16   12.49
  13  -6   4    7.12   10.66
 -13   6  -4    3.10   11.80
  13  -6   5   24.40   12.27
 -13   6  -5   16.67   13.10
  13  -6   6   12.96   12.37
 -13   6  -6   -5.06   13.05
  13  -6   7  118.55   16.06
  13  -6   8    5.40   12.23
 -13   6  -8   -2.06   12.35
  12  -6   0   38.92    9.29
  12  -6   1   -5.42    9.60
 -12   6  -1    6.39    9.50
  12  -6   2    3.32    9.61
 -12   6  -2   -0.55   10.01
  12  -6   3   16.52   10.34
 -12   6  -3   -0.36   10.45
  12  -6   4    7.15   10.22
 -12   6  -4   16.62   10.88
  12  -6   5  -12.80   10.90
 -12   6  -5    2.06   10.93
  12  -6   6  -14.27   11.63
 -12   6  -6    1.12   12.18
  12  -6   7   26.28   13.62
  12  -6   8    7.24   13.25
 -12   6  -8   36.79   13.35
  12  -6   9    7.80   12.35
 -12   6  -9    3.60   12.77
  11  -6   0   10.60    8.90
 -11   6   0    0.84    8.61
  11  -6   1    5.88    9.03
 -11   6  -1  -14.87    9.82
  11  -6   2   10.55    9.72
 -11   6  -2  -12.10    9.81
  11  -6   3   16.19    9.77
 -11   6  -3  -13.78   10.30
  11  -6   4   10.07   10.05
 -11   6  -4   -8.54   10.29
  11  -6   5    8.61   10.61
 -11   6  -5   -2.21   10.51
  11  -6   6  -11.76   10.68
  11  -6   7  -17.14   11.90
 -11   6  -7   -7.81   13.02
  11  -6   8   11.00   12.97
 -11   6  -8   15.55   13.31
  11  -6   9    1.94   12.78
 -11   6  -9   27.56   13.05
  10  -6  -1   23.18    8.53
  10  -6   1    0.83    9.38
 -10   6  -1  -27.36    9.73
  10  -6   2   18.31    9.82
 -10   6  -2    4.15   10.27
  10  -6   3   16.95    9.95
 -10   6  -3   -1.71   10.47
  10  -6   4    0.79   10.25
 -10   6  -4    3.64   10.60
  10  -6   5    0.27   10.65
 -10   6  -5   -2.57   10.80
  10  -6   6    2.67   10.74
  10  -6   7   17.78   11.95
 -10   6  -7   -1.91   12.17
  10  -6   8   13.27   12.85
 -10   6  -8   17.31   13.37
  10  -6   9    8.69   12.45
 -10   6  -9   12.15   13.75
  10  -6  10   10.04   12.41
 -10   6 -10   21.10   12.54
   9  -6  -1   -6.29    8.32
  -9   6   1    1.06    8.40
   9  -6   0    0.38    9.12
  -9   6   0   -7.38    9.60
   9  -6   1    1.93    9.84
  -9   6  -1    1.87   10.19
   9  -6   2   19.77   10.25
  -9   6  -2   29.24   10.77
   9  -6   3  -19.48   10.33
  -9   6  -3   10.57   10.96
   9  -6   4   18.10   10.36
  -9   6  -4    4.32   10.76
   9  -6   5    3.89   10.76
   9  -6   6    7.07   10.63
  -9   6  -6    5.81   11.46
   9  -6   7   -8.00   10.69
  -9   6  -7  -16.75   10.87
   9  -6   8   58.32   12.99
  -9   6  -8   33.35   12.38
   9  -6   9   24.47   13.25
  -9   6  -9   -3.30   12.91
  -9   6 -10    3.43   12.82
   8  -6  -1   -4.10    8.09
  -8   6   1    1.81    8.94
   8  -6   0  120.64   11.82
  -8   6   0  120.41   12.27
   8  -6   1    6.24   10.13
  -8   6  -1   27.79   10.97
   8  -6   3   22.55   11.06
  -8   6  -3   30.27   11.96
   8  -6   4   24.74   11.03
  -8   6  -4    6.57   11.46
   8  -6   5    1.32   10.45
   8  -6   6   -9.17   10.65
  -8   6  -6   17.91   11.34
   8  -6   7   33.65   11.09
  -8   6  -7   20.93   11.39
   8  -6   8  126.34   14.88
  -8   6  -8  141.68   15.89
   8  -6   9   17.17   12.82
  -8   6  -9    8.97   12.72
  -8   6 -10   32.00   13.71
   7  -6  -2    6.75    6.89
  -7   6   2    5.28    7.25
   7  -6  -1   26.76    8.22
  -7   6   1   12.01    8.84
   7  -6   0    5.07    9.23
  -7   6   0    6.29    9.76
   7  -6   1   15.21   10.63
  -7   6  -1   20.04   11.13
   7  -6   2    8.53   11.53
  -7   6  -2    3.28   11.46
   7  -6   3   13.51   11.41
  -7   6  -3    5.58   11.68
   7  -6   4   -8.07   10.44
  -7   6  -4   17.03    9.65
   7  -6   5    5.95   10.51
  -7   6  -5    6.96   11.22
   7  -6   6   11.91   10.48
  -7   6  -6    7.36   10.68
   7  -6   7   29.89   11.32
  -7   6  -7    2.48   10.47
   7  -6   8   16.68   11.23
  -7   6  -8   25.22   11.79
  -7   6  -9    0.49   12.13
   7  -6  10    8.30   12.73
  -7   6 -10    7.59   13.48
   7  -6  11   24.06   12.25
  -7   6 -11    7.42   12.24
   6  -6 -11  -10.25    8.18
  -6   6  11   10.88    8.09
   6  -6 -10    8.41    8.22
  -6   6  10   -1.53    8.08
   6  -6  -9   -1.60    6.89
   6  -6  -2    7.24    6.33
  -6   6   2    3.24    6.68
   6  -6  -1    6.18    7.96
  -6   6   1    0.38    8.55
   6  -6   0   56.77    9.59
  -6   6   0   84.33   11.08
   6  -6   1    0.09   10.11
  -6   6  -1    6.78   10.16
   6  -6   2    3.18   10.62
  -6   6  -2   -0.36   11.44
   6  -6   3    0.38   11.48
  -6   6  -3    8.96   11.89
   6  -6   4   19.08   11.36
   6  -6   5  -10.31   10.50
  -6   6  -5   -1.16   10.93
   6  -6   6   18.69   10.95
  -6   6  -6    6.92   10.63
   6  -6   7    6.11   10.61
  -6   6  -7   17.36   10.77
   6  -6   8   -5.67   10.62
  -6   6  -8    9.86   10.94
  -6   6  -9   10.87   12.09
   6  -6  10    1.96   12.82
  -6   6 -10    1.64   12.66
   6  -6  11   16.50   12.65
  -6   6 -11   14.23   12.05
   5  -6 -11  102.90   11.26
  -5   6  11   88.01   10.40
   5  -6 -10    7.67    8.67
  -5   6  10   30.75    8.50
   5  -6  -9    0.58    7.43
  -5   6   9   -0.98    6.90
   5  -6  -8    9.01    6.43
  -5   6   8   -4.68    6.18
   5  -6  -7   50.51    6.53
  -5   6   7   59.60    7.04
   5  -6  -6    5.74    4.78
   5  -6  -3   57.64    4.74
  -5   6   3   49.85    4.49
   5  -6  -2   25.74    6.00
  -5   6   2   18.81    6.17
   5  -6  -1  218.97   13.21
  -5   6   1  225.02   13.70
   5  -6   0    3.13    8.60
  -5   6   0   26.50    9.41
   5  -6   1  220.13   15.23
  -5   6  -1  236.29   16.36
   5  -6   2   11.87   10.79
  -5   6  -2   17.20   10.86
   5  -6   3   56.56   12.10
  -5   6  -3   34.72   11.95
   5  -6   4   24.00   11.49
   5  -6   5   28.57   11.19
  -5   6  -5    1.56   11.32
   5  -6   6   -2.36   10.50
  -5   6  -6    7.69   10.81
   5  -6   7   88.47   12.39
  -5   6  -7   65.97   11.98
   5  -6   8    0.85    7.89
  -5   6  -8    8.16   11.00
   5  -6   9    3.72   11.32
  -5   6  -9   -8.26   11.52
   5  -6  10   26.73   12.75
  -5   6 -10   23.61   12.96
   5  -6  11  119.71   15.28
  -5   6 -11   99.35   14.55
   4  -6 -11   21.49    9.34
  -4   6  11   -0.72    8.61
   4  -6 -10   11.81    8.81
  -4   6  10    2.66    8.72
   4  -6  -9   20.07    7.96
  -4   6   9   26.80    7.73
   4  -6  -8   13.17    6.75
  -4   6   8   10.17    6.88
   4  -6  -7   60.68    7.24
  -4   6   7   54.75    7.24
   4  -6  -6   13.53    5.81
  -4   6   6   15.26    6.18
   4  -6  -5   14.64    4.89
  -4   6   5   24.14    5.68
   4  -6  -4    5.85    3.66
  -4   6   4    0.96    3.89
   4  -6  -2    4.65    5.03
  -4   6   2  -12.78    5.64
   4  -6  -1    4.74    7.22
  -4   6   1   17.43    7.35
   4  -6   0   22.95    8.87
  -4   6   0   11.48    9.43
   4  -6   1   -5.88    9.58
  -4   6  -1    1.09    9.70
   4  -6   2   14.27   10.27
  -4   6  -2    4.80   10.34
   4  -6   3   38.82   11.53
   4  -6   4   22.84   11.53
  -4   6  -4   -0.65   12.31
   4  -6   5   26.06   10.97
  -4   6  -5   17.36   12.37
   4  -6   6   14.85   11.25
  -4   6  -6   12.54   11.00
   4  -6   7   49.21   10.96
  -4   6  -7   54.68   11.96
  -4   6  -8    0.93   10.53
   4  -6   9   19.82   11.01
  -4   6  -9   47.55   11.86
   4  -6  10   -7.74   11.80
  -4   6 -10   -5.03   11.84
   4  -6  11   -5.24   11.92
  -4   6 -11    9.10   12.03
   3  -6 -12    6.74    8.89
  -3   6  12   -3.20    9.04
   3  -6 -10    3.91    8.79
  -3   6  10   12.80    8.87
   3  -6  -9   -9.34    7.79
  -3   6   9   18.75    7.83
   3  -6  -8   -4.47    6.74
  -3   6   8   12.70    7.38
   3  -6  -7  135.17   10.23
  -3   6   7  117.62    9.83
   3  -6  -6    5.15    6.60
  -3   6   6    2.82    6.90
  -3   6   5   36.98    7.10
  -3   6   4   21.23    5.20
   3  -6   2   47.25   10.81
  -3   6  -2   31.01   11.20
   3  -6   3   95.72   12.29
   3  -6   4   -3.82   10.93
  -3   6  -4    0.76   11.63
   3  -6   5   25.12   11.47
  -3   6  -5   20.60   12.15
   3  -6   6    3.97   10.32
  -3   6  -6   -3.02   10.94
   3  -6   8   14.91   11.31
  -3   6  -8   14.99   10.57
   3  -6   9    0.17   10.58
  -3   6  -9   10.89   10.81
   3  -6  10    5.66   11.46
  -3   6 -10    3.95   11.58
   3  -6  11   13.35   12.66
  -3   6 -11   13.12   12.05
   2  -6 -12   12.78    9.02
  -2   6  12   11.16    9.33
   2  -6 -11    1.57    9.58
  -2   6  11   -5.31    9.66
   2  -6 -10    5.82    8.83
  -2   6  10   11.34    9.11
   2  -6  -9   -6.52    7.81
  -2   6   9   -0.40    8.39
   2  -6  -8   19.56    7.97
  -2   6   8   20.39    7.55
   2  -6  -7    9.96    7.64
  -2   6   7   12.23    7.78
   2  -6  -5   19.12    7.03
  -2   6   5   11.23    7.26
   2  -6   5    9.14   11.06
  -2   6  -5    7.43   11.61
   2  -6   6  143.89   14.38
  -2   6  -6  120.53   13.80
  -2   6  -7   -7.78   10.40
   2  -6   8    6.69   10.32
  -2   6  -8   13.66   10.18
   2  -6   9    1.53   10.51
  -2   6  -9   -5.09   10.48
   2  -6  10   -2.01   11.02
  -2   6 -10    9.76   11.09
   2  -6  11    3.51   11.59
  -2   6 -11    8.83   11.65
   2  -6  12    4.35   11.87
  -2   6 -12    0.02   11.43
   1  -6 -12   37.05    9.97
  -1   6  12   56.27   10.87
   1  -6 -11   30.88   10.27
  -1   6  11   13.51   10.04
   1  -6 -10   16.09    9.79
  -1   6  10   15.77    9.36
   1  -6  -9   19.07    9.03
  -1   6   9    5.51    8.83
   1  -6  -8   11.01    8.07
  -1   6   8   11.38    8.68
   1  -6  -7   18.32    7.96
  -1   6   7   24.23    8.41
   1  -6  -6    5.15    7.81
  -1   6   6   13.13    8.19
   1  -6  -5   18.31    7.66
  -1   6   5    9.11    7.88
  -1   6  -8    6.68    9.82
   1  -6   9    3.56   10.41
  -1   6  -9   29.79   10.58
   1  -6  10   -9.15   11.08
  -1   6 -10    4.06   10.91
   1  -6  11   35.54   12.13
  -1   6 -11   13.23   11.70
   1  -6  12   34.14   11.66
  -1   6 -12   31.14   11.83
   0  -6 -12   11.88   10.32
   0   6  12   10.98    9.62
   0  -6 -11    5.47   10.47
   0   6  11    9.75   10.75
   0  -6 -10  109.63   12.45
   0   6  10  121.34   12.91
   0  -6  -9   28.16    9.41
   0   6   9   42.57    9.59
   0  -6  -8  108.04   10.80
   0   6   8   74.97   10.34
   0  -6  -7   14.73    8.31
   0   6   7   -3.57    8.38
   0  -6  -6  156.79   12.05
   0   6   6  136.33   11.62
   0   6 -11   10.86   11.33
   0   6 -12   10.93   10.96
  -1  -6 -12   31.08   10.83
   1   6  12   46.18   11.23
  -1  -6 -11   45.46   11.74
   1   6  11   24.55   11.75
  -1  -6 -10    9.72   10.07
   1   6  10   20.03   10.27
  -1  -6  -9   10.94    9.38
   1   6   9    6.88    9.57
  -1  -6  -8   11.05    8.68
   1   6   8   12.32    9.21
  -1  -6  -7   16.36    8.93
   1   6   7   19.82    9.22
  -1  -6  -6   -2.34    8.66
   1   6   6    7.36    9.44
  -2  -6 -12    8.17   10.60
   2   6  12   -8.69   10.41
  -2  -6 -11   21.69   11.59
   2   6  11   12.11   11.86
  -2  -6 -10    7.43   10.33
   2   6  10    8.68   10.54
  -2  -6  -9    0.83    9.09
   2   6   9  -12.06    9.51
  -2  -6  -8    4.43    8.84
   2   6   8   29.06    9.74
  -2  -6  -7   13.70    8.95
   2   6   7    8.88    9.14
   3   6  12    1.71   12.09
  -3  -6 -11   26.45   11.90
   3   6  11   22.83   11.77
  -3  -6 -10   -4.46   10.81
   3   6  10   11.82   11.15
  -3  -6  -9    7.62    9.70
   3   6   9   -5.03   10.24
  -3  -6  -8    9.62    9.43
   3   6   8   16.50    9.62
  -3  -6  -7  103.08   11.56
   3   6   7  104.52   11.86
  -4  -6 -11   16.59   11.87
   4   6  11  -10.75   11.76
  -4  -6 -10    8.37   11.10
   4   6  10   13.80   11.81
  -4  -6  -9   21.99   10.10
   4   6   9   15.10   10.23
  -4  -6  -8   -0.13    9.64
   4   6   8    5.29    9.84
   4   6   7   86.55   11.54
  -5  -6 -11  115.12   14.46
   5   6  11  125.64   14.94
  -5  -6 -10    8.05   11.12
   5   6  10    0.22   11.34
  -5  -6  -9   30.60   10.76
   5   6   9   -0.22   10.47
  -5  -6  -8   -9.94    9.19
   5   6   8    5.13   10.05
  -6  -6 -11   31.32   11.62
   6   6  11   12.80   11.80
  -6  -6 -10    7.09   11.60
   6   6  10    8.36   11.74
  -6  -6  -9   -0.17   10.77
   6   6   9   10.84   11.27
   6   6   8   23.06   10.13
  -7  -6 -11   19.49   11.45
   7   6  11   23.23   11.40
  -7  -6 -10    4.56   11.92
   7   6  10   31.35   12.27
  -7  -6  -9    9.94   11.29
   7   6   9   17.47   11.13
  -8  -6 -10   56.32   13.21
   8   6  10   68.09   13.17
  -8  -6  -9   11.40   11.44
   8   6   9    4.71   11.99
  -9  -6 -10   -6.17   11.40
   9   6  10    7.23   11.46
   9   6   9    4.24   12.22
 -10  -6 -10    4.72   11.66
  10   6  10   32.47   11.92
  17  -7   1   15.91   10.41
  17  -7   2    1.98   10.20
 -17   7  -2    7.42   11.06
  17  -7   3   53.15   11.88
 -17   7  -3   67.90   12.61
  16  -7   1   96.96   12.95
 -16   7  -1   85.19   13.26
  16  -7   2   11.81   11.00
 -16   7  -2    2.67   12.05
  16  -7   3   -8.09   11.22
 -16   7  -3   -0.49   11.89
  16  -7   4    9.18   10.95
 -16   7  -4  -11.84   11.58
  16  -7   5   -3.30   10.87
 -16   7  -5    3.93   11.53
  15  -7   1   -2.57   10.57
 -15   7  -1  -11.18   10.60
  15  -7   2   20.48   11.01
 -15   7  -2    8.04   12.11
  15  -7   3   32.29   11.77
 -15   7  -3    8.39   12.53
  15  -7   4   22.33   11.66
 -15   7  -4   28.93   12.77
  15  -7   5    4.92   12.44
 -15   7  -5   -4.52   13.03
  15  -7   6   -1.72   11.60
 -15   7  -6    5.22   11.76
  14  -7   0   74.77   11.02
  14  -7   1   26.48   10.19
 -14   7  -1   14.61   10.55
  14  -7   2   -1.94    9.72
 -14   7  -2   -3.22   10.72
  14  -7   3   18.65   10.94
 -14   7  -3   -8.88   11.95
  14  -7   4   26.19   12.11
 -14   7  -4   39.27   13.08
  14  -7   5   25.43   12.56
 -14   7  -5   12.17   13.08
  14  -7   6   30.92   12.40
 -14   7  -6   26.44   13.15
  14  -7   7   25.93   12.06
 -14   7  -7   -4.24   12.20
  13  -7   0    2.80    8.86
 -13   7   0   11.15    9.16
  13  -7   1   -2.02    9.31
 -13   7  -1   11.11   10.01
  13  -7   2   31.35   10.02
 -13   7  -2   20.00   11.09
  13  -7   3    2.22   10.50
 -13   7  -3   13.56   11.56
  13  -7   4  117.85   14.06
 -13   7  -4  122.15   14.92
  13  -7   5    1.20   11.86
 -13   7  -5    4.87   11.92
  13  -7   6    3.96   12.77
 -13   7  -6   -5.60   13.03
  13  -7   7    8.86   12.12
 -13   7  -7   12.48   12.75
  13  -7   8  -13.78   11.76
  12  -7  -1   -1.86    7.86
  12  -7   0  342.99   20.17
 -12   7   0  283.94   17.92
  12  -7   1   -3.22    9.05
 -12   7  -1    5.49    9.75
  12  -7   2   74.64   11.10
 -12   7  -2   65.92   11.59
  12  -7   3   17.74   10.10
 -12   7  -3    9.65   10.98
  12  -7   4   38.26   11.19
 -12   7  -4   38.88   12.11
  12  -7   5   -7.51   11.12
 -12   7  -5  -12.76   11.17
  12  -7   6   42.09   12.96
 -12   7  -6   63.17   13.90
  12  -7   7   13.46   12.58
  12  -7   8   59.21   14.05
 -12   7  -8   79.79   14.85
  11  -7  -1    0.98    8.39
 -11   7   1   -0.74    7.82
  11  -7   1   11.09    9.26
 -11   7  -1   -2.00    9.26
  11  -7   2   28.45    9.68
 -11   7  -2   19.91    9.88
  11  -7   3   -1.14    9.68
 -11   7  -3   29.05   10.97
  11  -7   4   -0.77   10.13
 -11   7  -4  -12.04   10.41
  11  -7   5   19.55   10.72
 -11   7  -5   41.03   11.88
  11  -7   6    1.29   11.49
 -11   7  -6    0.94   11.69
  11  -7   7    0.64   12.51
  11  -7   8   10.44   12.70
 -11   7  -8   25.57   13.53
  11  -7   9    6.96   11.31
 -11   7  -9  -13.70   12.35
  10  -7  -1   17.34    7.92
 -10   7   1   13.80    8.14
  10  -7   0   25.44    8.74
 -10   7   0   -3.06    8.76
  10  -7   1   24.91    9.55
 -10   7  -1   22.92    9.51
  10  -7   2    0.22    9.66
 -10   7  -2    0.35   10.10
  10  -7   3    5.73    9.80
 -10   7  -3   14.04   10.66
  10  -7   4   -9.89   10.16
 -10   7  -4    9.82   10.94
  10  -7   5   -9.30   10.30
 -10   7  -5   -2.22   10.83
  10  -7   6  -13.84   10.59
 -10   7  -6   -3.73   10.05
  10  -7   7   17.33   11.61
 -10   7  -7   10.01   12.25
  10  -7   8   28.42   12.65
 -10   7  -8    5.39   12.99
  10  -7   9    6.07   12.47
 -10   7  -9   14.16   12.85
   9  -7  -2    2.94    7.10
  -9   7   2   -1.78    7.24
   9  -7  -1   81.16    9.59
  -9   7   1   83.11   10.05
   9  -7   0   -4.04    8.64
  -9   7   0    4.40    9.00
   9  -7   1   86.34   11.49
  -9   7  -1   62.08   11.02
   9  -7   2   14.48    9.90
  -9   7  -2    5.47   10.03
   9  -7   3  182.59   15.25
  -9   7  -3  168.41   15.09
   9  -7   4   16.41   10.39
  -9   7  -4   -9.18   10.70
   9  -7   5  257.44   18.32
  -9   7  -5  310.44   20.76
   9  -7   6  -10.47   10.39
   9  -7   7   67.33   12.47
  -9   7  -7   53.51   13.05
   9  -7   8    2.48   12.58
  -9   7  -8   10.45   12.61
   9  -7   9   -5.87   12.34
  -9   7  -9    6.59   12.87
   9  -7  10    6.03   11.73
  -9   7 -10    7.54   12.16
   8  -7  -2    2.43    6.72
  -8   7   2   13.05    7.40
   8  -7  -1   42.73    8.50
  -8   7   1   29.60    8.95
   8  -7   0   33.46    9.60
  -8   7   0   26.69    9.94
   8  -7   1   58.75   10.58
  -8   7  -1   50.67   11.19
   8  -7   2    0.74   10.43
  -8   7  -2    4.56   10.65
   8  -7   3    3.59    9.89
  -8   7  -3   22.12   11.43
   8  -7   4   23.75   10.88
  -8   7  -4   19.87   10.60
   8  -7   5  102.04   12.92
  -8   7  -5   97.72   13.04
   8  -7   6    5.20   10.25
  -8   7  -6   13.39   10.82
   8  -7   7   27.16   11.04
  -8   7  -7   21.96   11.48
   8  -7   8    1.67   11.59
  -8   7  -8    2.05   12.53
   8  -7   9   30.18   13.30
  -8   7  -9   74.42   14.92
   8  -7  10   10.18    8.39
  -8   7 -10   -5.23   12.72
   7  -7 -11   18.67    8.43
   7  -7 -10    5.51    7.93
   7  -7  -3   20.00    5.47
  -7   7   3   26.77    5.53
   7  -7  -2    6.67    6.74
  -7   7   2    9.93    7.33
   7  -7   0    0.50    9.55
  -7   7   0  -16.03    9.45
   7  -7   1  101.02   11.75
  -7   7  -1   94.28   11.96
   7  -7   2   15.25   10.63
  -7   7  -2    9.45   11.56
   7  -7   3   23.79   10.62
  -7   7  -3   31.79   11.69
   7  -7   4   16.06   10.59
  -7   7  -4   20.41   11.17
   7  -7   5  145.63   14.54
   7  -7   6   21.23   11.18
  -7   7  -6   29.50   11.47
   7  -7   7    9.67   10.34
  -7   7  -7   -6.54   11.12
   7  -7   8    2.99   10.81
  -7   7  -8   -6.60   11.31
   7  -7   9    7.25   12.05
  -7   7  -9   -8.18   12.48
  -7   7 -10   -9.66   12.44
   6  -7 -11    2.57    7.78
  -6   7  11   -9.98    7.45
   6  -7 -10   14.92    7.98
  -6   7  10   21.23    8.00
   6  -7  -9   -1.15    7.03
  -6   7   9   13.71    7.33
   6  -7  -8   23.83    6.16
  -6   7   8   31.85    6.30
   6  -7  -7   10.68    4.82
   6  -7  -3   17.81    4.95
  -6   7   3    6.17    5.01
   6  -7  -2  125.06    9.17
  -6   7   2  110.57    9.14
   6  -7  -1    0.22    7.85
  -6   7   1    9.18    8.26
   6  -7   0   15.88    9.09
  -6   7   0   14.67    9.48
   6  -7   1    7.47   10.02
  -6   7  -1    9.39   10.50
   6  -7   2   79.10   12.26
  -6   7  -2  113.73   13.60
   6  -7   3   -4.04   11.22
  -6   7  -3    3.57   11.68
   6  -7   4   11.27   10.91
  -6   7  -4   12.76   11.46
   6  -7   5   14.33   10.44
   6  -7   6    5.20   10.40
  -6   7  -6   -3.75   11.03
   6  -7   7   19.79   10.54
  -6   7  -7   20.80   10.94
   6  -7   8   20.86   11.09
  -6   7  -8   44.14   11.92
   6  -7   9   10.10   11.05
  -6   7  -9    8.91   12.31
   6  -7  10   18.17   13.23
  -6   7 -10   15.00   12.96
   6  -7  11    1.87   11.45
  -6   7 -11   -3.74   12.15
   5  -7 -11    7.61    8.38
  -5   7  11   16.40    8.41
   5  -7 -10   19.60    8.41
  -5   7  10    0.08    8.31
   5  -7  -9    5.31    6.97
  -5   7   9   -2.59    7.07
   5  -7  -8   77.00    7.85
  -5   7   8   63.94    7.75
   5  -7  -7   18.79    5.60
  -5   7   7    6.92    5.80
  -5   7   6   28.27    5.11
   5  -7  -5   23.20    3.72
  -5   7   5   29.42    4.02
   5  -7  -3   37.40    4.50
  -5   7   3   47.75    4.85
   5  -7  -2   37.56    6.29
  -5   7   2   47.23    6.74
   5  -7  -1    8.90    7.64
  -5   7   1   13.77    7.61
   5  -7   0   18.33    8.93
  -5   7   0   -7.92    9.27
   5  -7   1    5.38    9.81
  -5   7  -1   31.24   10.36
   5  -7   2   44.18   11.04
  -5   7  -2   43.62   11.53
   5  -7   3   35.31   11.38
  -5   7  -3   69.57   13.01
   5  -7   4   27.23   11.19
   5  -7   5   19.75   10.55
  -5   7  -5   22.84   11.15
   5  -7   6   30.82   10.77
  -5   7  -6   24.98   10.60
   5  -7   8   77.94   12.55
  -5   7  -8   83.96   12.78
  -5   7  -9   -6.95   11.70
   5  -7  10    6.94   12.73
  -5   7 -10    0.17   12.67
   5  -7  11   21.29   11.95
  -5   7 -11   15.20   12.69
   4  -7 -11    5.58    8.91
  -4   7  11    7.29    8.39
   4  -7  -9   -6.44    7.38
  -4   7   9   12.04    7.38
   4  -7  -8  236.99   13.92
  -4   7   8  229.90   13.61
   4  -7  -7    6.61    5.78
  -4   7   7    4.54    6.40
  -4   7   6  118.20    8.28
   4  -7  -5   -5.93    4.61
  -4   7   5    7.94    4.89
   4  -7   0  644.25   31.24
  -4   7   0  604.73   29.72
   4  -7   1   23.71    9.70
  -4   7  -1   29.29   10.36
   4  -7   2  565.56   29.49
  -4   7  -2  542.90   28.65
   4  -7   3   -1.41   11.12
  -4   7  -3   -2.06   11.24
   4  -7   4    7.64   10.79
   4  -7   5  -10.73   10.40
  -4   7  -5    3.09   10.93
   4  -7   6  113.31   13.34
  -4   7  -6  119.25   13.46
   4  -7   7    3.38   10.23
  -4   7  -7    8.72   10.67
   4  -7   8  171.43   15.69
  -4   7  -8  182.94   16.09
   4  -7   9   12.19   10.82
  -4   7  -9    9.25   11.65
   4  -7  10  151.91   16.52
  -4   7 -10  160.63   16.88
   3  -7 -11    7.17    9.11
  -3   7  11   19.41    9.11
   3  -7 -10   14.17    8.96
  -3   7  10   19.62    9.12
   3  -7  -9   16.38    7.87
  -3   7   9    1.08    7.64
   3  -7  -8   -8.00    7.00
  -3   7   8   16.84    7.05
   3  -7  -7   22.64    6.68
  -3   7   7    4.70    7.01
   3  -7  -6   27.30    6.17
  -3   7   6   34.54    6.75
  -3   7   5   25.40    5.94
  -3   7  -3   16.05    8.73
   3  -7   5    5.60   10.95
  -3   7  -5  -11.70   11.24
   3  -7   6   66.01   11.94
  -3   7  -6   40.69   10.93
   3  -7   7   22.92   10.11
  -3   7  -7   14.03   10.70
  -3   7  -8    7.14   10.86
   3  -7   9    3.31   10.45
  -3   7  -9   -2.75   10.81
   3  -7  10    7.68   12.12
  -3   7 -10    4.42   11.99
   3  -7  11   43.27   12.41
  -3   7 -11   15.32   11.92
   2  -7 -11   -3.07    9.10
  -2   7  11   25.31    9.83
   2  -7 -10   -1.10    9.29
  -2   7  10    4.04    8.72
   2  -7  -9    7.31    8.29
  -2   7   9   10.70    8.54
   2  -7  -8   32.82    7.83
  -2   7   8    8.66    7.96
   2  -7  -7   -1.84    6.88
  -2   7   7   12.45    7.42
   2  -7  -6    0.37    6.87
  -2   7   6   -0.45    6.99
   2  -7   7    1.96    9.61
  -2   7  -7   -1.30   10.15
  -2   7  -8   24.31   11.04
   2  -7   9   11.90   10.69
  -2   7  -9    4.89   10.39
   2  -7  10    5.75   11.46
  -2   7 -10    4.39   11.34
   2  -7  11    8.03   11.97
  -2   7 -11    3.35   11.72
   1  -7 -11   41.97   10.95
  -1   7  11   58.15   11.76
   1  -7 -10   10.02    9.82
  -1   7  10    9.57    9.77
   1  -7  -9    9.77    8.58
  -1   7   9   14.73    9.14
   1  -7  -8    6.15    7.80
  -1   7   8   17.21    8.36
   1  -7  -7   66.83    8.66
  -1   7   7   61.46    8.86
  -1   7 -10   -4.04   11.51
   1  -7  11   46.20   12.48
  -1   7 -11   44.96   12.19
   0  -7 -11   27.30   10.83
   0   7  11   43.95   11.18
   0  -7 -10    8.80    9.62
   0   7  10   -4.08   10.23
   0  -7  -9   13.80    8.81
   0   7   9   10.20    9.05
   0  -7  -8  -11.90    8.12
   0   7   8   12.75    8.67
   0  -7  -7  141.80   11.44
   0   7   7  147.84   11.97
  -1  -7 -11   47.69   11.30
   1   7  11   56.42   11.88
  -1  -7 -10   -3.16   10.12
   1   7  10    9.15   10.31
  -1  -7  -9   13.11    9.43
   1   7   9   42.19   10.01
  -1  -7  -8   24.77    8.41
   1   7   8   17.39    8.64
  -1  -7  -7   63.89    9.34
   1   7   7   44.27    9.17
  -2  -7 -11   13.69   11.01
   2   7  11   20.43   11.19
  -2  -7 -10   15.93   10.27
   2   7  10    5.08   10.81
  -2  -7  -9   18.72    9.70
   2   7   9   20.13    9.64
  -2  -7  -8    6.94    8.84
   2   7   8   12.61    9.05
   2   7   7   -4.16    9.11
  -3  -7 -11   34.75   11.76
   3   7  11   39.23   11.82
  -3  -7 -10   11.12   10.63
   3   7  10   18.46   10.80
  -3  -7  -9   10.97    9.47
   3   7   9   18.00    9.70
  -3  -7  -8    5.87    8.90
   3   7   8   13.74    9.46
  -4  -7 -11    1.88   11.01
   4   7  11   -0.45   11.22
  -4  -7 -10  121.92   13.88
   4   7  10  119.71   13.82
  -4  -7  -9  -12.15    9.76
   4   7   9  -17.18   10.23
   4   7   8  180.04   14.62
  -5  -7 -11   17.92   11.32
   5   7  11   10.86   11.05
  -5  -7 -10   13.58   11.75
   5   7  10   12.70   11.11
  -5  -7  -9   -3.66   10.27
   5   7   9  -13.83   10.19
  -6  -7 -11    9.25   10.79
   6   7  11   -8.86   10.61
  -6  -7 -10   12.37   11.54
   6   7  10  -10.70   11.37
  -6  -7  -9   10.25   10.53
   6   7   9   28.15   11.26
  -7  -7 -10   10.57   11.45
   7   7  10   17.35   11.97
   7   7   9   -5.99   10.50
  -8  -7 -10   15.45   11.51
   8   7  10   17.05   11.86
   9   7  10  -15.35   11.34
  17  -8   1    0.70   10.29
 -17   8  -1    2.88   10.37
  17  -8   2   33.68   10.47
 -17   8  -2   40.40   12.09
  16  -8   0   18.43   10.13
  16  -8   1   88.84   12.54
 -16   8  -1   83.25   13.18
  16  -8   2   31.27   11.02
 -16   8  -2   11.04   12.02
  16  -8   3    5.56   10.75
 -16   8  -3   28.07   11.55
  16  -8   4   38.56   11.67
 -16   8  -4   27.28   12.24
  15  -8   0   10.36   10.03
 -15   8   0    9.83   10.66
  15  -8   1  105.65   12.97
 -15   8  -1   79.60   13.04
  15  -8   2    0.50   10.83
 -15   8  -2    4.22   12.13
  15  -8   3   29.87   12.11
 -15   8  -3    0.02   12.56
  15  -8   4    3.20   11.65
 -15   8  -4    7.73   12.52
  14  -8  -1   11.87    9.33
  14  -8   0    3.93    9.76
 -14   8   0    4.13    9.74
  14  -8   1   16.23   10.17
 -14   8  -1    3.28   10.97
  14  -8   2   34.03   10.90
 -14   8  -2   28.72   12.16
  14  -8   3  353.79   22.85
 -14   8  -3  338.22   23.19
  14  -8   4   -6.62   11.51
 -14   8  -4  -14.70   12.68
  14  -8   6   -7.46   12.22
 -14   8  -6   -1.78   12.15
  13  -8   0   15.61    9.21
 -13   8   0   14.67    9.47
  13  -8   1  174.34   14.51
 -13   8  -1  179.57   15.11
  13  -8   2   93.27   12.08
 -13   8  -2   84.32   12.70
  13  -8   3  256.98   18.53
 -13   8  -3  239.89   18.57
  13  -8   5    5.96   11.82
 -13   8  -5    6.00   12.81
  13  -8   6   43.45   12.90
 -13   8  -6   42.68   13.65
  13  -8   7   12.48   11.54
 -13   8  -7   12.12   12.70
  12  -8  -2  157.02   11.95
  12  -8   0   30.17    9.04
 -12   8   0   51.80    9.90
  12  -8   1  230.59   16.20
 -12   8  -1  252.10   17.50
  12  -8   2  165.86   14.39
 -12   8  -2  217.93   16.57
  12  -8   3  144.35   14.11
 -12   8  -3  167.60   15.76
  12  -8   4  158.42   15.20
 -12   8  -4  159.23   16.23
  12  -8   5  106.34   14.02
 -12   8  -5  149.12   16.45
  12  -8   6   -1.45   11.98
 -12   8  -6   20.11   13.35
  12  -8   7   43.62   13.95
 -12   8  -7   59.37   14.27
  12  -8   8   33.16   12.16
  11  -8  -2   66.03    8.74
 -11   8   2   72.33    8.58
  11  -8  -1   14.09    7.93
 -11   8   1   12.06    8.17
  11  -8   0    5.75    8.52
 -11   8   0    8.28    8.89
  11  -8   1   10.39    9.40
 -11   8  -1    0.96    9.16
  11  -8   2   87.46   11.62
 -11   8  -2   86.81   11.99
  11  -8   3   14.38   10.03
 -11   8  -3    5.23   10.60
  11  -8   4    8.29   10.94
 -11   8  -4   32.25   11.63
  11  -8   5    8.61   11.01
 -11   8  -5   13.45   11.55
  11  -8   6   83.57   13.30
 -11   8  -6   91.16   14.60
  11  -8   7   -0.44   12.29
 -11   8  -7   17.88   12.31
  11  -8   8   42.62   12.98
 -11   8  -8   32.74   13.04
  10  -8  -2    6.78    7.04
 -10   8   2    4.34    6.86
  10  -8  -1   19.10    7.66
 -10   8   1    6.13    7.73
  10  -8   0   10.39    8.36
 -10   8   0   17.04    8.69
  10  -8   1   27.03    9.29
 -10   8  -1   12.55    9.37
  10  -8   2    4.95    9.32
 -10   8  -2    9.22   10.33
  10  -8   3    4.02    9.87
 -10   8  -3  -12.48   10.68
  10  -8   4   29.59   10.69
 -10   8  -4   49.27   11.65
  10  -8   5    6.44   10.24
 -10   8  -5   29.39   11.22
  10  -8   6  137.96   15.10
 -10   8  -6  118.44   14.55
  10  -8   7    5.49   12.08
  10  -8   8    5.28   12.72
 -10   8  -8   17.57   13.66
  10  -8   9   -6.87   11.56
 -10   8  -9   -9.23   12.44
   9  -8  -3   14.44    5.95
  -9   8   3    9.40    5.96
   9  -8  -2   52.28    7.61
  -9   8   2   58.03    7.74
   9  -8  -1   -6.85    8.29
  -9   8   1    8.10    7.76
   9  -8   0    9.03    8.95
  -9   8   0   -5.14    8.79
   9  -8   1   -3.24    9.01
  -9   8  -1    2.91    9.15
   9  -8   2   49.63   10.66
  -9   8  -2   88.46   11.95
   9  -8   5   22.19   10.36
  -9   8  -5   20.17   10.68
   9  -8   6   91.31   12.73
  -9   8  -6   85.97   13.51
   9  -8   7    8.02   11.72
   9  -8   8  227.11   19.32
  -9   8  -8  209.79   19.10
   9  -8   9   -3.64   12.37
  -9   8  -9   17.85   12.97
   8  -8  -3  130.41    8.90
  -8   8   3  109.71    8.37
   8  -8  -2   23.78    7.01
  -8   8   2   32.95    7.50
   8  -8  -1   36.95    8.62
  -8   8   1   18.10    8.52
   8  -8   0  601.59   30.31
  -8   8   0  576.72   29.38
   8  -8   1   18.70    9.70
  -8   8  -1   35.88    9.57
   8  -8   2   50.14   10.57
  -8   8  -2   24.76   10.26
   8  -8   3  110.56   12.87
  -8   8  -3  144.93   14.24
   8  -8   4  150.75   14.18
  -8   8  -4  197.47   16.07
   8  -8   5  208.39   16.41
  -8   8  -5  235.94   18.13
   8  -8   6  128.66   13.80
   8  -8   7   43.75   11.51
  -8   8  -7   45.43   12.46
   8  -8   8   75.48   13.91
  -8   8  -8   86.09   14.68
   8  -8   9   -6.39   12.70
  -8   8  -9   -3.05   12.67
   8  -8  10   21.26   12.13
  -8   8 -10   17.13   12.44
   7  -8 -10  156.79   11.29
  -7   8  10  135.75   10.53
   7  -8  -9   16.77    6.92
   7  -8  -4  154.81    8.33
   7  -8  -3  298.82   15.20
  -7   8   3  274.88   14.32
   7  -8  -2   34.44    6.90
  -7   8   2   29.39    7.47
   7  -8  -1  170.39   12.13
  -7   8   1  214.09   14.02
   7  -8   0   -2.50    8.80
  -7   8   0    5.96    9.09
   7  -8   2   60.31   11.03
  -7   8  -2   32.38   10.47
   7  -8   3  302.19   19.40
  -7   8  -3  241.17   18.00
   7  -8   4  231.87   16.99
  -7   8  -4  210.60   16.63
   7  -8   5   39.26   10.62
  -7   8  -5   72.96   12.25
   7  -8   6    9.07   10.01
   7  -8   7    7.44   10.00
  -7   8  -7   11.83   11.38
   7  -8   8   28.91   12.01
  -7   8  -8   35.89   12.62
   7  -8   9   26.21   12.52
  -7   8  -9   22.48   13.06
   7  -8  10  134.24   15.98
  -7   8 -10  164.34   17.83
   6  -8 -10   15.13    7.44
  -6   8  10   12.51    7.69
   6  -8  -9  204.91   12.90
  -6   8   9  202.35   12.85
   6  -8  -8   37.70    6.17
  -6   8   8   27.45    6.43
  -6   8   7  404.59   19.61
   6  -8  -6   15.25    3.65
  -6   8   6   15.16    3.82
   6  -8  -4   35.80    3.39
  -6   8   4   34.57    3.63
   6  -8  -3  182.13    9.96
  -6   8   3  193.52   10.58
   6  -8  -2   10.74    6.32
  -6   8   2   16.21    6.80
   6  -8  -1   10.03    7.67
  -6   8   1   29.64    8.33
   6  -8   0   72.00   10.25
  -6   8   0   53.60    9.82
   6  -8   1   28.10    9.72
  -6   8  -1   21.75   10.43
   6  -8   2    2.52   10.34
  -6   8  -2    7.50   11.02
   6  -8   3  209.21   15.83
  -6   8  -3  256.63   18.32
   6  -8   4   17.31   10.72
  -6   8  -4   20.53   11.00
   6  -8   5   29.27   10.79
  -6   8  -5   11.34    7.03
   6  -8   6   16.43   10.72
  -6   8  -6   11.89   11.00
   6  -8   7  459.68   26.98
  -6   8  -7  517.21   29.72
   6  -8   8   25.24   11.49
  -6   8  -8   38.73   12.01
   6  -8   9  245.01   19.63
  -6   8  -9  227.11   19.69
  -6   8 -10   13.41   12.70
   5  -8 -11    9.98    7.85
  -5   8  11    4.23    7.69
   5  -8 -10   -2.34    8.09
  -5   8  10   16.76    8.08
   5  -8  -9  107.04    9.72
  -5   8   9   92.16    9.25
   5  -8  -8   15.56    6.22
  -5   8   8   13.62    6.58
   5  -8  -7  318.00   15.96
  -5   8   7  302.89   15.66
   5  -8  -6   17.69    4.53
  -5   8   6   13.12    4.56
  -5   8   5  484.55   22.29
  -5   8   2   25.24    6.54
   5  -8  -1   56.64    8.37
  -5   8   1   73.92    8.95
   5  -8   0   11.36    8.73
  -5   8   0    4.42    8.88
   5  -8   1   53.07   10.04
  -5   8  -1   78.37   11.29
   5  -8   2   13.40   10.60
  -5   8  -2   -4.77   11.08
   5  -8   3  112.34   12.92
  -5   8  -3  124.48   13.87
   5  -8   4   11.29   10.43
  -5   8  -4   37.92   11.55
   5  -8   5  431.78   25.02
   5  -8   6    2.50   10.30
  -5   8  -6   13.05   10.80
   5  -8   7  281.50   19.70
  -5   8  -7  302.54   20.67
   5  -8   8    7.42   10.81
  -5   8  -8    3.43   11.11
   5  -8   9   55.73   13.45
  -5   8  -9   77.04   13.84
  -5   8 -10   13.44   12.67
   5  -8  11    4.74   11.32
  -5   8 -11    4.60   11.68
   4  -8 -11    1.10    8.30
  -4   8  11    8.97    8.26
   4  -8 -10   17.62    8.46
  -4   8  10    8.43    8.55
   4  -8  -9   30.89    7.57
  -4   8   9   42.11    8.15
   4  -8  -8   10.90    6.68
  -4   8   8   12.56    6.71
  -4   8   6   25.93    5.67
   4  -8   2   16.60   10.45
  -4   8  -2   23.48   10.90
   4  -8   3  979.44   47.50
  -4   8  -3 1074.87   51.85
   4  -8   4   24.15   11.05
  -4   8  -4   19.15    9.01
   4  -8   5  391.10   23.01
  -4   8  -5  420.39   24.91
   4  -8   6   52.84   10.94
  -4   8  -6   16.16   10.46
   4  -8   8   15.07   10.88
  -4   8  -8    8.86   10.83
  -4   8  -9   17.40   11.96
   4  -8  10   -2.03   12.22
  -4   8 -10   31.31   13.05
   4  -8  11   10.17   11.15
  -4   8 -11   30.44   12.54
   3  -8 -11    9.57    8.52
  -3   8  11   -7.85    8.48
   3  -8 -10    3.68    9.14
  -3   8  10    5.02    8.38
   3  -8  -9   39.71    8.48
  -3   8   9   29.80    8.71
   3  -8  -8   36.70    7.58
  -3   8   8   50.84    7.97
   3  -8  -7   16.60    6.18
  -3   8   7   15.70    6.80
   3  -8  -6    9.36    5.40
  -3   8   6    7.76    6.14
  -3   8  -5   82.74   12.49
   3  -8   6    6.13   10.31
  -3   8  -6    0.65   10.01
   3  -8   7   14.51   10.39
  -3   8  -7   22.11   10.73
   3  -8   8   31.23   11.01
  -3   8  -8   35.69   11.16
  -3   8  -9    4.58   11.62
   3  -8  10    7.57   11.99
  -3   8 -10   15.04   12.37
   3  -8  11   10.13   11.70
  -3   8 -11   23.38   11.81
   2  -8 -11    6.99    9.38
  -2   8  11   35.48    9.90
   2  -8 -10   10.05    9.60
  -2   8  10   36.22   10.13
   2  -8  -9  100.57   10.70
  -2   8   9  110.24   10.93
   2  -8  -8   13.49    7.17
  -2   8   8   11.84    7.58
   2  -8  -7   70.74    8.08
  -2   8   7   69.13    8.05
  -2   8  -8   23.06   10.24
   2  -8   9   94.82   14.32
  -2   8  -9   93.59   13.61
   2  -8  10   13.59   11.65
  -2   8 -10   10.59   12.10
   2  -8  11    9.02   11.25
  -2   8 -11  -16.23   10.77
   1  -8 -11   -0.78    9.53
  -1   8  11   10.24    9.79
   1  -8 -10   49.92   10.25
  -1   8  10   45.07   10.52
   1  -8  -9   25.36    8.72
  -1   8   9   13.65    8.69
   1  -8  -8  964.45   45.55
  -1   8   8  901.34   42.85
   1  -8  -7   94.52    9.22
  -1   8   7  107.11    9.72
  -1   8 -11   14.16   11.17
   0  -8 -11    4.80    9.61
   0   8  11   -2.48   10.20
   0  -8 -10   72.37   11.22
   0   8  10   89.34   12.02
   0  -8  -9    0.48    8.64
   0   8   9    0.95    9.11
   0  -8  -8   92.33   10.09
   0   8   8   94.82   10.43
   0   8   7    1.89    7.58
  -1  -8 -11    6.88   10.13
   1   8  11    5.53   10.37
  -1  -8 -10   65.63   11.39
   1   8  10   65.61   11.74
  -1  -8  -9    6.30    9.11
   1   8   9   21.04    9.48
  -1  -8  -8  877.40   42.31
   1   8   8  980.61   46.82
  -2  -8 -11   21.66   10.47
   2   8  11   24.59   10.53
  -2  -8 -10   28.14   10.59
   2   8  10    3.80   10.39
  -2  -8  -9  114.97   12.18
   2   8   9   97.29   11.63
   2   8   8    1.30    8.60
  -3  -8 -11    6.42   10.25
   3   8  11   29.73   10.86
  -3  -8 -10   29.25   10.65
   3   8  10   16.57   10.76
  -3  -8  -9   47.80   10.46
   3   8   9   23.61   10.02
  -4  -8 -11   20.68   10.65
   4   8  11   18.17   10.34
  -4  -8 -10    9.48   11.19
   4   8  10   27.14   11.26
  -4  -8  -9   32.76   10.80
   4   8   9   18.60   10.22
  -5  -8 -10   -2.49   11.18
   5   8  10   22.39   11.62
   5   8   9   50.11   11.63
  -6  -8 -10   40.23   11.94
   6   8  10   27.14   11.45
   7   8  10  127.97   14.39
 -17   9   0    0.05   10.07
  16  -9  -1    0.38    9.10
  16  -9   0    7.45    9.91
 -16   9   0   -1.76   10.08
  16  -9   1   17.25    9.93
 -16   9  -1   27.73   11.13
  16  -9   2    0.62   10.00
 -16   9  -2   11.94   11.38
  16  -9   3   -3.49   10.45
 -16   9  -3   13.71   11.29
  15  -9  -1    2.08    9.32
 -15   9   1   10.40    9.73
  15  -9   0    1.84    9.88
 -15   9   0   16.77   11.37
  15  -9   1   -4.43   10.52
 -15   9  -1   -2.01   11.45
  15  -9   2   26.17   11.25
 -15   9  -2   10.26   12.15
  15  -9   3   21.50   11.40
 -15   9  -3   -6.85   12.38
  15  -9   4   19.35   11.51
 -15   9  -4   20.13   12.22
  15  -9   5    0.70   11.17
 -15   9  -5  -14.77   11.72
  14  -9  -2    6.74    8.72
  14  -9  -1   -0.37    9.16
 -14   9   1   15.03    9.75
  14  -9   0    8.62    9.80
 -14   9   0   -0.83   10.33
  14  -9   1   -9.00   10.82
 -14   9  -1   22.21   11.58
  14  -9   2   12.22   11.19
 -14   9  -2    6.00   12.60
  14  -9   3   12.61   11.81
 -14   9  -3   -3.64   12.51
  14  -9   4   29.22   12.85
 -14   9  -4    6.45   13.02
  14  -9   5   15.59   11.96
 -14   9  -5   -7.61   11.98
  14  -9   6    8.84   11.12
 -14   9  -6   -4.79   11.74
  13  -9  -2    7.73    8.50
 -13   9   2   18.02    8.23
  13  -9  -1    4.90    9.02
 -13   9   1   26.71    9.32
  13  -9   0    7.81    9.07
 -13   9   0   11.39    9.59
  13  -9   1   14.35   10.45
 -13   9  -1   24.77   10.82
  13  -9   2    2.74   10.70
 -13   9  -2    5.24   11.02
  13  -9   3   22.82   11.34
 -13   9  -3   22.36   12.48
  13  -9   4    9.76   11.72
 -13   9  -4   25.70   12.99
  13  -9   5   20.34   12.24
 -13   9  -5    1.53   13.01
  13  -9   6   21.01   12.19
 -13   9  -6   -2.42   12.52
  13  -9   7  -14.25   10.81
 -13   9  -7   -9.31   12.05
  12  -9  -2    5.10    8.05
 -12   9   2    8.94    7.54
  12  -9  -1   -4.21    8.47
 -12   9   1   13.31    8.88
  12  -9   0    6.51    8.52
 -12   9   0   -9.09    9.08
  12  -9   1   -5.95    9.61
 -12   9  -1  -11.77    9.70
  12  -9   2   -5.18    9.62
 -12   9  -2    3.05   10.62
  12  -9   3   -5.04   10.10
 -12   9  -3   -5.17   11.15
  12  -9   4   25.35   11.81
 -12   9  -4   21.29   12.03
  12  -9   5   21.11   12.23
 -12   9  -5   -7.17   13.19
  12  -9   6   11.68   11.45
 -12   9  -6   -2.21   13.11
  11  -9  -3   13.63    6.95
 -11   9   3   10.15    6.56
  11  -9  -2   -7.35    7.32
 -11   9   2    0.07    7.33
  11  -9  -1   19.75    8.21
 -11   9   1   15.86    8.23
  11  -9   0   -7.00    8.46
 -11   9   0   -2.00    8.78
  11  -9   1    9.17    8.89
 -11   9  -1    8.00    9.76
  11  -9   2   10.95    9.47
 -11   9  -2   -5.63   10.17
  11  -9   3   20.50   10.34
 -11   9  -3   40.87   11.53
  11  -9   4    2.99   10.67
 -11   9  -4   14.70   11.65
  11  -9   5   14.32   10.91
 -11   9  -5    1.10   11.48
  11  -9   6    6.69   11.88
 -11   9  -6   17.89   12.52
  11  -9   7    2.36   12.31
 -11   9  -7    0.48   12.46
  11  -9   8    3.73   11.75
  10  -9  -3   14.23    6.18
 -10   9   3    9.43    6.37
  10  -9  -2   -4.16    7.00
 -10   9   2   -2.16    6.99
  10  -9  -1    2.29    7.73
 -10   9   1   -2.16    7.90
  10  -9   0   -4.53    8.35
 -10   9   0    9.27    8.71
  10  -9   1    4.87    9.09
 -10   9  -1    2.92    9.18
  10  -9   2   -2.64    9.68
 -10   9  -2    4.10   10.45
  10  -9   3    0.30    9.59
 -10   9  -3   27.41   10.33
  10  -9   4    6.00   10.52
 -10   9  -4   -1.65   10.45
  10  -9   5    6.07   10.74
 -10   9  -5    7.29   11.47
  10  -9   6   16.34   12.06
 -10   9  -6   -3.77   12.10
  10  -9   7   17.14   12.45
 -10   9  -7   10.77   13.09
  10  -9   8    8.23   12.47
  10  -9   9    5.74   12.31
 -10   9  -9   38.68   13.06
   9  -9  -4    3.22    5.08
   9  -9  -3   10.16    5.90
  -9   9   3   -2.73    6.21
   9  -9  -2    2.35    6.54
  -9   9   2   16.70    6.89
   9  -9  -1   47.27    8.68
  -9   9   1   55.46    8.68
   9  -9   0    9.70    8.39
  -9   9   0   -7.96    8.32
   9  -9   1   36.83    9.54
  -9   9  -1   35.08    9.80
   9  -9   2    7.85    9.31
  -9   9  -2  -11.58    9.80
   9  -9   3   10.03   10.07
  -9   9  -3    6.86   10.43
   9  -9   4    8.30    9.98
  -9   9  -4   19.85   10.48
   9  -9   5    9.51   10.60
  -9   9  -5    7.53   11.02
   9  -9   6   -1.73   10.80
  -9   9  -6   -9.84   11.04
   9  -9   7    7.28   11.97
  -9   9  -7   -1.01    7.83
   9  -9   8   -4.35   12.46
  -9   9  -8  -12.89   12.55
   9  -9   9  -12.13   11.80
  -9   9  -9   11.12   12.29
   8  -9 -10   13.96    6.18
   8  -9  -4   43.82    5.21
  -8   9   4   45.87    5.14
   8  -9  -3   62.90    6.83
  -8   9   3   53.22    6.69
   8  -9  -2   -3.84    6.58
  -8   9   2   13.78    7.01
   8  -9  -1   39.13    8.41
  -8   9   1   29.15    7.64
   8  -9   0   19.79    9.00
  -8   9   0   -8.32    8.65
   8  -9   1   58.01    9.79
  -8   9  -1   32.46    9.38
   8  -9   2   12.72    9.52
  -8   9  -2   -4.52   10.07
   8  -9   3   81.84   11.47
  -8   9  -3   75.69   11.90
   8  -9   4   29.72   10.18
  -8   9  -4   32.16   10.43
   8  -9   5    4.35    9.97
  -8   9  -5   10.38   10.48
   8  -9   6    6.96   10.52
  -8   9  -6    5.44   10.91
   8  -9   7   -2.77   11.30
   8  -9   8   35.45   12.73
  -8   9  -8   25.50   12.68
   8  -9   9  -13.94   12.10
  -8   9  -9    1.62   12.61
   7  -9 -10    1.38    6.29
  -7   9  10    9.44    6.65
   7  -9  -9   -6.32    6.15
  -7   9   9   10.63    6.80
  -7   9   8    2.13    5.57
   7  -9  -7    2.56    3.85
   7  -9  -4    3.66    3.88
  -7   9   4    4.75    4.11
   7  -9  -3    1.96    5.16
  -7   9   3    7.10    5.51
   7  -9  -2   -0.59    6.40
  -7   9   2   21.63    6.88
   7  -9  -1   11.43    7.78
  -7   9   1    8.44    7.83
   7  -9   0   10.61    8.44
  -7   9   0   12.81    8.66
   7  -9   1    6.59    9.16
  -7   9  -1   15.06    9.04
   7  -9   2   -6.71    9.44
  -7   9  -2    9.76   10.00
   7  -9   3   23.99   10.22
  -7   9  -3   13.67   10.29
   7  -9   4    4.93    9.86
  -7   9  -4   -8.07   10.29
   7  -9   5   24.12   10.32
  -7   9  -5   -3.52   10.84
   7  -9   6  -13.15    9.94
  -7   9  -6   -0.38    9.33
   7  -9   7   15.78   10.50
  -7   9  -7  -16.30   11.59
   7  -9   8   -3.37   11.65
  -7   9  -8   14.17   12.66
   7  -9   9   21.94   12.90
  -7   9  -9   -1.21   12.60
   7  -9  10   -0.51   11.41
  -7   9 -10    1.82   12.10
   6  -9 -10   -2.43    7.05
  -6   9  10   -5.20    7.19
   6  -9  -9   19.48    6.78
  -6   9   9    5.89    7.09
   6  -9  -8   -1.09    5.42
  -6   9   8   -3.66    5.90
   6  -9  -7    0.50    4.52
  -6   9   7   -2.24    4.84
   6  -9  -6    4.86    3.21
  -6   9   6    0.55    3.42
   6  -9  -3   -0.19    4.84
  -6   9   3   -4.07    5.20
   6  -9  -2  -16.93    6.19
  -6   9   2    3.10    6.42
   6  -9  -1    4.77    7.60
  -6   9   1    9.98    8.00
   6  -9   0   -2.17    8.54
  -6   9   0   -1.22    8.78
   6  -9   1   11.79    9.26
  -6   9  -1    6.32    9.61
   6  -9   2  -18.19    9.58
  -6   9  -2   -4.88    9.55
   6  -9   3    1.22    9.87
  -6   9  -3   -0.84   11.20
   6  -9   4    8.53   10.19
  -6   9  -4   21.22   10.22
   6  -9   5    1.94    9.37
  -6   9  -5    2.43   10.84
   6  -9   6   -1.64    9.69
   6  -9   7    1.86    9.93
  -6   9  -7    7.81   10.89
   6  -9   8   24.92   12.11
  -6   9  -8    1.79   11.86
   6  -9   9  -10.03   11.94
  -6   9  -9   16.25   12.45
   6  -9  10  -12.75   11.43
  -6   9 -10   -1.24   12.62
   5  -9 -10   36.50    7.97
  -5   9  10   50.85    8.58
   5  -9  -9   10.08    7.12
  -5   9   9   10.46    7.62
   5  -9  -8   13.75    6.28
  -5   9   8    6.76    6.39
  -5   9   7   25.66    6.21
   5  -9  -6   -2.24    3.88
  -5   9   6   -3.92    4.32
  -5   9   0   14.45    8.60
   5  -9   1    1.56    9.00
  -5   9  -1    1.32    9.72
   5  -9   2   19.33   10.02
  -5   9  -2   36.87   10.63
   5  -9   3    5.14    9.80
  -5   9  -3   -3.42   11.15
   5  -9   4   73.86   11.75
  -5   9  -4   99.56   12.52
   5  -9   5   -9.87    9.97
  -5   9  -5   11.40    9.75
   5  -9   6    2.35    9.87
  -5   9  -6    0.93   10.44
   5  -9   7   -4.92   10.04
  -5   9  -7   13.11   10.93
   5  -9   8   -3.46   11.12
  -5   9  -8   28.28   12.17
   5  -9   9    6.33   12.10
  -5   9  -9    0.29   12.38
  -5   9 -10   33.52   12.87
   4  -9 -11    7.50    8.15
  -4   9  11   12.92    8.19
   4  -9 -10   -5.60    8.23
  -4   9  10   17.71    8.09
   4  -9  -9   -0.28    7.67
  -4   9   9   -1.64    8.14
   4  -9  -8    1.91    6.22
  -4   9   8    4.95    7.23
   4  -9  -7   -0.65    5.33
  -4   9   7    5.37    6.07
   4  -9   4   37.15   10.63
  -4   9  -4   36.53   11.04
   4  -9   5   29.13   10.38
   4  -9   6    7.17   10.50
  -4   9  -6   23.68   10.87
   4  -9   7   12.24    9.90
  -4   9  -7   10.10   10.89
   4  -9   8   13.54   10.70
  -4   9  -8   10.87   11.40
   4  -9   9  -14.02   11.39
  -4   9  -9   -1.30   11.87
  -4   9 -10   25.05   12.58
   3  -9 -11    2.78    8.54
  -3   9  11   -1.41    8.82
   3  -9 -10    1.77    8.93
  -3   9  10    9.83    9.33
   3  -9  -9   21.27    7.79
  -3   9   9    8.25    8.24
   3  -9  -8    3.11    6.71
  -3   9   8   -0.06    7.23
   3  -9  -7   11.55    5.97
  -3   9   7   10.88    6.37
  -3   9  -7    7.11   10.26
   3  -9   8  -15.75    9.97
  -3   9  -8    4.28   11.01
   3  -9   9   16.06    9.22
  -3   9  -9   -8.16   11.54
   3  -9  10   -2.32   12.15
  -3   9 -10    8.33   12.61
   3  -9  11   17.78   11.72
  -3   9 -11    3.70   11.99
   2  -9 -11   13.78    8.94
  -2   9  11   14.41    9.22
   2  -9 -10   -4.82    9.08
  -2   9  10   -7.75    9.03
   2  -9  -9    4.73    8.51
  -2   9   9   16.82    8.61
   2  -9  -8   18.75    7.31
  -2   9   8   -0.87    7.31
  -2   9   7    9.46    6.57
  -2   9 -10    1.98   12.44
  -2   9 -11    0.99   11.31
   1  -9 -11   -8.89    8.71
  -1   9  11   22.29    9.34
   1  -9 -10    3.29    9.21
  -1   9  10   12.03    9.91
   1  -9  -9   12.30    8.76
  -1   9   9   11.05    8.76
   1  -9  -8    3.80    7.69
  -1   9   8   21.44    7.71
   0  -9 -11   67.56   10.53
   0   9  11   74.85   11.37
   0  -9 -10   13.20    9.65
   0   9  10   -0.96   10.01
   0  -9  -9   13.92    8.59
   0   9   9    0.02    8.89
   0   9   8   -0.94    8.07
  -1  -9 -11    5.02    9.21
   1   9  11   -5.78    9.75
  -1  -9 -10  -17.89    9.72
   1   9  10   -4.11    9.83
  -1  -9  -9   20.06    9.55
   1   9   9    3.58    9.51
  -2  -9 -11  -10.37    9.52
   2   9  11   10.70    9.89
  -2  -9 -10    7.72   10.27
   2   9  10   12.42   10.17
  -2  -9  -9   12.78    9.40
   2   9   9   17.57    9.64
  -3  -9 -11   -8.37    9.75
   3   9  11  -12.85    9.82
  -3  -9 -10   12.40   10.20
   3   9  10    4.58   10.32
   3   9   9   -4.40   10.24
  -4  -9 -10   11.44   10.93
   4   9  10   -1.35   10.53
   5   9  10   12.87   10.57
  16 -10  -2   83.06   10.40
  16 -10  -1   54.30    9.67
 -16  10   1   31.71    9.89
  16 -10   0  260.12   17.49
 -16  10   0  222.11   16.67
  16 -10   1   56.45   10.73
 -16  10  -1   77.53   12.70
  16 -10   2  101.28   13.11
 -16  10  -2   88.56   13.61
  15 -10  -2  -11.30    8.84
 -15  10   2    8.08    9.21
  15 -10  -1   27.14    9.69
 -15  10   1   25.33   10.25
  15 -10   0    9.82    9.81
 -15  10   0   17.89   10.65
  15 -10   2    1.24   10.63
 -15  10  -2   15.31   11.54
  15 -10   3  -10.59   10.50
 -15  10  -3    0.49   11.58
  15 -10   4   -6.56   10.13
 -15  10  -4   -9.17   11.20
  14 -10  -2   -2.64    9.33
 -14  10   2   -2.25    9.23
  14 -10  -1   18.69    9.89
 -14  10   1   20.32   10.10
  14 -10   0   17.38   10.31
 -14  10   0   15.57   11.10
  14 -10   1   11.25   10.44
 -14  10  -1   19.53   11.89
  14 -10   2   -0.63   11.06
 -14  10  -2   -0.49   12.03
  14 -10   3   51.84   12.35
 -14  10  -3   74.27   14.32
  14 -10   4  -21.77   11.25
 -14  10  -4   -0.55   11.38
  14 -10   5  152.37   15.64
 -14  10  -5  215.02   18.76
  13 -10  -3  660.40   32.62
  13 -10  -2    9.51    8.71
 -13  10   2    4.94    8.80
  13 -10  -1  -14.26    9.19
 -13  10   1    2.00    9.44
  13 -10   0    0.43    9.51
 -13  10   0   10.15    9.96
  13 -10   1   -5.22   10.24
 -13  10  -1    0.58   10.54
  13 -10   2    0.60   10.80
 -13  10  -2    5.75   11.44
  13 -10   3  717.70   37.87
 -13  10  -3  747.34   39.85
  13 -10   4   88.94   14.02
 -13  10  -4   97.86   15.19
  13 -10   5   94.96   14.44
 -13  10  -5  120.64   15.80
  13 -10   6    6.47   11.53
 -13  10  -6   -3.89   12.01
  12 -10  -3   18.90    7.72
 -12  10   3   20.33    7.38
  12 -10  -2  153.65   12.13
 -12  10   2  152.61   11.94
  12 -10  -1   11.58    8.36
 -12  10   1    7.02    8.71
  12 -10   0   -2.86    9.23
 -12  10   0    7.07    9.51
  12 -10   1    7.18    9.94
 -12  10  -1    6.76   10.02
  12 -10   2  183.75   15.48
 -12  10  -2  189.68   16.33
  12 -10   3   10.44   10.89
 -12  10  -3   38.25   12.24
  12 -10   4   71.28   13.01
 -12  10  -4  100.83   14.74
  12 -10   5  144.47   15.61
 -12  10  -5  166.90   17.24
  12 -10   6   35.21   12.23
 -12  10  -6   56.56   13.74
  11 -10  -4   12.41    6.44
  11 -10  -3  -14.28    7.00
 -11  10   3   -8.12    6.74
  11 -10  -2   16.18    7.67
 -11  10   2    5.76    7.69
  11 -10  -1   24.26    8.60
 -11  10   1   40.31    8.97
  11 -10   0   20.53    8.71
 -11  10   0    7.01    8.98
  11 -10   1   18.54    9.58
 -11  10  -1   51.20   10.30
  11 -10   2   -5.73    9.52
 -11  10  -2    5.90   10.48
  11 -10   3   24.07    9.89
 -11  10  -3   53.86   12.04
  11 -10   4    8.10   11.25
 -11  10  -4    6.87   11.40
  11 -10   5   29.52   11.88
 -11  10  -5   38.74   12.92
  11 -10   6  181.20   17.12
 -11  10  -6  172.48   17.50
  11 -10   7  -17.99   11.36
 -11  10  -7   -1.42   12.30
  11 -10   8    8.16   11.79
 -11  10  -8    7.45   12.52
  10 -10  -4    6.62    5.90
 -10  10   4   10.09    5.76
  10 -10  -3    7.10    6.33
 -10  10   3   15.96    6.66
  10 -10  -2   13.59    7.35
 -10  10   2    4.52    7.23
  10 -10  -1   10.47    7.95
 -10  10   1    7.57    7.97
  10 -10   0  751.41   37.04
 -10  10   0  712.24   35.47
  10 -10   1   -0.79    8.97
 -10  10  -1  -14.01    9.26
  10 -10   2   14.82    9.22
 -10  10  -2   12.91   10.12
  10 -10   3   15.83   10.01
 -10  10  -3   13.55   10.80
  10 -10   4    8.88   10.60
 -10  10  -4   18.24   11.43
  10 -10   5    2.84   10.91
 -10  10  -5    3.42   11.69
  10 -10   6   40.32   12.76
 -10  10  -6   46.43   13.46
  10 -10   7   17.65   12.17
 -10  10  -7    6.26   12.95
   9 -10  -5   -2.15    4.14
   9 -10  -4   33.68    5.74
  -9  10   4   51.33    6.23
   9 -10  -3   17.72    5.94
  -9  10   3   -1.23    6.22
   9 -10  -2   12.13    7.00
  -9  10   2   19.65    7.19
   9 -10  -1    0.10    7.71
  -9  10   1    2.79    7.65
   9 -10   0   -0.66    8.09
  -9  10   0   -9.96    8.43
   9 -10   1   -0.42    8.93
  -9  10  -1   26.52    9.51
   9 -10   2   15.33    9.43
  -9  10  -2   10.07   10.12
   9 -10   3  -10.53    9.52
  -9  10  -3   -0.49   10.18
   9 -10   4   42.68   10.93
  -9  10  -4   41.18   11.00
   9 -10   5    3.67   10.58
  -9  10  -5   -5.63   11.25
   9 -10   6   17.92   11.52
  -9  10  -6   33.53   12.76
   9 -10   7   14.96   12.25
  -9  10  -7  -14.55   12.83
   9 -10   8  132.03   15.88
   9 -10   9   -9.24   11.54
  -9  10  -9   14.13   12.82
   8 -10  -9    2.98    5.06
   8 -10  -8  106.34    7.14
   8 -10  -5   81.81    5.27
  -8  10   5   73.82    4.95
   8 -10  -4  559.63   26.08
  -8  10   4  543.24   25.41
   8 -10  -3    9.14    5.68
  -8  10   3    4.14    5.67
   8 -10  -2   65.06    7.79
  -8  10   2   59.64    7.59
   8 -10  -1   56.74    8.67
  -8  10   1   49.54    8.38
   8 -10   0    8.08    8.55
  -8  10   0   32.99    8.61
   8 -10   1   57.13   10.01
  -8  10  -1   48.99   10.07
   8 -10   2   67.81   10.51
  -8  10  -2   77.15   11.18
   8 -10   3   -7.67    9.65
  -8  10  -3   -8.50   10.15
   8 -10   4  500.94   28.06
  -8  10  -4  513.72   28.80
   8 -10   5   86.37   12.35
  -8  10  -5  110.09   13.75
   8 -10   6  528.60   30.09
  -8  10  -6  501.64   29.59
   8 -10   7  -10.70   11.56
  -8  10  -7    6.37   11.52
   8 -10   8  148.07   16.81
  -8  10  -8  140.17   16.85
   8 -10   9    0.46   11.77
  -8  10  -9    3.75   12.19
   7 -10  -9    0.88    5.83
  -7  10   9   -5.43    6.13
  -7  10   8   17.75    5.46
   7 -10  -7   43.24    4.35
  -7  10   7   48.32    4.73
  -7  10   5    4.04    2.49
   7 -10  -4   14.49    4.25
  -7  10   4   18.68    4.24
   7 -10  -3   54.98    6.32
  -7  10   3   77.47    6.94
   7 -10  -2    2.98    6.21
  -7  10   2    4.87    6.32
   7 -10  -1    4.15    7.52
  -7  10   1    1.27    6.96
   7 -10   0   -2.75    8.07
  -7  10   0   -0.60    8.24
   7 -10   1    5.80    8.46
  -7  10  -1    6.16    8.83
   7 -10   2   -1.26    8.79
  -7  10  -2  -18.50    9.79
   7 -10   3  102.20   11.90
  -7  10  -3   60.28   11.30
   7 -10   4   10.70    9.74
  -7  10  -4   29.84   10.59
   7 -10   5    3.82    9.73
  -7  10  -5    2.51   10.11
   7 -10   6   46.63   11.51
  -7  10  -6   46.92   12.02
   7 -10   7   49.21   12.09
   7 -10   8   12.24   12.58
  -7  10  -8   22.13   12.66
   7 -10   9    2.60   12.08
  -7  10  -9  -11.46   12.37
   6 -10 -10   43.88    7.18
  -6  10  10   32.19    7.24
   6 -10  -9  103.96    8.60
  -6  10   9  110.93    9.43
  -6  10   8    8.53    5.87
   6 -10  -7   30.38    4.53
  -6  10   7   25.62    4.99
   6 -10  -1   -5.78    7.58
  -6  10   1   15.98    7.36
   6 -10   0   75.92    9.66
  -6  10   0   57.81    9.23
   6 -10   1   10.07    8.69
  -6  10  -1    8.12    8.97
   6 -10   2   18.57    9.29
  -6  10  -2   -1.66    9.31
   6 -10   3   27.26   10.11
  -6  10  -3   17.45   10.07
   6 -10   4   40.49   10.33
  -6  10  -4   13.44   10.07
   6 -10   5   -7.32    9.26
  -6  10  -5   18.43   10.81
   6 -10   6   -3.88    9.86
  -6  10  -6   12.12   10.83
   6 -10   7   37.12   11.44
  -6  10  -7   24.01   11.30
   6 -10   8    9.98   11.69
  -6  10  -8    4.01   12.34
   6 -10   9   79.22   14.26
  -6  10  -9  118.20   15.49
   6 -10  10   31.23   12.18
  -6  10 -10   46.36   13.28
   5 -10 -10   -5.89    7.14
  -5  10  10    7.96    7.16
   5 -10  -9  460.84   23.37
  -5  10   9  414.70   21.69
   5 -10  -8    9.84    5.81
  -5  10   8   17.09    6.80
  -5  10   7   33.17    5.78
  -5  10  -2  -19.05    9.57
   5 -10   4    7.21    9.52
  -5  10  -4   -2.30    9.89
   5 -10   5    8.10    9.44
  -5  10  -5   -0.09   10.43
   5 -10   6   -0.31    9.69
   5 -10   7   45.46   11.05
  -5  10  -7   32.69   11.74
   5 -10   8    5.18   11.23
  -5  10  -8    0.33   12.04
   5 -10   9  326.25   23.06
  -5  10  -9  323.23   23.18
   5 -10  10  -11.17   11.26
  -5  10 -10    5.18   11.81
   4 -10 -10    1.01    7.67
  -4  10  10    6.51    8.18
   4 -10  -9  133.31   10.68
  -4  10   9  161.79   12.04
   4 -10  -8    3.79    6.13
  -4  10   8   -0.63    6.89
  -4  10   7    8.54    5.92
  -4  10  -5  157.02   14.63
   4 -10   6    6.57    9.52
   4 -10   7    7.23    9.91
  -4  10  -7   13.69   10.77
   4 -10   8   -1.66   10.67
  -4  10  -8    0.40   11.34
   4 -10   9  149.24   16.04
  -4  10  -9  137.73   16.20
   4 -10  10   37.38   10.77
  -4  10 -10    8.03   12.27
   3 -10 -10   11.61    8.10
  -3  10  10   13.34    8.68
   3 -10  -9   18.35    7.83
  -3  10   9   14.20    8.47
   3 -10  -8   -5.85    6.60
  -3  10   8    8.61    7.16
  -3  10  -9    3.02   11.62
  -3  10 -10    0.79   12.02
   2 -10 -10   45.76    9.29
  -2  10  10   44.02    9.96
   2 -10  -9   51.76    9.00
  -2  10   9   34.79    8.88
  -2  10   8   14.35    7.24
   1 -10 -10   76.20   10.47
  -1  10  10   69.99   10.48
   1 -10  -9   40.61    9.26
  -1  10   9   42.11    9.18
   0 -10 -10   70.81   10.80
   0  10  10   57.97   10.11
   0  10   9   10.91    8.98
  -1 -10 -10   45.24   10.17
   1  10  10   63.74   10.93
  -2 -10 -10   53.67   10.61
   2  10  10   29.17    9.77
   3  10  10    7.14   10.08
  15 -11  -3   -1.05    7.88
  15 -11  -2   15.19    8.53
 -15  11   2   13.71    8.66
  15 -11   0   -4.96    9.19
 -15  11   0  -10.59    9.72
  15 -11   1    5.82    9.79
 -15  11  -1   -3.41   10.84
  15 -11   2  -10.43   10.15
 -15  11  -2   23.33   11.56
  15 -11   3    8.71   10.24
 -15  11  -3    0.60   11.48
  14 -11  -3   15.04    8.51
 -14  11   3   -4.63    7.72
  14 -11  -2    2.53    8.71
 -14  11   2   17.36    8.88
  14 -11  -1   10.11    9.55
 -14  11   1   23.34   10.09
  14 -11   0   16.97   10.00
 -14  11   0   15.37   10.32
  14 -11   1   22.85   10.47
 -14  11  -1   15.04   11.69
  14 -11   2    9.59   10.88
 -14  11  -2   20.90   12.25
  14 -11   3    5.89   10.34
 -14  11  -3   13.85   11.98
  14 -11   4    9.01   10.91
 -14  11  -4    5.02   11.26
  13 -11  -4   10.26    7.54
  13 -11  -3    2.52    8.19
 -13  11   3   15.27    7.97
  13 -11  -2   43.99    9.59
 -13  11   2   69.00   10.03
  13 -11  -1   26.49    9.48
 -13  11   1    6.57    9.84
  13 -11   0    0.01    9.73
 -13  11   0   25.58   10.97
  13 -11   1   20.85   10.32
 -13  11  -1   20.79   11.52
  13 -11   2   81.43   12.92
 -13  11  -2   46.97   12.66
  13 -11   3   34.78   11.65
 -13  11  -3   23.90   12.87
  13 -11   4   31.67   11.90
 -13  11  -4  -11.52   12.46
  13 -11   5    5.37   10.68
 -13  11  -5    3.30   12.58
  12 -11  -4   13.97    7.25
 -12  11   4    1.77    6.75
  12 -11  -3   21.41    8.08
 -12  11   3    4.22    7.89
  12 -11  -2   23.51    8.80
 -12  11   2   18.21    8.51
  12 -11  -1   14.84    9.37
 -12  11   1   -0.22    9.14
  12 -11   0    6.72    9.46
 -12  11   0   11.13   10.03
  12 -11   1   23.23   10.45
 -12  11  -1   -1.55   10.52
  12 -11   2   57.80   11.53
 -12  11  -2   26.56   11.87
  12 -11   3   21.43   10.89
 -12  11  -3  -18.84   12.26
  12 -11   4    9.02   11.65
 -12  11  -4   -0.28   12.37
  12 -11   5    8.93   11.66
 -12  11  -5   -1.48   12.23
  12 -11   6    1.30   11.54
 -12  11  -6   16.20   11.99
  11 -11  -5    9.68    6.10
  11 -11  -4   -1.80    6.61
 -11  11   4    1.32    6.68
  11 -11  -3    8.71    7.17
 -11  11   3    0.09    7.10
  11 -11  -2   10.65    8.18
 -11  11   2    0.81    7.76
  11 -11  -1    5.27    8.62
 -11  11   1    2.30    8.32
  11 -11   0   -8.43    8.95
 -11  11   0   -3.09    9.34
  11 -11   1   -7.64    9.45
 -11  11  -1   -3.75    9.61
  11 -11   2  -11.36   10.02
 -11  11  -2   10.67   10.61
  11 -11   3    2.62   10.18
 -11  11  -3   10.68   11.81
  11 -11   4   11.08   11.45
 -11  11  -4    8.67   11.96
  11 -11   5   10.45   11.65
 -11  11  -5    6.07   12.78
  11 -11   6   -2.00   12.24
 -11  11  -6   21.93   13.10
  11 -11   7    7.58   10.96
 -11  11  -7   25.42   11.68
  10 -11  -5    7.05    5.25
 -10  11   5   -2.50    5.22
  10 -11  -4   -0.48    6.14
 -10  11   4    5.59    6.19
  10 -11  -3   27.17    7.26
 -10  11   3   15.16    6.80
  10 -11  -2    4.15    7.07
 -10  11   2   -3.79    7.17
  10 -11  -1   13.08    8.22
 -10  11   1    3.88    7.94
  10 -11   0    3.63    8.37
 -10  11   0   10.52    8.94
  10 -11   1    6.23    9.22
 -10  11  -1   10.62    9.62
  10 -11   3    9.50   10.09
 -10  11  -3    3.45   11.06
  10 -11   4   -4.25   10.72
 -10  11  -4  -13.67   11.36
  10 -11   5   15.28   11.45
 -10  11  -5   22.90   12.45
  10 -11   6   -5.83   11.33
 -10  11  -6    4.54   12.88
  10 -11   7   -3.58   11.26
 -10  11  -7   14.28   12.26
 -10  11  -8   18.62   12.72
   9 -11  -5   21.86    4.61
  -9  11   5   18.00    4.71
   9 -11  -4   -1.78    5.33
  -9  11   4    2.06    5.65
   9 -11  -3    2.73    6.28
  -9  11   3    9.57    6.31
   9 -11  -2    4.01    6.95
  -9  11   2   -0.65    6.76
   9 -11  -1    2.99    7.62
  -9  11   1   18.39    8.17
   9 -11   0    4.03    7.95
  -9  11   0   -4.46    8.38
   9 -11   1    2.43    9.00
  -9  11  -1   15.30    9.07
   9 -11   2   19.28    9.45
  -9  11  -2   -4.39    9.84
   9 -11   3   -2.21    9.61
  -9  11  -3    9.77   10.66
   9 -11   4    7.61   10.81
  -9  11  -4  -15.12   11.05
   9 -11   5   40.48   11.77
  -9  11  -5    7.18   11.76
   9 -11   6   17.07   11.60
  -9  11  -6   16.83   12.44
   9 -11   7   -0.02   12.04
  -9  11  -7   -3.91   12.61
   9 -11   8    6.10   11.24
  -9  11  -8    8.26   11.39
  -8  11   9   21.64    5.07
   8 -11  -8    3.78    3.99
  -8  11   8    4.02    4.16
   8 -11  -4    2.84    4.80
  -8  11   4    4.08    4.90
   8 -11  -3    4.28    5.66
  -8  11   3    4.81    5.67
   8 -11  -2   -1.45    6.67
  -8  11   2   -0.55    6.64
   8 -11  -1   10.86    7.62
  -8  11   1   33.79    7.94
   8 -11   0   -0.07    7.96
  -8  11   0   28.99    8.64
   8 -11   1   31.30    8.97
  -8  11  -1   20.00    9.08
   8 -11   2    4.79    9.09
  -8  11  -2    0.73    9.70
   8 -11   3    9.80    9.34
  -8  11  -3    4.42   10.15
   8 -11   4   12.74    9.94
  -8  11  -4    2.09   10.27
   8 -11   5   17.02   10.52
  -8  11  -5   30.49   11.82
   8 -11   6   -3.09   11.36
  -8  11  -6   12.32   12.15
   8 -11   8   -9.00   11.56
   7 -11  -9    4.99    4.67
  -7  11   9   -0.15    5.44
   7 -11  -8   17.16    5.13
  -7  11   8   11.34    5.18
   7 -11  -7   15.41    3.77
  -7  11   7    8.21    4.06
  -7  11   3    6.35    5.43
   7 -11  -2   17.68    6.54
  -7  11   2   24.54    6.65
   7 -11  -1    9.32    7.45
  -7  11   1   -9.59    7.31
   7 -11   0   11.48    8.23
  -7  11   0   11.94    7.98
   7 -11   1    4.66    8.58
  -7  11  -1   -4.64    8.81
   7 -11   2    3.80    8.96
  -7  11  -2    8.05    9.61
   7 -11   3    1.45    9.11
  -7  11  -3   16.02   10.46
   7 -11   4    9.59    9.62
  -7  11  -4   -4.75   10.08
   7 -11   5   22.80   10.62
  -7  11  -5   27.79   11.15
   7 -11   6  -10.61   10.67
  -7  11  -6    6.56   11.41
   7 -11   7   15.05   11.55
  -7  11  -7   12.42   12.61
   7 -11   8   23.95   12.59
   7 -11   9   15.31   11.46
  -7  11  -9   -1.49   11.45
   6 -11  -9    1.81    5.93
  -6  11   9   -3.68    6.74
  -6  11   8   47.32    6.64
  -6  11   7    0.92    4.52
  -6  11   0   15.56    7.90
   6 -11   1   13.35    8.50
  -6  11  -1    3.79    8.73
   6 -11   2   15.69    8.96
  -6  11  -2   12.67    9.55
   6 -11   3   -0.22    9.10
  -6  11  -3   -5.37    9.62
   6 -11   4   -2.65    9.36
  -6  11  -4    8.90    9.74
   6 -11   5    5.53    9.61
  -6  11  -5   11.79   10.94
   6 -11   6    1.34   10.31
  -6  11  -6   18.00   10.98
   6 -11   7    0.46   10.94
   6 -11   8   55.48   13.25
  -6  11  -8   45.19   13.26
   6 -11   9  -15.62   11.39
  -6  11  -9    7.26   12.10
   5 -11 -10   37.81    7.82
   5 -11  -9    6.47    6.54
  -5  11   9    4.29    7.42
   5 -11  -8   46.24    6.47
  -5  11   8   31.27    6.82
  -5  11  -4   29.32   10.04
   5 -11   5   -7.22    9.07
  -5  11  -5    8.94   10.04
   5 -11   6   72.26   11.45
  -5  11  -6   66.49   12.31
   5 -11   7   -9.59   10.88
   5 -11   8   29.86   12.30
  -5  11  -8   33.48   12.82
   5 -11   9  -15.14   11.41
  -5  11  -9   -4.71   12.05
   4 -11 -10    7.61    6.97
  -4  11  10    6.40    7.74
   4 -11  -9   17.14    7.17
  -4  11   9    8.44    7.69
  -4  11   8   57.99    7.58
  -4  11  -7   15.85   11.89
   4 -11   8   60.39   12.72
  -4  11  -8   50.57   13.30
   4 -11   9    3.72   11.98
  -4  11  -9    9.38   11.89
   4 -11  10   10.07   11.58
  -4  11 -10   19.91   12.48
   3 -11 -10    8.50    7.09
  -3  11  10   -4.99    7.75
   3 -11  -9   16.78    7.58
  -3  11   9    0.46    7.68
  -3  11 -10   -4.89   11.15
   2 -11 -10    7.33    7.90
  -2  11  10   13.87    8.25
  -2  11   9   10.00    8.05
   1 -11 -10   18.00    8.41
  -1  11  10    0.22    8.45
   0 -11 -10   15.09    8.52
   0  11  10   -9.76    8.22
   1  11  10   12.02    8.95
  15 -12   0    6.80    9.27
 -15  12   0    6.18    9.83
  14 -12  -3   50.12    8.74
 -14  12   3   42.81    8.46
  14 -12  -2    4.15    8.01
 -14  12   2   15.85    8.60
  14 -12  -1   21.93    9.07
 -14  12   1    2.82    9.21
  14 -12   0   24.15    9.93
 -14  12   0   31.17   10.32
  14 -12   1   11.44    9.82
 -14  12  -1   14.16   10.26
  14 -12   2   15.07   10.10
 -14  12  -2   -2.58   11.24
  14 -12   3   66.49   11.68
 -14  12  -3   80.12   13.68
  13 -12  -5   59.31    7.37
  13 -12  -4   -7.16    6.73
 -13  12   4    6.92    6.73
  13 -12  -3   -3.37    7.98
 -13  12   3    4.64    7.80
  13 -12  -2   20.49    9.08
 -13  12   2   14.98    8.84
  13 -12  -1  119.37   12.58
 -13  12   1  128.78   13.12
  13 -12   0   10.27   10.03
 -13  12   0   25.92   10.86
  13 -12   2   11.99   10.69
 -13  12  -2    9.36   11.89
  13 -12   3    5.47   10.45
 -13  12  -3    2.23   11.77
  13 -12   4    0.42   10.63
 -13  12  -4    6.74   11.18
  12 -12  -5   66.42    7.11
 -12  12   5   75.86    7.23
  12 -12  -4   12.10    7.29
 -12  12   4   16.00    7.15
  12 -12  -2    7.10    9.05
 -12  12   2   21.18    8.79
  12 -12  -1  191.77   14.66
 -12  12   1  212.11   15.50
  12 -12   0   87.74   11.55
 -12  12   0   68.42   11.59
  12 -12   1  174.69   15.00
 -12  12  -1  176.43   15.74
  12 -12   2   24.51   11.03
 -12  12  -2   21.29   12.26
  12 -12   3  121.57   14.08
 -12  12  -3   79.12   14.27
  12 -12   4   20.58   11.87
 -12  12  -4   28.56   12.78
  12 -12   5   72.87   12.99
 -12  12  -5   59.74   13.58
  11 -12  -6    8.18    4.53
  11 -12  -5   -4.79    5.75
 -11  12   5   14.45    5.88
  11 -12  -3   11.01    7.86
 -11  12   3   15.90    8.03
  11 -12  -2   12.62    8.36
 -11  12   2   11.16    8.39
  11 -12  -1   14.60    9.16
 -11  12   1   16.96    8.88
  11 -12   0   -0.36    9.43
 -11  12   0    7.81   10.07
  11 -12   1    3.29    9.82
 -11  12  -1   27.09   10.81
  11 -12   2   20.24   10.90
 -11  12  -2   19.27   11.68
  11 -12   3   -2.95   10.94
 -11  12  -3   30.25   12.77
  11 -12   4   61.24   12.85
 -11  12  -4   52.88   13.65
  11 -12   5   17.78   11.63
 -11  12  -5    6.71   12.44
  11 -12   6   29.23   11.72
 -11  12  -6    6.39   11.29
  10 -12  -6    9.69    4.21
  10 -12  -5   25.54    5.54
 -10  12   5   19.50    5.57
  10 -12  -4    2.44    6.45
 -10  12   4    2.86    6.56
  10 -12  -3   19.08    7.18
 -10  12   3    5.75    7.18
  10 -12  -2   53.21    8.72
 -10  12   2   43.11    8.44
  10 -12  -1   16.34    8.54
 -10  12   1   28.71    8.41
  10 -12   0    5.57    8.87
 -10  12   0   -7.42    8.95
  10 -12   1   26.31    9.43
 -10  12  -1    7.62    9.79
  10 -12   2   69.61   11.65
 -10  12  -2   42.19   11.11
  10 -12   3    5.99   10.30
 -10  12  -3    9.58   11.53
  10 -12   4   14.55   11.43
 -10  12  -4   -1.39   11.97
  10 -12   5   17.88   11.88
 -10  12  -5   47.08   13.55
  10 -12   6   22.69   12.62
 -10  12  -6    2.28   12.30
  10 -12   7   23.72   11.59
 -10  12  -7    3.54   11.86
   9 -12  -8   15.76    3.18
   9 -12  -6  120.06    6.66
  -9  12   6  115.25    6.65
   9 -12  -5    1.64    4.73
  -9  12   5    0.85    4.86
   9 -12  -4  544.52   26.01
  -9  12   4  536.27   25.65
   9 -12  -3   -0.51    6.71
  -9  12   3    9.08    6.57
   9 -12  -2  107.08    9.82
  -9  12   2  104.91    9.57
   9 -12  -1   -1.24    8.05
  -9  12   1  -10.73    7.68
   9 -12   0  -13.09    8.36
  -9  12   0   -0.02    8.61
   9 -12   1    1.59    8.88
  -9  12  -1   -2.82    9.29
   9 -12   2   75.86   11.16
  -9  12  -2   83.40   12.08
   9 -12   3    1.84    9.53
  -9  12  -3   17.47   10.90
   9 -12   4  515.70   29.07
  -9  12  -4  514.07   29.71
   9 -12   5    1.82   11.08
  -9  12  -5   14.24   11.95
   9 -12   6  116.69   15.12
  -9  12  -6  138.54   16.35
   9 -12   7  -10.79   11.10
  -9  12  -7   -8.37   11.69
   8 -12  -8   11.00    3.63
  -8  12   8   17.83    3.74
  -8  12   5   23.68    4.34
  -8  12   4    8.23    5.27
   8 -12  -3   27.98    6.38
  -8  12   3   24.52    6.25
   8 -12  -2   13.75    6.93
  -8  12   2   18.27    6.82
   8 -12  -1    3.16    7.49
  -8  12   1   12.58    7.62
   8 -12   0  186.43   13.33
  -8  12   0  225.02   15.17
   8 -12   1   11.44    8.48
  -8  12  -1   10.98    9.11
   8 -12   2   22.80    9.30
  -8  12  -2   19.81    9.87
   8 -12   3   20.90    9.74
  -8  12  -3   34.43   11.11
   8 -12   4    5.93   10.51
  -8  12  -4    9.79   11.09
   8 -12   5   33.16   11.46
  -8  12  -5   11.45   11.54
   8 -12   6   17.59   11.38
  -8  12  -6   10.38   12.33
   8 -12   7   10.63   11.40
  -8  12  -7   10.82   12.38
   8 -12   8   17.95   11.13
  -8  12  -8   12.27   11.29
   7 -12  -8   20.68    4.38
  -7  12   8   18.99    4.85
  -7  12   1   48.08    8.17
   7 -12   0   10.89    7.73
  -7  12   0   18.56    8.23
   7 -12   1   44.34    9.14
  -7  12  -1   51.83    9.62
   7 -12   2   14.52    8.84
  -7  12  -2   35.68   10.05
   7 -12   3   12.60    9.64
  -7  12  -3   15.45   10.38
   7 -12   4  170.39   14.88
  -7  12  -4  148.31   14.77
   7 -12   5    1.59   10.54
  -7  12  -5   -0.63   10.84
   7 -12   6    3.56   10.94
  -7  12  -6    8.60   12.08
   7 -12   7    6.51   11.67
  -7  12  -7   -7.18   12.30
   7 -12   8   23.50   12.03
  -7  12  -8   -0.20    8.55
   6 -12  -9    9.86    5.18
  -6  12   9    6.10    6.16
  -6  12   8    9.54    5.59
  -6  12  -2   33.29   10.00
   6 -12   3   -0.03    9.07
  -6  12  -3   -0.10    9.72
   6 -12   4    1.43    9.70
  -6  12  -4    6.90    9.77
   6 -12   5   34.93   10.48
  -6  12  -5   19.20   11.13
   6 -12   6    1.12   10.76
  -6  12  -6    9.25   11.86
   6 -12   7  149.12   15.66
  -6  12  -7  133.31   16.23
   6 -12   8   15.60   11.84
   6 -12   9   -0.38   11.27
  -6  12  -9   14.25   12.16
   5 -12  -9    6.83    6.02
  -5  12   9   -4.94    6.36
  -5  12  -6    9.70   11.27
   5 -12   7    0.99   11.05
  -5  12  -7   28.91    9.97
   5 -12   8   30.82   12.49
  -5  12  -8    1.94   11.96
   5 -12   9    6.81   11.37
  -5  12  -9    9.04   11.66
  -4  12   9   47.15    7.69
  -4  12  -9   53.12   13.15
  14 -13  -1   23.76    9.47
 -14  13   1   33.36    9.55
  14 -13   1   11.55    9.75
 -14  13  -1   16.84   10.25
  13 -13  -3    9.16    7.38
 -13  13   3   14.69    7.62
  13 -13  -2  132.85   12.01
 -13  13   2  142.03   12.09
  13 -13  -1   42.68    9.67
 -13  13   1   24.85    9.75
  13 -13   0   10.65    9.16
 -13  13   0   -3.20    9.90
  13 -13   1   38.03   10.25
 -13  13  -1   58.60   11.23
  13 -13   2  125.53   13.30
 -13  13  -2  158.53   15.34
  12 -13  -5   21.22    6.30
 -12  13   5    6.62    6.09
  12 -13  -4    3.29    6.90
 -12  13   4   -4.93    6.73
  12 -13  -3   95.27   10.17
 -12  13   3  119.13   10.65
  12 -13  -2   46.29    9.40
 -12  13   2   27.99    9.12
  12 -13  -1   34.82   10.31
 -12  13   1   36.40   10.29
  12 -13   1   36.09   10.83
 -12  13  -1   53.12   12.22
  12 -13   2   55.82   11.32
 -12  13  -2   32.49   11.75
  12 -13   3  109.25   13.59
 -12  13  -3   88.24   13.58
  12 -13   4  -14.47   10.44
 -12  13  -4    9.45   11.70
  11 -13  -6    8.01    4.75
  11 -13  -5    8.00    5.74
 -11  13   5    4.96    5.74
  11 -13  -4   17.88    7.05
 -11  13   4   25.08    7.29
  11 -13  -3    7.97    7.76
 -11  13   3    0.26    7.52
  11 -13  -2   -1.35    8.36
 -11  13   2   -1.49    8.68
  11 -13  -1  331.60   19.93
 -11  13   1  377.74   21.78
  11 -13   0   -9.04    9.62
 -11  13   0   20.00   10.32
  11 -13   1  346.47   21.62
 -11  13  -1  333.45   21.63
  11 -13   2    5.09   10.66
 -11  13  -2    8.35   11.92
  11 -13   3    5.80   10.82
 -11  13  -3   10.46   11.92
  11 -13   4    0.58   11.15
 -11  13  -4   22.78   12.55
  11 -13   5    5.79   11.20
 -11  13  -5   13.62   10.88
  10 -13  -5   84.43    7.15
 -10  13   5   72.44    6.89
  10 -13  -4   13.96    6.74
 -10  13   4   10.76    6.53
  10 -13  -3   35.48    8.00
 -10  13   3   14.03    7.80
  10 -13  -2   12.70    8.29
 -10  13   2   33.05    8.41
  10 -13  -1   -2.60    8.87
 -10  13   1   11.05    8.97
  10 -13   0   71.14   10.73
 -10  13   0   47.98   10.84
  10 -13   1    5.17    9.84
 -10  13  -1   -5.36   10.39
  10 -13   2   19.84   10.96
 -10  13  -2   26.20   11.61
  10 -13   3   22.35   11.03
 -10  13  -3   16.97   12.34
  10 -13   4   24.13   11.52
 -10  13  -4   12.45   12.44
  10 -13   5   95.76   13.70
 -10  13  -5   72.44   14.12
  10 -13   6   29.42   11.33
 -10  13  -6   45.67   11.89
  -9  13   6   -0.28    3.75
   9 -13  -5  406.33   19.58
  -9  13   5  455.61   21.71
   9 -13  -4   15.76    6.42
  -9  13   4   15.82    6.19
   9 -13  -3  809.40   38.32
  -9  13   3  783.25   37.12
   9 -13  -2   25.08    7.98
  -9  13   2   36.66    8.08
   9 -13  -1  168.41   12.83
  -9  13   1  168.18   12.63
   9 -13   0  -21.87    8.67
  -9  13   0   -1.84    8.86
   9 -13   1  156.44   13.38
  -9  13  -1  125.06   12.91
   9 -13   2   24.74   10.36
  -9  13  -2   22.83   10.95
   9 -13   3  822.31   41.73
  -9  13  -3  771.98   40.27
   9 -13   5  496.29   29.09
  -9  13  -5  492.22   29.59
   9 -13   6   12.54   11.52
  -9  13  -6    9.59   12.01
   9 -13   7   52.70   12.38
  -9  13  -7   49.72   13.10
  -8  13   3  279.99   15.33
   8 -13  -2   19.75    7.09
  -8  13   2    1.74    6.99
   8 -13   0  125.41   11.73
  -8  13   0  118.09   11.53
   8 -13   1    2.50    8.79
  -8  13  -1   25.04    9.50
   8 -13   2   14.53    9.48
  -8  13  -2   -8.79    9.86
   8 -13   3  304.75   19.75
  -8  13  -3  286.38   20.08
   8 -13   4   39.35   11.48
  -8  13  -4   13.31   11.52
   8 -13   5   43.70   12.29
  -8  13  -5   17.00   12.37
   8 -13   6  125.87   15.45
  -8  13  -6  122.39   15.89
   8 -13   7   38.58   11.69
  -8  13  -7   36.12   12.25
  -7  13  -1  271.74   17.53
   7 -13   2   88.87   11.10
  -7  13  -2   71.24   11.04
   7 -13   3   27.71    9.75
  -7  13  -3   23.36   10.75
   7 -13   4  102.66   12.88
  -7  13  -4   82.87   12.85
   7 -13   5   70.82   12.63
  -7  13  -5   97.47   14.05
   7 -13   6   46.19   11.80
  -7  13  -6   43.17   13.08
   7 -13   7    5.86   11.09
  -7  13  -7    3.14   11.77
   7 -13   8   52.08   12.65
  -7  13  -8   38.48   12.69
  -6  13  -4   85.36   12.61
   6 -13   5   18.34   10.52
  -6  13  -5   17.60   11.55
   6 -13   6   17.93   11.31
  -6  13  -6   34.05   12.11
   6 -13   7   68.49   12.53
  -6  13  -7   97.27   14.40
   6 -13   8    6.75   10.83
  -6  13  -8    2.65   10.76
  -5  13  -7   12.48   11.58
  13 -14  -1   -1.36    8.86
 -13  14   1   -4.75    8.86
  13 -14   0    7.10    8.79
 -13  14   0   10.24    9.31
  13 -14   1   25.01   10.18
 -13  14  -1    8.54   10.18
  12 -14  -3   17.28    7.36
 -12  14   3   11.81    7.31
  12 -14  -2   12.05    8.23
 -12  14   2    0.91    8.08
  12 -14  -1    0.69    8.73
 -12  14   1    7.19    8.94
  12 -14   0   19.39    9.33
 -12  14   0   12.15    9.79
  12 -14   1    1.99    9.31
 -12  14  -1    0.27    9.84
  12 -14   2   -4.72    9.80
 -12  14  -2  -10.25   11.08
  12 -14   3   17.61    9.96
 -12  14  -3  -13.03   10.90
  11 -14  -4   -2.13    6.36
 -11  14   4    9.64    6.17
  11 -14  -3   10.72    7.55
 -11  14   3    7.89    7.64
  11 -14  -2    2.09    8.35
 -11  14   2    1.12    8.16
  11 -14  -1   14.40    9.53
 -11  14   1    4.45    9.51
  11 -14   0   -0.55    9.62
 -11  14   0   11.17   10.43
  11 -14   1    9.43   10.30
 -11  14  -1    9.43   10.87
  11 -14   2    5.83   10.30
 -11  14  -2    3.66   10.95
  11 -14   3    5.54   10.45
 -11  14  -3   18.31   11.51
  11 -14   4    3.92   10.34
 -11  14  -4    9.29   10.90
  10 -14  -5    4.11    5.30
 -10  14   5    5.66    5.20
  10 -14  -4   16.89    6.61
 -10  14   4   10.63    6.30
  10 -14  -3    5.59    7.55
 -10  14   3   13.42    7.45
  10 -14  -2   59.46    9.47
 -10  14   2   34.95    8.74
  10 -14  -1    4.06    9.03
 -10  14   1   19.55    9.57
  10 -14   0   44.57   10.32
 -10  14   0   37.79   10.36
  10 -14   1   14.88   10.32
 -10  14  -1   -7.32   11.01
  10 -14   2   27.59   10.68
 -10  14  -2   49.36   12.20
  10 -14   3    0.13   10.53
 -10  14  -3   -8.41   11.43
  10 -14   5    8.71   10.94
 -10  14  -5    3.43   10.60
  -9  14   5    6.59    5.43
  -9  14   4    7.47    6.24
   9 -14  -3    2.13    7.32
  -9  14   3   12.12    7.21
   9 -14  -2   17.49    8.26
  -9  14   2   17.17    8.19
   9 -14  -1   24.63    8.95
  -9  14   1   11.31    8.81
   9 -14   0   -1.57    8.98
  -9  14   0    1.55    9.81
   9 -14   1    9.69    9.86
  -9  14  -1    8.16   10.22
   9 -14   2   22.22   10.62
  -9  14  -2    5.46   11.45
   9 -14   3   -2.38   10.53
  -9  14  -3    6.44   11.73
   9 -14   4   26.45   11.36
  -9  14  -4   23.42   12.39
   9 -14   5   -1.73   10.93
  -9  14  -5   14.19   11.81
   9 -14   6   10.74   10.58
  -9  14  -6   12.09   11.26
  -8  14   1   23.48    8.29
   8 -14   0   13.73    8.32
  -8  14   0    5.29    9.19
   8 -14   1   -7.96    9.37
  -8  14  -1   10.54    9.60
   8 -14   2  176.32   14.80
  -8  14  -2  170.97   15.31
   8 -14   3   33.38   11.00
  -8  14  -3   23.84   11.98
   8 -14   4   -2.93   10.65
  -8  14  -4   -0.45   12.06
   8 -14   5    9.62   11.34
  -8  14  -5   17.91   12.27
   8 -14   6   40.66   12.08
  -8  14  -6    1.93   11.47
  -7  14  -2   -3.77   10.32
  -7  14  -3   25.52   11.27
   7 -14   4   11.81   10.67
  -7  14  -4   -0.50   11.60
   7 -14   5    7.08   10.90
  -7  14  -5   -4.88   12.04
   7 -14   6    6.56   11.61
  -7  14  -6  -11.63   12.24
   7 -14   7    9.55   10.70
  -7  14  -7   11.34   11.34
  -6  14  -6   20.43   12.10
   6 -14   7   18.41   10.72
  -6  14  -7   20.92   11.41
  11 -15  -3  -13.75    7.14
 -11  15   3   -4.64    7.17
  11 -15  -2   -6.30    7.85
 -11  15   2    3.85    7.72
  11 -15  -1   -9.72    8.35
 -11  15   1    0.48    8.47
  11 -15   0    7.46    8.80
 -11  15   0  -11.59    8.93
  11 -15   1   10.74    9.14
 -11  15  -1   -1.87    9.55
  11 -15   2    8.87    9.76
 -11  15  -2    4.11   10.73
  11 -15   3   15.38   10.81
 -11  15  -3   11.00   11.51
  10 -15  -4    6.49    6.07
 -10  15   4   10.60    6.04
  10 -15  -3    6.37    7.35
 -10  15   3   13.96    7.29
  10 -15  -2    1.91    8.15
 -10  15   2   11.54    7.95
  10 -15  -1    4.34    8.95
 -10  15   1   14.35    9.03
  10 -15   0   43.09    9.73
 -10  15   0   29.65   10.18
  10 -15   1    6.31    9.66
 -10  15  -1    7.08   10.11
  10 -15   2   12.10    9.84
 -10  15  -2   14.38   10.75
  10 -15   3   12.35   10.48
 -10  15  -3   10.44   11.26
  10 -15   4    1.87   10.36
 -10  15  -4   14.19   10.93
  -9  15   3   64.82    8.10
  -9  15   2   11.12    7.93
   9 -15  -1   -0.37    9.12
  -9  15   1   11.02    9.32
   9 -15   0   -6.90    9.21
  -9  15   0   -2.95    9.93
   9 -15   1   13.94   10.04
  -9  15  -1   -7.61   10.67
   9 -15   2   10.39   10.02
  -9  15  -2   11.34   10.66
   9 -15   3   71.90   12.06
  -9  15  -3   86.80   13.16
   9 -15   4   -1.67   10.20
  -9  15  -4  -21.91   11.19
   9 -15   5   23.93   11.19
  -9  15  -5   19.70   10.88
  -8  15  -1  277.55   18.84
   8 -15   2    1.27    9.77
  -8  15  -2    7.22   11.52
   8 -15   3   97.60   12.63
  -8  15  -3   85.90   13.15
   8 -15   4   23.61   10.75
  -8  15  -4   24.74   11.83
   8 -15   5   26.36   10.88
  -8  15  -5    9.81   10.65
  -7  15  -4   -1.71   11.45
  -7  15  -5    2.80   11.24
   7 -15   6    1.16   10.65
  -7  15  -6   12.11   10.93
  10 -16  -1   -5.70    8.23
 -10  16   1   -4.43    8.17
  10 -16   0  127.85   12.04
 -10  16   0  105.08   11.52
  10 -16   1   16.13    9.11
 -10  16  -1    7.22    9.52
  10 -16   2   -9.83   10.50
 -10  16  -2    0.03   10.69
  -9  16   1    0.48    8.05
  -9  16   0   26.10    9.34
   9 -16   1    2.16    8.89
  -9  16  -1    1.05    9.22
   9 -16   2  105.92   12.69
  -9  16  -2  102.40   12.96
   9 -16   3    1.28    9.38
  -9  16  -3   15.07   10.96
  -8  16  -3  -15.80   10.39
   8 -16   4   69.26   11.83
  -8  16  -4  108.43   13.51
   0   0   0    0.00    0.00

_computing_structure_solution     'SHELXT 2014/5 (Sheldrick, 2014)'
;
_shelx_hkl_checksum              76381
loop_
_space_group_symop_operation_xyz
'x, y, z'
'-x+1/2, -y, z+1/2'
'-x, y+1/2, -z'
'x+1/2, -y+1/2, -z+1/2'
'-x, -y, -z'
'x-1/2, y, -z-1/2'
'x, -y-1/2, z'
'-x-1/2, y-1/2, z-1/2'
loop_
_atom_site_label
_atom_site_type_symbol
_atom_site_fract_x
_atom_site_fract_y
_atom_site_fract_z
_atom_site_U_iso_or_equiv
_atom_site_adp_type
_atom_site_occupancy
_atom_site_site_symmetry_order
_atom_site_calc_flag
_atom_site_refinement_flags_posn
_atom_site_refinement_flags_adp
_atom_site_refinement_flags_occupancy
_atom_site_disorder_assembly
_atom_site_disorder_group
Si1 Si 0.4232(4) 1.0569(5) 0.6624(6) 0.013(3) Uiso 1 1 d D . . . .
Si2 Si 0.3082(5) 1.0299(5) 0.8100(6) 0.016(3) Uiso 1 1 d D . . . .
Si3 Si 0.2804(4) 1.0615(5) 1.0301(6) 0.012(3) Uiso 1 1 d D . . . .
Si4 Si 0.1219(4) 1.0647(4) 1.0255(5) 0.003(3) Uiso 1 1 d D . . . .
Si5 Si 0.0721(4) 1.0289(4) 0.8143(5) 0.001(3) Uiso 1 1 d D . . . .
Si6 Si 0.1862(4) 1.0596(5) 0.6704(6) 0.014(3) Uiso 1 1 d D . . . .
Si7 Si 0.4229(4) 0.8282(4) 0.6738(6) 0.007(3) Uiso 1 1 d D . . . .
Si8 Si 0.3073(5) 0.8704(5) 0.8145(6) 0.012(3) Uiso 1 1 d D . . . .
Si9 Si 0.2745(4) 0.8268(4) 1.0308(6) 0.015(3) Uiso 1 1 d D . . . .
Si10 Si 0.1196(4) 0.8267(4) 1.0277(6) 0.010(3) Uiso 1 1 d D . . . .
Si11 Si 0.0693(5) 0.8700(5) 0.8172(5) 0.005(3) Uiso 1 1 d D . . . .
Si12 Si 0.1861(5) 0.8278(4) 0.6806(6) 0.014(3) Uiso 1 1 d D . . . .
O1 O 0.3735(8) 1.0554(12) 0.7548(11) 0.049(6) Uiso 1 1 d D . . . .
O2 O 0.3087(8) 1.0623(9) 0.9187(7) 0.024(5) Uiso 1 1 d D . . . .
O3 O 0.2011(5) 1.0597(14) 1.0324(16) 0.062(7) Uiso 1 1 d D . . . .
O4 O 0.0979(10) 1.0641(9) 0.9127(8) 0.035(5) Uiso 1 1 d D . . . .
O5 O 0.1148(6) 1.0572(10) 0.7233(10) 0.027(5) Uiso 1 1 d D . . . .
O6 O 0.2430(8) 1.0546(12) 0.7532(12) 0.049(6) Uiso 1 1 d D . . . .
O7 O 0.3729(8) 0.8422(11) 0.7635(12) 0.042(6) Uiso 1 1 d D . . . .
O8 O 0.3082(9) 0.8464(11) 0.9275(8) 0.034(5) Uiso 1 1 d D . . . .
O9 O 0.1971(5) 0.8465(10) 1.0286(13) 0.038(6) Uiso 1 1 d D . . . .
O10 O 0.0906(10) 0.8341(10) 0.9176(9) 0.043(6) Uiso 1 1 d D . . . .
O11 O 0.1147(8) 0.8429(12) 0.7285(13) 0.050(7) Uiso 1 1 d D . . . .
O12 O 0.2401(8) 0.8470(11) 0.7622(12) 0.045(6) Uiso 1 1 d D . . . .
O13 O 0.3085(15) 0.9501(5) 0.817(2) 0.091(9) Uiso 1 1 d D . . . .
O14 O 0.0787(12) 0.9495(5) 0.8276(15) 0.055(6) Uiso 1 1 d D . . . .
O15 O 0.4208(10) 1.1258(8) 0.6015(13) 0.045(6) Uiso 1 1 d D . . . .
O16 O 0.4078(10) 0.9968(7) 0.5871(11) 0.032(5) Uiso 1 1 d D . . . .
O17 O 0.4010(9) 0.8663(7) 0.5745(9) 0.024(5) Uiso 1 1 d D . . . .
O18 O 0.1892(9) 1.1302(7) 0.6148(11) 0.035(6) Uiso 1 1 d D . . . .
O19 O 0.1921(10) 1.0027(8) 0.5873(11) 0.041(6) Uiso 1 1 d D . . . .
O20 O 0.1956(10) 0.8705(7) 0.5810(10) 0.039(6) Uiso 1 1 d D . . . .
O21 O -0.0037(5) 1.0488(10) 0.7921(11) 0.026(5) Uiso 1 1 d D . . . .
O22 O -0.0053(6) 0.8507(12) 0.7876(13) 0.050(7) Uiso 1 1 d D . . . .
O23 O 0.4244(14) 0.750000 0.6466(15) 0.025(7) Uiso 1 2 d DS . P . .
O24 O 0.1914(15) 0.750000 0.6548(17) 0.038(8) Uiso 1 2 d DS . P . .
O25 O 0.2841(11) 0.750000 1.0593(13) 0.010(6) Uiso 1 2 d DS . P . .
O26 O 0.1122(14) 0.750000 1.0603(16) 0.030(7) Uiso 1 2 d DS . P . .
loop_
_atom_type_symbol
_atom_type_description
_atom_type_scat_dispersion_real
_atom_type_scat_dispersion_imag
_atom_type_scat_source
O O 0.0000 0.0000 'International Tables Vol C Tables 4.2.6.8 and 6.1.1.4'
Si Si 0.0000 0.0000 'International Tables Vol C Tables 4.2.6.8 and 6.1.1.4'
loop_
_geom_angle_atom_site_label_1
_geom_angle_atom_site_label_2
_geom_angle_atom_site_label_3
_geom_angle
_geom_angle_site_symmetry_1
_geom_angle_site_symmetry_3
O1 Si1 O21 106.1(10) . 6_657
O1 Si1 O16 110.9(12) . .
O21 Si1 O16 110.1(11) 6_657 .
O1 Si1 O15 113.2(13) . .
O21 Si1 O15 108.0(10) 6_657 .
O16 Si1 O15 108.5(11) . .
O1 Si2 O6 110.8(12) . .
O1 Si2 O2 107.0(9) . .
O6 Si2 O2 108.4(10) . .
O1 Si2 O13 110.0(15) . .
O6 Si2 O13 109.8(15) . .
O2 Si2 O13 110.7(13) . .
O19 Si3 O20 111.9(12) 2_575 2_575
O19 Si3 O3 108.6(13) 2_575 .
O20 Si3 O3 108.2(13) 2_575 .
O19 Si3 O2 109.7(11) 2_575 .
O20 Si3 O2 106.6(9) 2_575 .
O3 Si3 O2 111.9(11) . .
O4 Si4 O17 108.2(10) . 2_575
O4 Si4 O16 112.0(11) . 2_575
O17 Si4 O16 110.0(11) 2_575 2_575
O4 Si4 O3 110.9(12) . .
O17 Si4 O3 108.5(12) 2_575 .
O16 Si4 O3 107.2(12) 2_575 .
O4 Si5 O5 107.8(10) . .
O4 Si5 O14 108.6(11) . .
O5 Si5 O14 113.1(11) . .
O4 Si5 O21 110.9(11) . .
O5 Si5 O21 106.3(9) . .
O14 Si5 O21 110.2(12) . .
O19 Si6 O18 107.4(11) . .
O19 Si6 O6 112.9(12) . .
O18 Si6 O6 110.6(12) . .
O19 Si6 O5 110.8(11) . .
O18 Si6 O5 105.5(9) . .
O6 Si6 O5 109.3(10) . .
O7 Si7 O17 111.9(11) . .
O7 Si7 O22 106.0(11) . 6_657
O17 Si7 O22 112.6(12) . 6_657
O7 Si7 O23 110.8(13) . .
O17 Si7 O23 106.2(10) . .
O22 Si7 O23 109.4(13) 6_657 .
O7 Si8 O8 107.2(10) . .
O7 Si8 O12 114.2(13) . .
O8 Si8 O12 109.9(11) . .
O7 Si8 O13 110.4(15) . .
O8 Si8 O13 106.5(14) . .
O12 Si8 O13 108.4(14) . .
O8 Si9 O25 113.2(12) . .
O8 Si9 O18 106.8(11) . 2_575
O25 Si9 O18 107.0(9) . 2_575
O8 Si9 O9 109.6(11) . .
O25 Si9 O9 111.0(12) . .
O18 Si9 O9 108.9(11) 2_575 .
O10 Si10 O15 109.6(12) . 2_575
O10 Si10 O26 108.0(13) . .
O15 Si10 O26 110.7(11) 2_575 .
O10 Si10 O9 109.7(11) . .
O15 Si10 O9 110.0(11) 2_575 .
O26 Si10 O9 108.9(13) . .
O10 Si11 O11 109.0(12) . .
O10 Si11 O22 110.8(12) . .
O11 Si11 O22 105.7(11) . .
O10 Si11 O14 109.9(12) . .
O11 Si11 O14 109.5(13) . .
O22 Si11 O14 111.8(13) . .
O12 Si12 O24 109.8(14) . .
O12 Si12 O20 111.6(11) . .
O24 Si12 O20 109.3(10) . .
O12 Si12 O11 106.9(12) . .
O24 Si12 O11 109.3(14) . .
O20 Si12 O11 110.0(12) . .
Si2 O1 Si1 152.3(14) . .
Si2 O2 Si3 148.1(12) . .
Si3 O3 Si4 173.4(18) . .
Si5 O4 Si4 153.8(14) . .
Si5 O5 Si6 146.2(12) . .
Si2 O6 Si6 160.0(15) . .
Si8 O7 Si7 155.7(14) . .
Si8 O8 Si9 154.1(14) . .
Si9 O9 Si10 151.5(14) . .
Si11 O10 Si10 158.1(16) . .
Si11 O11 Si12 151.2(15) . .
Si12 O12 Si8 162.5(15) . .
Si8 O13 Si2 176(2) . .
Si5 O14 Si11 163.7(16) . .
Si10 O15 Si1 147.6(14) 2_574 .
Si4 O16 Si1 167.7(14) 2_574 .
Si4 O17 Si7 146.7(11) 2_574 .
Si9 O18 Si6 145.4(13) 2_574 .
Si3 O19 Si6 159.3(14) 2_574 .
Si3 O20 Si12 148.2(12) 2_574 .
Si1 O21 Si5 145.8(11) 6_557 .
Si7 O22 Si11 146.6(13) 6_557 .
Si7 O23 Si7 153.6(16) . 7_575
Si12 O24 Si12 153.7(18) 7_575 .
Si9 O25 Si9 148.8(14) 7_575 .
Si10 O26 Si10 146.4(16) 7_575 .
loop_
_geom_bond_atom_site_label_1
_geom_bond_atom_site_label_2
_geom_bond_distance
_geom_bond_site_symmetry_2
Si1 O1 1.601(9) .
Si1 O21 1.607(9) 6_657
Si1 O16 1.607(9) .
Si1 O15 1.610(9) .
Si2 O1 1.599(9) .
Si2 O6 1.602(9) .
Si2 O2 1.603(9) .
Si2 O13 1.605(9) .
Si3 O19 1.601(9) 2_575
Si3 O20 1.603(9) 2_575
Si3 O3 1.604(9) .
Si3 O2 1.607(9) .
Si4 O4 1.597(9) .
Si4 O17 1.603(9) 2_575
Si4 O16 1.604(9) 2_575
Si4 O3 1.604(9) .
Si5 O4 1.591(9) .
Si5 O5 1.604(9) .
Si5 O14 1.610(9) .
Si5 O21 1.610(9) .
Si6 O19 1.604(9) .
Si6 O18 1.605(9) .
Si6 O6 1.606(9) .
Si6 O5 1.610(9) .
Si7 O7 1.602(9) .
Si7 O17 1.605(9) .
Si7 O22 1.605(9) 6_657
Si7 O23 1.612(8) .
Si8 O7 1.596(9) .
Si8 O8 1.599(9) .
Si8 O12 1.600(9) .
Si8 O13 1.600(9) .
Si9 O8 1.599(9) .
Si9 O25 1.601(8) .
Si9 O18 1.602(9) 2_575
Si9 O9 1.612(9) .
Si10 O10 1.602(9) .
Si10 O15 1.602(9) 2_575
Si10 O26 1.607(8) .
Si10 O9 1.616(9) .
Si11 O10 1.595(9) .
Si11 O11 1.602(9) .
Si11 O22 1.606(9) .
Si11 O14 1.613(9) .
Si12 O12 1.596(9) .
Si12 O24 1.605(8) .
Si12 O20 1.605(9) .
Si12 O11 1.609(9) .
