#------------------------------------------------------------------------------
#$Date: 2018-01-11 12:53:52 +0200 (Thu, 11 Jan 2018) $
#$Revision: 205069 $
#$URL: file:///home/coder/svn-repositories/cod/cif/1/54/86/1548627.cif $
#------------------------------------------------------------------------------
#
# This file is available in the Crystallography Open Database (COD),
# http://www.crystallography.net/
#
# All data on this site have been placed in the public domain by the
# contributors.
#
data_1548627
loop_
_publ_author_name
'Gruene, T.'
'Teng, Li.'
'Van Genderen, E.'
'Pinar, A. B.'
'Van Bokhoven, J. A.'
_publ_section_title
;
 Characterization at the level of individual crystals: single crystal MFI
 type zeolite grains
;
_journal_name_full               'Chemistry - A European Journal'
_journal_paper_doi               10.1002/chem.201704213
_journal_year                    2017
_chemical_formula_sum            'O24 Si12'
_chemical_formula_weight         721.20
_space_group_crystal_system      orthorhombic
_space_group_IT_number           62
_space_group_name_Hall           '-P 2ac 2n'
_space_group_name_H-M_alt        'P n m a'
_symmetry_space_group_name_Hall  '-P 2ac 2n'
_symmetry_space_group_name_H-M   'P n m a'
_atom_sites_solution_hydrogens   .
_audit_creation_method           SHELXL-2016/6
_cell_angle_alpha                90
_cell_angle_beta                 90
_cell_angle_gamma                90
_cell_formula_units_Z            8
_cell_length_a                   20.586(4)
_cell_length_b                   20.008(4)
_cell_length_c                   13.467(3)
_cell_measurement_temperature    293(2)
_cell_volume                     5547(2)
_computing_structure_refinement  'SHELXL-2016/6 (Sheldrick, 2016)'
_computing_structure_solution    'SHELXT 2014/5 (Sheldrick, 2014)'
_diffrn_ambient_temperature      293(2)
_diffrn_measured_fraction_theta_full 0.690
_diffrn_measured_fraction_theta_max 0.690
_diffrn_radiation_wavelength     0.02508
_diffrn_reflns_av_R_equivalents  0.1487
_diffrn_reflns_av_unetI/netI     0.1103
_diffrn_reflns_Laue_measured_fraction_full 0.690
_diffrn_reflns_Laue_measured_fraction_max 0.690
_diffrn_reflns_limit_h_max       20
_diffrn_reflns_limit_h_min       -20
_diffrn_reflns_limit_k_max       19
_diffrn_reflns_limit_k_min       -19
_diffrn_reflns_limit_l_max       11
_diffrn_reflns_limit_l_min       -11
_diffrn_reflns_number            6434
_diffrn_reflns_point_group_measured_fraction_full 0.690
_diffrn_reflns_point_group_measured_fraction_max 0.690
_diffrn_reflns_theta_full        0.720
_diffrn_reflns_theta_max         0.720
_diffrn_reflns_theta_min         0.064
_exptl_absorpt_coefficient_mu    0.276
_exptl_crystal_density_diffrn    1.727
_exptl_crystal_F_000             940
_refine_diff_density_max         0.265
_refine_diff_density_min         -0.351
_refine_diff_density_rms         0.061
_refine_ls_extinction_coef       .
_refine_ls_extinction_method     none
_refine_ls_goodness_of_fit_ref   1.677
_refine_ls_hydrogen_treatment    undef
_refine_ls_matrix_type           full
_refine_ls_number_parameters     149
_refine_ls_number_reflns         2095
_refine_ls_number_restraints     48
_refine_ls_restrained_S_all      1.667
_refine_ls_R_factor_all          0.2537
_refine_ls_R_factor_gt           0.2009
_refine_ls_shift/su_max          0.000
_refine_ls_shift/su_mean         0.000
_refine_ls_structure_factor_coef Fsqd
_refine_ls_weighting_details
'w=1/[\s^2^(Fo^2^)+(0.2000P)^2^] where P=(Fo^2^+2Fc^2^)/3'
_refine_ls_weighting_scheme      calc
_refine_ls_wR_factor_gt          0.4854
_refine_ls_wR_factor_ref         0.5187
_reflns_Friedel_coverage         0.000
_reflns_Friedel_fraction_full    .
_reflns_Friedel_fraction_max     .
_reflns_number_gt                1221
_reflns_number_total             2095
_reflns_threshold_expression     'I > 2\s(I)'
_cod_data_source_file            zsm5_ChemEurJ.cif
_cod_data_source_block           z2d
_cod_original_cell_volume        5546.9(19)
_cod_database_code               1548627
_shelx_shelxl_version_number     2016/6
_shelx_space_group_comment
;
The symmetry employed for this shelxl refinement is uniquely defined
by the following loop, which should always be used as a source of
symmetry information in preference to the above space-group names.
They are only intended as comments.
;
_shelx_res_file
;
TITL 07_a.res in Pnma
    z2d.res
    created by SHELXL-2016/6 at 11:17:31 on 31-Oct-2017
REM Old TITL 07 in P222

REM SHELXT solution in Pnma
REM R1 0.271,  Rweak 0.016,  Alpha 0.098,  Orientation a'=b, b'=a, c'=-c
REM Formula found by SHELXT:  O2 Si

CELL  0.02508  20.5860  20.0080  13.4670   90.000   90.000   90.000
ZERR    8.000   0.0041   0.0040   0.0027    0.000    0.000    0.000
LATT  1
SYMM 1/2-X, -Y, 1/2+Z
SYMM -X, 1/2+Y, -Z
SYMM 1/2+X, 1/2-Y, 1/2-Z
SFAC O  0.237  0.799  0.649  3.654  0.800 10.924  0.261 29.964  0.035 =
   0.0 0.0 18.200 0.660 16.00
SFAC Si  0.665  1.394  1.312  8.299  2.609 27.621  1.135 78.294  0.106 =
  0.0 0.0 123.000 1.110 28.100
UNIT 192 96
L.S. 20
LIST 4
RIGU
XNPD 0.001
ISOR 0.05 $O
ACTA
FMAP 2
EQIV $1   x-1/2, y, -z+3/2
EQIV $2   -x+1/2, -y+2, z-1/2
EQIV $3   x, -y+3/2, z
EQIV $4   -x+1/2, -y+2, z+1/2
EQIV $5   x+1/2, y, -z+3/2

DFIX 1.609 0.01 Si1  O1 Si1 O21_$5 Si1 O16 Si1 O15
DFIX 1.609 0.01 Si2  O2 Si2 O13 Si2 O6 Si2 O1
DFIX 1.609 0.01 Si3  O20_$4 Si3 O19_$4 Si3 O2 Si3 O3
DFIX 1.609 0.01 Si4  O4 Si4 O16_$4 Si4 O3 Si4 O17_$4
DFIX 1.609 0.01 Si5  O4 Si5 O5 Si5 O14 Si5 O21
DFIX 1.609 0.01 Si6  O19 Si6 O6 Si6 O5 Si6 O18
DFIX 1.609 0.01 Si7  O23 Si7 O17 Si7 O7 Si7 O22_$5
DFIX 1.609 0.01 Si8  O13 Si8 O8 Si8 O12 Si8 O7
DFIX 1.609 0.01 Si9  O18_$4 Si9 O8 Si9 O25 Si9 O9
DFIX 1.609 0.01 Si10 O15_$4 Si10 O26 Si10 O10 Si10 O9
DFIX 1.609 0.01 Si11 O10 Si11 O14 Si11 O11 Si11 O22
DFIX 1.609 0.01 Si12 O20 Si12 O24 Si12 O11 Si12 O12

PLAN 20
WGHT    0.200000
FVAR       0.40778
SI1   2    0.423867    1.055866    0.665230    11.00000    0.01507
SI2   2    0.307968    1.029450    0.809364    11.00000    0.01750
SI3   2    0.278585    1.061959    1.031902    11.00000    0.01535
SI4   2    0.123481    1.063526    1.028662    11.00000    0.00747
SI5   2    0.072216    1.028507    0.816952    11.00000    0.00932
SI6   2    0.185926    1.058470    0.673661    11.00000    0.01529
SI7   2    0.423216    0.827962    0.675218    11.00000    0.01054
SI8   2    0.307475    0.870028    0.815704    11.00000    0.01461
SI9   2    0.273490    0.828127    1.033195    11.00000    0.01503
SI10  2    0.119922    0.827563    1.029458    11.00000    0.01479
SI11  2    0.069355    0.869829    0.817215    11.00000    0.00872
SI12  2    0.186101    0.827238    0.680456    11.00000    0.01562
O1    1    0.373334    1.054120    0.755823    11.00000    0.06161
O2    1    0.307189    1.059830    0.920361    11.00000    0.04387
O3    1    0.200933    1.058693    1.035334    11.00000    0.05166
O4    1    0.098859    1.064268    0.915437    11.00000    0.05235
O5    1    0.114471    1.053378    0.723039    11.00000    0.05087
O6    1    0.243507    1.053753    0.753627    11.00000    0.05799
O7    1    0.372687    0.843529    0.763426    11.00000    0.05597
O8    1    0.307188    0.843239    0.928014    11.00000    0.04946
O9    1    0.196689    0.846353    1.029864    11.00000    0.02620
O10   1    0.089504    0.833276    0.919166    11.00000    0.05128
O11   1    0.116515    0.843534    0.729940    11.00000    0.03712
O12   1    0.241542    0.847863    0.759378    11.00000    0.05164
O13   1    0.309238    0.949530    0.814052    11.00000    0.06018
O14   1    0.079875    0.948731    0.825486    11.00000    0.04109
O15   1    0.418182    1.126128    0.607865    11.00000    0.04051
O16   1    0.408948    0.997403    0.587300    11.00000    0.04761
O17   1    0.402422    0.868301    0.577473    11.00000    0.03787
O18   1    0.191578    1.130441    0.620758    11.00000    0.03300
O19   1    0.194133    1.002506    0.588983    11.00000    0.03678
O20   1    0.194838    0.871619    0.582702    11.00000    0.03154
O21   1   -0.002632    1.047996    0.795548    11.00000    0.03441
O22   1   -0.005604    0.852113    0.790581    11.00000    0.03519
O23   1    0.427876    0.750000    0.648093    10.50000    0.03163
O24   1    0.190620    0.750000    0.647627    10.50000    0.03533
O25   1    0.284270    0.750000    1.058569    10.50000    0.01759
O26   1    0.112094    0.750000    1.057915    10.50000    0.03258
HKLF 4




REM  07_a.res in Pnma
REM R1 =  0.2009 for    1221 Fo > 4sig(Fo)  and  0.2537 for all    2095 data
REM    149 parameters refined using     48 restraints

END

WGHT      0.2000      0.0000

REM Highest difference peak  0.265,  deepest hole -0.351,  1-sigma level  0.061
Q1    1   0.1831  0.7500  0.3817  10.50000  0.05    0.26
Q2    1   0.2988  0.7500  0.4604  10.50000  0.05    0.25
Q3    1   0.4330  1.0926  0.7374  11.00000  0.05    0.23
Q4    1   0.0988  0.7500  0.4685  10.50000  0.05    0.23
Q5    1   0.2012  1.2500  0.8616  10.50000  0.05    0.21
Q6    1   0.1977  1.1738  0.7074  11.00000  0.05    0.20
Q7    1   0.4357  1.0608  0.6204  11.00000  0.05    0.19
Q8    1   0.1988  1.1602  0.8007  11.00000  0.05    0.19
Q9    1   0.4175  0.7500  0.4203  10.50000  0.05    0.19
Q10   1   0.1252  0.7500  1.3446  10.50000  0.05    0.19
Q11   1   0.1775  0.7744  1.3024  11.00000  0.05    0.19
Q12   1   0.2980  0.7500  1.1566  10.50000  0.05    0.19
Q13   1   0.1911  1.0941  0.7364  11.00000  0.05    0.18
Q14   1   0.4287  0.7590  0.3925  11.00000  0.05    0.18
Q15   1   0.0699  1.2078  0.7423  11.00000  0.05    0.18
Q16   1   0.3183  1.1221  0.8003  11.00000  0.05    0.18
Q17   1   0.1709  0.7903  1.2432  11.00000  0.05    0.17
Q18   1   0.1994  1.1476  0.8817  11.00000  0.05    0.17
Q19   1   0.1531  1.1630  0.8260  11.00000  0.05    0.17
Q20   1   0.1648  0.7500  0.5066  10.50000  0.05    0.17
;
_shelx_res_checksum              8561
_shelx_hkl_file
;
   5   0   1 9999.00  668.06
   6   0   1  148.16   10.19
  -7   0  -1  104.56    7.32
   7   0   1   82.37    5.82
  -8   0  -1   11.18    1.66
   8   0   1   12.99    1.65
  -9   0  -2   91.54    6.64
   9   0   2  113.73    8.20
  -9   0  -1   11.16    1.68
   9   0   1    8.27    1.52
 -10   0  -1    6.60    1.66
  10   0   1    2.60    1.39
 -11   0  -2   82.59    6.00
  11   0   2   98.23    6.99
 -11   0  -1   44.89    3.49
  11   0   1   36.71    2.95
 -12   0  -2  641.54   43.12
  12   0   2  552.45   37.15
 -12   0  -1   25.56    2.36
  12   0   1   22.02    2.10
 -13   0  -1   61.74    4.55
 -14   0  -2    3.26    1.57
  14   0   2    1.94    1.26
 -14   0  -1    5.82    1.46
 -15   0  -2    2.29    1.59
  15   0   2   -0.29    1.21
 -15   0  -1   22.30    2.25
 -16   0  -3   31.99    3.11
  16   0   3   27.77    2.65
 -16   0  -2  334.58   22.68
  16   0   2  301.84   20.42
 -16   0  -1   39.64    3.33
  17   0   4    3.37    1.87
 -17   0  -3   14.76    2.25
  17   0   3   15.07    2.05
 -17   0  -2    0.73    1.65
  17   0   2   -0.27    1.32
 -17   0  -1    3.68    1.65
 -18   0  -4   85.01    6.37
  18   0   4  111.06    8.14
 -18   0  -3    7.90    1.92
  18   0   3    3.68    1.45
 -18   0  -2   23.95    2.45
  18   0   2   26.10    2.36
 -18   0  -1   -0.29    1.54
 -19   0  -3    2.95    1.72
  19   0   3    0.66    1.23
 -19   0  -2    8.45    1.66
  19   0   2    4.23    1.30
 -20   0  -3    2.03    1.70
  20   0   3    1.63    1.21
 -20   0  -2   -0.62    1.32
  20   0   2    0.55    1.17
 -20   1   0   -1.02    1.50
  20  -1   1    2.30    1.46
 -20   1  -1    0.09    1.46
  20  -1   2   -0.26    1.41
 -20   1  -2   -0.48    1.74
  20  -1   3    2.30    1.81
 -20   1  -3    2.58    2.03
 -19   1   0    1.12    1.65
  19  -1   1    0.46    1.61
 -19   1  -1    2.14    1.70
  19  -1   2   -0.13    1.57
 -19   1  -2   -0.38    1.90
  19  -1   3    6.97    1.87
 -19   1  -3    4.99    1.99
  19  -1   4    0.60    2.09
 -19   1  -4    3.16    2.14
 -18   1   0    1.55    1.76
  18  -1   1    9.31    1.96
 -18   1  -1    9.60    1.98
  18  -1   2    0.95    1.70
 -18   1  -2   -0.59    2.16
  18  -1   3   31.59    3.16
 -18   1  -3   21.53    2.96
  18  -1   4    1.59    2.09
 -18   1  -4   -0.37    1.99
 -17   1   0   -0.38    1.85
  17  -1   1    1.79    1.77
 -17   1  -1    2.10    1.85
  17  -1   2    1.98    1.85
 -17   1  -2    4.30    2.23
  17  -1   3    1.81    1.83
 -17   1  -3   10.23    3.31
  17  -1   4    1.72    1.85
 -16   1   0   -0.71    1.68
  16  -1   1   35.63    3.20
 -16   1  -1   33.31    3.20
  16  -1   2   23.14    2.71
 -16   1  -2   18.84    2.73
  15  -1   0    0.16    1.52
 -15   1   0    0.07    1.59
  15  -1   1    3.20    1.63
 -15   1  -1    0.93    1.83
  15  -1   2    0.60    1.92
 -15   1  -2    2.76    2.07
  15  -1   3    3.09    2.41
 -15   1  -3    0.84    2.56
  14  -1   0   12.73    2.01
 -14   1   0   13.56    1.99
  14  -1   1    1.96    1.61
 -14   1  -1    3.59    1.76
  14  -1   2   14.16    2.29
 -14   1  -2   13.12    2.29
  14  -1   3    4.17    2.41
 -14   1  -3    0.51    2.09
  13  -1   0    0.31    1.66
 -13   1   0    1.12    1.59
  13  -1   1    4.57    1.79
 -13   1  -1    6.13    1.88
  13  -1   2  158.60   11.20
 -13   1  -2  161.42   11.41
  13  -1   3   23.93    2.65
  12  -1   0   10.17    1.90
 -12   1   0    7.06    1.88
  12  -1   1   20.87    2.51
 -12   1  -1   19.56    2.54
  11  -1   0   -2.52    1.72
 -11   1   0    0.38    1.83
  11  -1   1   21.93    2.69
 -11   1  -1   14.84    2.49
  11  -1   2    8.21    3.00
 -11   1  -2    8.27    2.69
  10  -1   0   19.32    2.47
 -10   1   0   16.56    2.41
  10  -1   1   59.27    4.87
 -10   1  -1   53.76    4.59
  10  -1   2   -1.04    2.76
 -10   1  -2    3.93    2.58
   9  -1   0   -0.48    1.88
  -9   1   0    2.07    2.01
   9  -1   1    3.57    2.32
  -9   1  -1    1.12    2.34
   9  -1   2    2.34    2.36
  -9   1  -2   -0.49    2.03
   8  -1   0   -1.15    1.85
  -8   1   0   -0.64    2.05
   8  -1   1  106.10    7.76
  -8   1  -1  117.53    8.51
   7  -1   0   -0.51    1.98
  -7   1   0   -1.39    2.09
   7  -1   1   79.30    6.16
  -7   1  -1   73.67    5.87
   6  -1   0  126.46    9.02
  -6   1   0  157.54   11.07
   6  -1   1   25.02    3.82
  -6   1  -1   26.47    3.73
  -5   1   1   27.71    3.26
   5  -1   0    0.59    2.73
  -5   1   0    4.77    2.65
   5  -1   1   48.35    4.52
  -5   1  -1   51.53    4.59
   4  -1  -1   11.29    2.29
  -4   1   1   20.07    2.80
   4  -1   0   76.04    6.02
  -4   1   0   70.10    5.67
   3  -1  -1   10.66    2.56
   3  -1   0   -0.33    2.93
  -3   1   0    3.02    2.93
   2  -1  -1    1.55    2.56
  -2   1   1    8.34    2.65
   2  -1   0   33.37    4.23
   1  -1  -1  104.65    7.63
  -1   1   1  111.09    8.03
   1  -1   0   68.73    6.86
   0  -1  -1  340.80   23.05
  -2  -1  -1   15.51    2.40
   2   1   1   13.90    2.49
 -10  -1  -2    1.88    0.68
 -13  -1  -3   46.72    3.62
  13   1   3   36.26    2.78
 -14  -1  -3    0.93    1.17
  14   1   3    1.41    0.90
 -15  -1  -3    1.12    1.23
  15   1   3    1.48    0.86
  16   1   4    3.48    1.23
 -16  -1  -3   22.34    2.14
  16   1   3   17.80    1.59
 -17  -1  -4   -0.38    1.48
  17   1   4    2.38    1.68
 -17  -1  -3    1.76    1.32
  17   1   3    1.45    0.97
 -18  -1  -3    4.83    1.30
  18   1   3    2.05    0.90
 -19  -1  -4    0.35    1.81
  19   1   4    0.59    0.99
 -19  -1  -3    3.31    1.21
 -20  -1  -3    5.47    1.28
 -20   2   1    0.18    1.66
  20  -2   0    2.51    1.65
 -20   2   0    0.91    1.72
  20  -2   1    3.75    1.79
 -20   2  -1    4.72    1.88
  20  -2   2    0.42    1.79
 -20   2  -2    2.29    1.98
  19  -2  -1    1.26    1.99
 -19   2   1   -0.73    1.83
  19  -2   0   -1.02    1.83
 -19   2   0   -0.11    1.83
  19  -2   1    0.57    1.90
 -19   2  -1   -2.01    1.94
  19  -2   2    0.70    1.99
 -19   2  -2    2.76    2.25
  19  -2   3    2.87    1.85
 -19   2  -3    1.19    2.84
  19  -2   4    7.46    2.40
 -19   2  -4    2.56    2.16
  18  -2  -1    0.75    1.88
 -18   2   1    4.26    2.07
  18  -2   0   18.38    2.58
 -18   2   0   20.16    2.69
  18  -2   1   -0.20    2.01
 -18   2  -1    3.38    2.30
  18  -2   2    1.54    2.25
 -18   2  -2    2.14    2.51
  18  -2   3    0.64    2.07
 -18   2  -3   -2.49    3.15
  18  -2   4   -0.09    2.01
 -18   2  -4    4.55    2.07
  17  -2  -1   -1.90    2.05
 -17   2   1    2.52    2.05
  17  -2   0    5.16    2.10
 -17   2   0    3.38    2.05
  17  -2   1    6.15    2.21
 -17   2  -1    5.69    2.40
  17  -2   2    9.53    2.54
 -17   2  -2   12.16    2.78
  17  -2   3    2.58    3.02
 -17   2  -3   11.40    3.55
  17  -2   4   19.06    2.51
  16  -2  -1   -2.84    1.98
 -16   2   1    2.71    1.96
  16  -2   0   46.01    4.06
 -16   2   0   42.95    3.93
  16  -2   1    2.12    2.16
 -16   2  -1    2.21    2.34
  16  -2   2   20.67    2.95
 -16   2  -2   29.05    3.44
  16  -2   3    3.00    2.82
 -16   2  -3    0.88    3.02
  15  -2  -1    0.91    1.87
 -15   2   1    0.26    1.81
  15  -2   0    0.16    1.90
 -15   2   0   -0.84    1.85
  15  -2   1    3.93    2.20
 -15   2  -1    1.04    2.29
  15  -2   2    5.09    2.21
 -15   2  -2    4.98    2.49
  15  -2   3    6.57    2.78
 -15   2  -3    0.31    2.62
  14  -2  -1    9.18    2.09
 -14   2   1   11.47    2.16
  14  -2   1   25.92    3.20
 -14   2  -1   16.88    2.74
  14  -2   2    1.19    2.09
 -14   2  -2    2.16    2.47
  14  -2   3   11.49    2.56
 -14   2  -3   14.07    2.60
  13  -2  -1   31.10    3.18
 -13   2   1   36.24    3.44
  13  -2   0   -0.99    1.99
 -13   2   0    1.50    1.92
  13  -2   1   68.43    5.67
 -13   2  -1   74.32    6.00
  13  -2   3   46.43    3.93
  12  -2  -1   37.68    3.55
 -12   2   1   28.70    3.05
  12  -2   1   70.06    5.78
 -12   2  -1   69.79    5.78
  12  -2   2   23.40    3.62
 -12   2  -2   16.34    3.31
 -11   2   2    3.46    2.58
  11  -2  -1    1.08    2.09
 -11   2   1    2.73    2.16
  11  -2   0    4.79    2.27
 -11   2   0   -0.91    2.34
  11  -2   1    4.43    2.58
 -11   2  -1    3.93    2.56
  11  -2   2    4.32    3.09
 -11   2  -2   10.57    2.96
 -10   2   2    3.38    2.71
  10  -2  -1   16.66    2.69
 -10   2   1    9.06    2.43
  10  -2   0  190.07   13.43
 -10   2   0  158.47   11.40
  10  -2   1   13.66    2.93
 -10   2  -1   24.02    3.29
  -9   2   2   25.41    3.24
   9  -2  -1    2.27    2.47
  -9   2   1    2.25    2.40
   9  -2   0    1.30    2.67
  -9   2   0    1.55    2.84
   9  -2   2   30.18    3.33
   8  -2  -2    4.65    2.16
  -8   2   2    6.13    2.41
   8  -2  -1    8.62    2.49
  -8   2   1   10.34    2.49
   8  -2   0  288.85   19.98
  -8   2   0  260.13   18.13
   8  -2   1   19.94    3.93
  -8   2  -1   14.74    3.68
   7  -2  -2    8.78    2.45
  -7   2   2    9.38    2.56
   7  -2  -1    4.21    2.34
  -7   2   1   -0.97    2.41
   7  -2   0    3.51    2.89
  -7   2   0   -1.50    2.96
   6  -2  -2   12.46    2.63
  -6   2   2    4.77    2.58
   6  -2  -1   38.73    4.01
  -6   2   1   36.88    3.97
   6  -2   0   20.56    3.77
  -6   2   0   19.06    3.70
   6  -2   1   55.90    5.52
  -6   2  -1   48.00    5.07
   5  -2  -2   12.53    2.85
  -5   2   2   13.85    2.96
   5  -2  -1  200.49   14.12
  -5   2   1  200.13   14.12
   5  -2   0   19.90    3.84
  -5   2   0   10.26    3.44
   5  -2   1  167.80   12.00
  -5   2  -1  160.60   11.43
   4  -2  -2    8.85    3.05
   4  -2  -1  498.85   33.82
  -4   2   1  518.79   35.18
   3  -2  -2   13.76    3.09
  -3   2   2    7.72    3.04
   3  -2   0    1.24    4.41
   2  -2  -2   -1.19    3.02
  -2   2   2   -2.10    2.91
   2  -2  -1    6.20    3.66
  -2   2   1   -4.21    3.48
   2  -2   0  129.86   10.39
  -2   2   0  106.72    9.02
   1  -2  -2   15.77    3.11
  -1   2   2   18.90    3.18
   1  -2  -1  101.78    8.21
  -1   2   1  118.05    9.16
   1  -2   0   -8.87    3.97
  -1   2   0   -2.10    3.55
   0  -2  -1    0.37    3.91
   0   2   1   -4.61    3.77
  -1  -2  -2   18.53    2.95
   1   2   2   14.63    2.80
   1   2   1   60.51    5.73
  -2  -2  -2    2.14    2.62
   2   2   2    0.99    2.54
  -2  -2  -1    6.13    3.73
  -3  -2  -2   11.74    2.56
   3   2   2   16.46    2.74
  -3  -2  -1  147.92   10.57
  -4  -2  -2    6.46    2.38
   5   2   3  172.80   11.84
  -5  -2  -2   38.96    3.53
  -6  -2  -3    0.51    1.35
  -7  -2  -3   13.65    1.68
  -8  -2  -3    7.28    1.34
   8   2   3    7.28    1.35
  -9  -2  -3    0.91    1.08
   9   2   3    3.07    1.17
 -10  -2  -3    2.47    0.91
  10   2   3    4.21    1.21
 -19  -2  -4    5.98    0.88
  20  -3  -2    0.37    1.83
 -20   3   2    0.88    1.88
  20  -3  -1   -1.65    1.83
 -20   3   1   -1.41    1.83
  20  -3   0    1.08    1.81
 -20   3   0    3.80    2.01
  20  -3   1    0.16    2.01
 -20   3  -1    1.41    2.18
  20  -3   2   -0.37    2.07
 -20   3  -2    1.98    2.30
 -19   3   3    3.15    2.05
  19  -3  -2    2.45    1.98
 -19   3   2    0.18    1.96
  19  -3  -1    5.12    2.05
 -19   3   1    3.90    2.09
  19  -3   0    1.46    2.07
 -19   3   0   -0.99    2.10
  19  -3   2    5.89    2.47
 -19   3  -2    0.05    2.27
  19  -3   3    9.38    2.69
 -19   3  -3    9.93    3.37
  19  -3   4    4.35    2.21
 -19   3  -4    1.66    2.18
 -18   3   3    6.31    2.27
  18  -3  -2    4.59    2.16
 -18   3   2    2.73    2.10
  18  -3  -1   11.82    2.51
 -18   3   1    8.32    2.40
  18  -3   0   -0.38    2.30
 -18   3   0   -0.09    2.34
  18  -3   1   14.82    2.96
 -18   3  -1   18.64    3.22
  18  -3   4    2.30    2.05
 -17   3   3   16.46    2.80
  17  -3  -2    4.65    2.30
 -17   3   2    5.18    2.29
  17  -3   0   -3.33    2.43
 -17   3   0    4.15    2.54
  17  -3   1   55.76    5.25
 -17   3  -1   46.67    4.77
  17  -3   2    2.74    2.51
 -17   3  -2    8.73    3.07
  17  -3   3   40.76    4.72
 -17   3  -3   29.84    4.45
  17  -3   4    2.09    2.07
 -16   3   3    1.87    2.29
  16  -3  -2    7.99    2.41
 -16   3   2    4.39    2.29
  16  -3  -1   39.26    3.90
 -16   3   1   33.18    3.51
  16  -3   0   71.51    5.96
 -16   3   0   69.97    5.95
  16  -3   1   51.48    4.96
 -16   3  -1   65.93    5.84
  16  -3   3    6.40    3.18
 -16   3  -3   11.45    3.38
 -15   3   3    2.56    2.20
  15  -3  -2   -2.58    2.18
 -15   3   2    0.99    2.07
  15  -3  -1    3.27    2.21
 -15   3   1   -0.51    2.09
  15  -3   0    0.73    2.40
 -15   3   0    2.10    2.36
  15  -3   1    2.36    2.54
 -15   3  -1   -1.41    2.47
  15  -3   2   10.77    2.73
 -15   3  -2    5.12    3.62
  15  -3   3    2.84    2.78
 -15   3  -3   -0.24    2.67
 -14   3   3    2.27    2.07
  14  -3  -2    2.78    2.14
 -14   3   2    3.93    2.14
  14  -3  -1    0.73    2.12
 -14   3   1    2.03    2.16
  14  -3   0  130.87    9.79
 -14   3   0  149.05   10.96
  14  -3   1    6.29    2.63
 -14   3  -1    7.12    2.58
  14  -3   3    3.91    2.25
 -14   3  -3    0.02    2.29
 -13   3   3   14.89    2.54
  13  -3  -2  117.68    8.73
 -13   3   2  100.58    7.57
  13  -3   0   -0.31    2.47
 -13   3   0    2.91    2.49
  13  -3   1   51.59    4.87
 -13   3  -1   48.55    4.61
  13  -3   2  226.83   16.45
 -13   3  -2  205.07   15.18
 -12   3   3   58.92    4.96
  12  -3  -2    0.71    2.20
 -12   3   2   -1.94    2.20
  12  -3  -1   21.46    3.09
 -12   3   1   25.19    3.13
  12  -3   0  499.22   34.13
 -12   3   0  545.32   37.21
  12  -3   1   36.35    4.01
 -12   3  -1   41.69    4.30
  11  -3  -3   20.45    2.87
 -11   3   3   22.34    2.91
  11  -3  -2    6.62    2.40
 -11   3   2    5.16    2.30
  11  -3  -1  212.02   14.96
 -11   3   1  233.05   16.34
  11  -3   0    5.49    2.93
 -11   3   0    2.20    2.82
  11  -3   2    9.86    3.33
 -11   3  -2    4.21    2.84
  10  -3  -3    9.38    2.49
 -10   3   3   12.09    2.74
  10  -3  -2    1.52    2.51
 -10   3   2   -0.70    2.49
  10  -3  -1   16.30    3.05
 -10   3   1   25.96    3.46
  10  -3   0   48.07    4.94
 -10   3   0   35.09    4.26
   9  -3  -3  226.10   15.82
  -9   3   3  273.48   18.93
   9  -3  -2    6.20    2.74
  -9   3   2    4.17    2.69
   9  -3  -1   69.26    6.02
  -9   3   1   54.09    5.21
   9  -3   0    5.03    3.37
  -9   3   0   -0.82    3.07
   8  -3  -3  152.18   11.01
  -8   3   3  135.02    9.93
   8  -3  -2    6.82    2.65
  -8   3   2    4.23    2.78
   8  -3  -1    8.91    3.13
  -8   3   1   10.52    3.16
   8  -3   0   79.21    6.73
  -8   3   0   77.45    6.70
   8  -3   1   14.27    4.35
  -8   3  -1    6.37    3.93
   7  -3  -3    0.27    2.58
  -7   3   3    2.84    2.71
   7  -3  -2   46.46    4.46
  -7   3   2   58.04    5.16
   7  -3  -1  333.12   23.07
  -7   3   1  328.54   22.83
   7  -3   0   15.62    3.44
  -7   3   0    6.13    3.33
   6  -3  -3    7.46    2.71
  -6   3   3   12.22    2.95
   6  -3  -2  536.54   36.35
  -6   3   2  594.71   40.26
   6  -3  -1    4.46    3.70
  -6   3   1    5.98    3.64
   6  -3   0  488.43   33.48
  -6   3   0  586.84   40.08
   6  -3   1    7.32    3.51
  -6   3  -1    4.61    3.33
   5  -3  -3    4.68    2.82
   5  -3  -2   91.48    7.34
  -5   3   2   85.25    7.02
   5  -3  -1   28.96    4.63
  -5   3   1   23.96    4.43
   5  -3   1    8.95    3.48
   4  -3  -3    3.11    3.05
  -4   3   3    5.67    2.85
   4  -3  -2 1017.28   68.40
   4  -3  -1   80.12    7.34
  -4   3   1   62.00    5.78
   4  -3   0 1041.97   70.54
  -4   3   0  990.57   67.15
   3  -3  -3   77.84    6.44
  -3   3   3   77.62    6.37
   3  -3  -2  247.51   17.47
  -3   3   2  217.14   15.51
   3  -3  -1  127.78   10.13
  -3   3   1  116.33    9.40
   3  -3   0    0.90    4.55
   2  -3  -3   81.46    6.68
  -2   3   3   82.94    6.73
   2  -3  -2  159.59   11.82
  -2   3   2  157.32   11.67
   2  -3  -1    2.10    3.97
  -2   3   1    2.30    4.06
   2  -3   0  134.53   10.50
  -2   3   0  154.03   11.67
   1  -3  -3 1891.51  126.46
  -1   3   3 1953.70  130.67
   1  -3  -2   63.20    6.07
  -1   3   2   56.36    5.71
   1  -3  -1  373.54   25.99
  -1   3   1  388.18   26.93
   1  -3   0   -4.85    3.44
  -1   3   0    1.37    3.46
   0   3   4    0.27    2.56
   0  -3  -3  451.66   30.68
   0   3   3  416.53   28.35
   0   3   2    6.20    3.79
  -1  -3  -4   33.60    3.59
   1   3   4   38.05    3.86
  -1  -3  -3 2074.44  138.64
   1   3   3 1981.14  132.35
  -1  -3  -2   61.46    5.93
   1   3   2   64.26    6.04
   1   3   1  420.19   29.16
  -2  -3  -4   30.59    3.38
   2   3   4   26.76    3.20
  -2  -3  -3   95.89    7.34
   2   3   3   87.39    6.84
  -2  -3  -2  206.89   14.84
   2   3   2  199.76   14.36
  -2  -3  -1   10.65    4.23
   2   3   1    5.60    4.21
  -3  -3  -4    4.98    2.32
   3   3   4   11.84    2.52
  -3  -3  -3   99.57    7.52
   3   3   3  106.25    7.96
  -3  -3  -2  293.60   20.38
   3   3   2  245.68   17.21
  -4  -3  -4  148.10   10.43
   4   3   4  142.38   10.08
  -4  -3  -3   -1.85    2.40
   4   3   3    3.00    2.43
  -4  -3  -2 1015.08   68.16
   4   3   2 1107.28   74.34
  -5  -3  -4  117.53    8.40
   5   3   4  108.75    7.81
  -5  -3  -3    9.55    2.52
   5   3   3   15.16    2.69
  -6  -3  -4   45.00    3.82
   6   3   4   40.14    3.55
  -6  -3  -3   11.21    2.43
   6   3   3   12.09    2.52
  -6  -3  -2  835.81   56.25
  -7  -3  -4   51.28    4.10
   7   3   4   56.40    4.43
  -7  -3  -3    3.40    2.32
   7   3   3    2.41    2.27
  -7  -3  -2   64.76    5.07
  -8  -3  -4    5.16    1.70
   8   3   4    9.95    1.87
  -8  -3  -3  317.39   21.60
  -9  -3  -4   -1.85    1.48
   9   3   4    0.02    1.50
  -9  -3  -3  461.35   31.12
 -10  -3  -4    4.02    1.37
 -11  -3  -4    2.82    1.24
  12   3   5    8.14    1.10
 -12  -3  -4   10.01    1.43
  12   3   4    5.62    1.50
  14   3   5    9.22    1.30
  15   3   5   11.96    1.35
 -15  -3  -4   16.70    1.74
  16   3   5    2.63    0.95
  17   3   5    2.69    0.93
  20  -4  -1    0.09    2.05
 -20   4   1    3.04    2.18
  20  -4   0    3.00    2.14
 -20   4   0   -1.88    2.27
  20  -4   1   -0.95    2.30
 -20   4  -1    1.10    2.52
 -19   4   4    2.54    2.03
  19  -4  -3   -0.79    1.94
 -19   4   3    0.90    2.03
  19  -4  -2    0.48    2.01
 -19   4   2    0.62    2.03
  19  -4  -1   -1.52    2.10
 -19   4   1    4.99    2.29
  19  -4   0    0.07    2.34
 -19   4   0   -2.21    2.40
  19  -4   1    2.03    2.49
 -19   4  -1   -2.45    2.49
  19  -4   2   -1.06    2.18
 -19   4  -2    3.09    2.73
  19  -4   3   -0.53    2.93
 -19   4  -3    2.07    3.18
  19  -4   4   -0.24    2.18
 -19   4  -4    4.48    2.29
 -18   4   4    0.46    2.20
  18  -4  -3    0.59    2.18
 -18   4   3    0.88    2.20
  18  -4  -2    0.37    2.30
 -18   4   2   -0.29    2.27
  18  -4  -1   -0.59    2.41
 -18   4   1    4.12    2.41
  18  -4   0   14.16    3.05
 -18   4   0   11.96    3.07
  18  -4   1    1.88    2.65
 -18   4  -1    3.71    2.82
  18  -4   2    2.20    2.51
 -18   4  -2    0.84    2.91
  18  -4   3    0.77    3.13
 -18   4  -3    0.37    3.20
  18  -4   4   -2.12    2.16
 -17   4   4    1.61    2.43
  17  -4  -3    1.39    2.41
 -17   4   3    3.66    2.38
  17  -4  -2    3.97    2.56
 -17   4   2   -1.01    2.41
  17  -4  -1   -0.77    2.60
 -17   4   1    3.00    2.71
  17  -4   0   -1.26    2.82
 -17   4   0   -0.55    2.80
  17  -4   1   -2.07    2.87
 -17   4  -1    1.08    2.93
  17  -4   2    0.00    2.84
 -17   4  -2    4.66    4.08
  17  -4   3    3.29    3.31
 -17   4  -3    1.85    3.44
 -16   4   4    4.70    2.62
  16  -4  -3    3.24    2.52
 -16   4   3    1.74    2.45
  16  -4  -2    7.35    2.63
 -16   4   2    3.55    2.40
  16  -4  -1    5.62    2.76
 -16   4   1   15.33    3.02
  16  -4   0   52.56    5.32
 -16   4   0   53.25    5.36
  16  -4   1   19.17    3.49
 -16   4  -1   18.48    3.44
  16  -4   2    8.56    3.33
 -16   4  -2   16.79    4.41
  16  -4   3    2.12    3.35
 -16   4  -3    5.96    3.27
  15  -4  -4    0.53    2.63
 -15   4   4    2.51    2.43
  15  -4  -3    0.35    2.36
 -15   4   3    5.65    2.47
  15  -4  -2    1.72    2.41
 -15   4   2    0.38    2.27
  15  -4  -1    0.07    2.60
 -15   4   1    2.82    2.51
  15  -4   0    8.84    3.09
 -15   4   0    2.10    2.73
  15  -4   2    3.38    3.55
 -15   4  -2    0.48    3.57
  15  -4   3    1.17    2.82
 -15   4  -3    3.44    2.76
  14  -4  -4   -0.68    2.41
 -14   4   4    2.93    2.40
  14  -4  -3    7.88    2.54
 -14   4   3   11.49    2.60
  14  -4  -2   -2.29    2.32
 -14   4   2    2.16    2.36
  14  -4  -1    1.54    2.51
 -14   4   1    2.93    2.54
  14  -4   0    3.11    2.76
 -14   4   0    1.12    2.58
  14  -4   1    0.26    2.67
 -14   4  -1    2.93    2.74
  14  -4   2    1.24    3.35
 -14   4  -2    2.23    3.33
  14  -4   3    3.02    2.49
  13  -4  -4    7.19    2.51
 -13   4   4    6.49    2.34
  13  -4  -3   33.04    3.71
 -13   4   3   32.51    3.59
  13  -4  -2    9.31    2.63
 -13   4   2   16.30    2.87
  13  -4  -1    0.53    2.71
 -13   4   1    8.03    2.82
  13  -4   0   21.59    3.64
 -13   4   0   18.11    3.35
  13  -4   1    7.32    2.95
 -13   4  -1    2.80    2.85
  12  -4  -4    2.30    2.36
 -12   4   4    2.65    2.32
  12  -4  -3    4.77    2.45
 -12   4   3    1.88    2.36
  12  -4  -2    4.35    2.58
 -12   4   2    1.39    2.47
  12  -4  -1    8.98    3.00
 -12   4   1    9.53    2.96
  12  -4   0    2.25    2.93
 -12   4   0    0.31    2.76
  12  -4   1   12.00    3.27
 -12   4  -1    6.79    3.40
  12  -4   2    3.60    3.48
 -12   4  -2    2.98    3.13
  11  -4  -4    3.84    2.45
 -11   4   4    3.11    2.38
  11  -4  -3    1.24    2.43
 -11   4   3    4.04    2.45
  11  -4  -2    0.05    2.63
 -11   4   2    2.78    2.52
  11  -4  -1   -0.31    2.95
 -11   4   1    0.95    2.96
  11  -4   0   -0.80    3.07
 -11   4   0   -0.13    3.07
  11  -4   1    1.79    3.79
 -11   4  -1    0.91    3.79
  11  -4   2   -0.46    3.11
 -11   4  -2   -1.02    2.80
  10  -4  -4    0.26    2.40
 -10   4   4   -0.27    2.34
  10  -4  -3   -1.39    2.41
 -10   4   3    2.95    2.63
  10  -4  -1   -2.41    3.16
 -10   4   1    3.24    3.27
  10  -4   0   83.69    7.23
 -10   4   0   68.75    6.24
  10  -4   1    3.99    4.23
 -10   4  -1    3.44    3.86
  10  -4   2    7.57    3.05
 -10   4  -2   10.12    2.78
   9  -4  -4    3.05    2.47
  -9   4   4    4.92    2.62
   9  -4  -3   -2.12    2.73
  -9   4   3    2.91    2.74
   9  -4  -2    7.79    3.07
  -9   4   2    7.50    3.05
   9  -4  -1    4.01    3.70
  -9   4   1    3.53    3.53
   9  -4   0    3.33    3.48
  -9   4   0    3.84    3.35
   9  -4   1    3.27    4.50
  -9   4  -1    5.80    3.97
  -8   4   5   -0.07    0.46
   8  -4  -4   53.32    5.01
  -8   4   4   66.06    5.74
   8  -4  -2   15.24    3.51
  -8   4   2   16.13    3.62
   8  -4  -1    3.53    3.66
  -8   4   1    3.26    3.55
   8  -4   1    6.86    4.32
  -8   4  -1    5.85    4.02
   7  -4  -4   -2.91    2.82
  -7   4   4   -4.52    2.82
   7  -4  -3   -1.32    2.74
  -7   4   3    1.15    2.93
   7  -4  -2    6.90    3.46
  -7   4   2    3.35    3.33
   7  -4  -1   -0.24    3.62
  -7   4   1    3.97    3.57
   7  -4   0   18.06    4.12
  -7   4   0   17.51    4.28
   7  -4   1   12.53    3.95
  -7   4  -1    0.70    3.64
  -6   4   5    3.66    3.04
   6  -4  -4   -2.84    2.74
   6  -4  -3    8.38    3.09
  -6   4   3    3.11    3.04
   6  -4  -2    1.52    3.38
  -6   4   2    1.30    3.51
   6  -4  -1   -1.15    3.66
  -6   4   1   -0.05    3.88
   6  -4   0    7.10    4.65
  -6   4   0    5.85    4.68
   6  -4   1    0.77    3.37
  -6   4  -1   -5.40    3.24
   5  -4  -4    1.46    2.76
  -5   4   4    2.58    2.91
   5  -4  -3    3.86    2.95
   5  -4  -2    2.58    3.75
  -5   4   2    0.00    3.37
   5  -4  -1  119.00    9.64
  -5   4   1  136.59   10.72
   5  -4   0    7.68    5.05
  -5   4   0    8.36    4.81
  -4   4   5    4.13    2.93
   4  -4  -4    0.07    2.69
  -4   4   4    4.50    3.04
   4  -4  -3   16.39    3.66
  -4   4   3   15.73    3.49
   4  -4  -2    1.15    3.99
  -4   4   2    0.42    3.84
   4  -4  -1    8.65    4.34
   4  -4   0   19.56    5.51
  -4   4   0    8.29    5.20
   3  -4  -5    0.09    2.60
  -3   4   5    2.41    2.89
   3  -4  -4    9.95    3.05
  -3   4   4    0.95    2.93
   3  -4  -3  112.81    8.93
  -3   4   3   93.33    7.61
   3  -4  -2   32.51    5.14
  -3   4   2   27.79    4.96
   3  -4   0   17.12    5.23
  -2   4   5    2.38    2.82
   2  -4  -4    1.32    3.02
  -2   4   4   -4.08    2.93
   2  -4  -3    7.85    3.60
  -2   4   3   11.32    3.64
   2  -4  -2   24.77    4.98
  -2   4   2   28.41    4.90
   2  -4   0   73.21    7.01
  -2   4   0   64.98    6.46
   1  -4  -5    2.60    2.60
  -1   4   5    0.42    2.74
   1  -4  -4   16.37    3.00
  -1   4   4   19.98    3.40
  -1   4   3   -1.39    3.57
   1  -4  -2   56.96    6.38
  -1   4   2   60.68    6.55
   1  -4  -1   80.97    8.52
  -1   4   1   62.16    7.50
   0  -4  -5   -1.01    2.63
   0   4   5   -1.94    2.67
   0  -4  -4  112.96    8.58
   0   4   4  110.97    8.47
   0  -4  -3   28.87    4.45
   0   4   3   27.53    4.35
   0   4   2   28.74    4.90
   0  -4  -1    0.37    5.09
   0   4   1   -2.23    5.01
  -1  -4  -5   -1.04    2.62
   1   4   5   -0.04    2.56
  -1  -4  -4   12.90    3.07
   1   4   4    9.55    2.91
  -1  -4  -3    2.65    3.57
   1   4   3    3.82    3.64
  -1  -4  -2   62.43    6.31
   1   4   2   70.63    6.70
  -1  -4  -1   47.51    5.74
   1   4   1   52.63    6.46
  -2  -4  -5    6.68    2.78
   2   4   5    1.15    2.67
  -2  -4  -4    4.66    2.82
   2   4   4    5.96    2.76
  -2  -4  -3   11.80    3.77
   2   4   3    6.48    3.57
  -2  -4  -1   12.57    4.17
   2   4   1   11.95    4.04
  -3  -4  -5    1.92    2.51
   3   4   5   -0.31    2.49
  -3  -4  -4    9.81    2.93
   3   4   4    4.46    2.82
  -3  -4  -3  125.98    9.71
   3   4   3  124.08    9.57
  -3  -4  -1   11.18    3.22
  -4  -4  -5    1.21    2.52
   4   4   5    4.74    2.36
  -4  -4  -4   -0.11    2.60
   4   4   4    2.23    2.73
  -4  -4  -3   26.73    3.91
   4   4   3   22.28    3.75
  -4  -4  -2    4.02    3.93
   4   4   2    1.54    4.19
  -5  -4  -5   22.67    3.02
   5   4   5   28.50    3.27
  -5  -4  -4    2.30    2.67
   5   4   4    6.37    2.60
  -5  -4  -3    4.04    2.96
   5   4   3    3.31    3.20
  -5  -4  -2    2.54    3.60
   5   4   2    2.74    3.79
  -6  -4  -5    4.54    1.99
   6   4   5    5.74    2.21
  -6  -4  -4    1.57    2.58
   6   4   4    6.68    2.65
  -6  -4  -3   10.52    2.87
   6   4   3    8.31    2.96
  -6  -4  -2    3.59    2.89
   6   4   2   13.52    3.24
  -7  -4  -5    0.59    1.87
   7   4   5    0.80    1.94
  -7  -4  -4    2.41    2.43
   7   4   4    0.70    2.49
  -7  -4  -3    4.99    2.60
   7   4   3   15.37    3.40
  -7  -4  -2    3.53    2.20
   8   4   6    1.50    1.59
  -8  -4  -5    6.93    1.85
   8   4   5   11.91    2.10
  -8  -4  -4   80.47    6.27
   8   4   4   92.60    7.13
  -8  -4  -3   12.66    2.78
   9   4   6    0.99    1.66
  -9  -4  -5    0.16    1.61
   9   4   5    3.29    1.68
  -9  -4  -4    5.93    2.03
   9   4   4    7.83    2.36
  -9  -4  -3    3.77    2.58
   9   4   3    3.93    3.11
  10   4   6   -0.64    1.54
 -10  -4  -5    3.57    1.61
  10   4   5    2.47    1.63
 -10  -4  -4    5.73    1.99
  10   4   4    2.36    2.09
 -10  -4  -3    0.40    2.23
  11   4   6    1.48    1.50
 -11  -4  -5    2.45    1.50
  11   4   5   -0.80    1.52
 -11  -4  -4    1.45    1.77
  11   4   4    6.93    1.92
 -11  -4  -3    2.74    1.76
  12   4   6    1.90    1.45
 -12  -4  -5    5.10    1.59
  12   4   5    1.13    1.57
 -12  -4  -4   10.50    1.92
 -13  -4  -6    2.98    3.24
  13   4   6   10.87    1.74
 -13  -4  -5    5.51    1.55
  13   4   5    4.52    1.61
 -13  -4  -4    7.57    1.83
 -14  -4  -6    7.01    2.54
  14   4   6    1.63    1.46
 -14  -4  -5   12.95    1.87
 -14  -4  -4    0.13    1.90
  14   4   4    4.45    2.05
 -15  -4  -6    7.13    2.18
  15   4   6    1.17    1.37
 -15  -4  -5   11.91    1.90
  15   4   5   12.02    2.01
 -15  -4  -4    1.55    1.74
 -16  -4  -6    1.66    1.23
 -16  -4  -5    5.62    1.63
  16   4   5    3.71    1.65
 -17  -4  -6    1.59    1.02
 -17  -4  -5    3.53    1.39
  17   4   5   -0.48    1.46
 -18  -4  -5    0.91    1.17
  18   4   5    0.88    1.34
  19  -5  -3    9.35    2.41
 -19   5   3    5.85    2.30
  19  -5  -2    6.49    2.32
 -19   5   2    8.20    2.56
  19  -5  -1    4.21    2.43
 -19   5   1   -1.87    2.40
  19  -5   0    0.13    2.63
 -19   5   0    2.07    2.65
  19  -5   2    8.69    2.69
 -19   5  -2    8.29    3.75
  19  -5   3   33.62    4.57
 -19   5  -3   38.23    4.98
  19  -5   4    2.36    2.45
  18  -5  -5    1.39    2.78
 -18   5   5    0.11    2.23
  18  -5  -4    2.93    2.18
 -18   5   4    7.30    2.49
  18  -5  -3    2.63    2.40
 -18   5   3    2.62    2.38
  18  -5  -2    4.52    2.56
 -18   5   2   -0.33    2.52
  18  -5  -1   20.63    3.42
 -18   5   1   15.55    3.31
  18  -5   0    8.01    3.11
 -18   5   0    6.57    3.05
  18  -5   1   17.78    3.44
 -18   5  -1   22.52    3.70
  18  -5   3    2.60    3.15
 -18   5  -3    8.71    3.42
  18  -5   4    3.09    2.21
  17  -5  -5    0.33    2.49
 -17   5   5    7.41    2.58
  17  -5  -4   -1.32    2.40
 -17   5   4   -0.75    2.54
  17  -5  -3    1.76    2.62
 -17   5   3    0.20    2.56
  17  -5  -2    3.24    2.74
 -17   5   2    0.68    2.73
  17  -5  -1   17.54    3.53
 -17   5   1   11.71    3.27
  17  -5   0    2.91    3.27
 -17   5   0    7.46    3.29
  17  -5   2    0.49    3.77
 -17   5  -2    7.68    4.21
 -16   5   6   -0.27    1.39
  16  -5  -5    2.98    2.41
 -16   5   5    2.41    2.62
  16  -5  -4    1.24    2.58
 -16   5   4    3.62    2.76
  16  -5  -3  148.89   11.10
 -16   5   3  130.63    9.90
  16  -5  -1  398.24   27.81
 -16   5   1  438.49   30.55
  16  -5   1  385.44   26.91
 -16   5  -1  374.83   26.49
  16  -5   2  195.37   15.09
 -16   5  -2  247.51   18.59
  16  -5   3  149.33   11.51
 -16   5  -3  134.07   10.37
  15  -5  -5    1.45    2.62
 -15   5   5    6.37    2.80
  15  -5  -4  167.35   12.29
 -15   5   4  153.09   11.38
  15  -5  -3   -0.99    2.45
 -15   5   3    2.36    2.58
  15  -5  -2   14.25    3.16
 -15   5   2   23.49    3.51
  15  -5  -1    8.05    3.20
 -15   5   1    4.81    3.00
  15  -5   0    4.50    3.22
 -15   5   0   -0.68    3.00
  15  -5   1    4.76    3.07
 -15   5  -1    9.86    3.42
  15  -5   2   42.60    5.52
 -15   5  -2   27.38    4.85
  14  -5  -5   58.15    5.30
 -14   5   5   48.86    4.83
  14  -5  -4   44.69    4.55
 -14   5   4   54.24    5.12
  14  -5  -3   13.98    3.02
 -14   5   3   17.27    3.04
  14  -5  -2   89.36    7.37
 -14   5   2   92.51    7.57
  14  -5  -1    1.54    3.09
 -14   5   1   -0.53    3.02
  14  -5   0   72.13    6.62
 -14   5   0   77.69    6.90
  14  -5   1    2.80    3.05
 -14   5  -1    4.79    3.02
  14  -5   3    2.18    2.62
 -13   5   6  451.47   31.34
  13  -5  -5   72.99    6.22
 -13   5   5   72.59    6.13
  13  -5  -4   88.15    7.17
 -13   5   4   92.03    7.35
  13  -5  -3    2.20    2.52
 -13   5   3    2.30    2.52
  13  -5  -2  513.67   35.29
 -13   5   2  500.68   34.43
  13  -5  -1   94.59    8.05
 -13   5   1   81.02    7.12
  13  -5   0    8.62    3.35
 -13   5   0    3.59    2.91
  13  -5   1   76.83    7.01
 -13   5  -1   80.38    7.54
  13  -5   2  568.00   39.28
 -13   5  -2  597.45   41.14
 -12   5   6   22.35    3.37
  12  -5  -5    7.46    2.69
 -12   5   5    5.14    2.62
  12  -5  -4   33.55    3.90
 -12   5   4   39.75    4.19
  12  -5  -3   18.33    3.16
 -12   5   3   14.34    2.96
  12  -5  -2   70.74    6.37
 -12   5   2   63.50    5.87
  12  -5  -1   62.56    6.20
 -12   5   1   69.82    6.44
  12  -5   0   18.93    3.66
 -12   5   0   30.13    4.01
  12  -5   1   70.89    7.13
 -12   5  -1   61.50    6.71
 -11   5   6    9.46    2.82
  11  -5  -5    5.36    2.52
 -11   5   5   10.63    2.74
  11  -5  -4    2.34    2.49
 -11   5   4    0.15    2.49
  11  -5  -3   98.42    7.90
 -11   5   3  102.09    8.09
  11  -5  -2    5.76    3.18
 -11   5   2    4.70    2.91
  11  -5   2    6.15    3.13
 -11   5  -2    2.32    2.89
 -10   5   6    3.99    2.56
  10  -5  -5   -3.59    2.49
 -10   5   5   -0.38    2.38
  10  -5  -4    3.51    2.67
 -10   5   4    0.66    2.52
  10  -5  -2    1.23    3.13
 -10   5   2   -4.04    3.29
  10  -5  -1  290.86   20.76
 -10   5   1  239.09   17.36
  10  -5   0    8.38    3.55
 -10   5   0    1.74    3.60
  10  -5   1  224.82   17.01
 -10   5  -1  247.87   18.35
  10  -5   2   -0.29    2.95
   9  -5  -6    0.64    1.46
  -9   5   6    0.11    2.51
   9  -5  -5   45.22    4.52
  -9   5   5   44.42    4.45
   9  -5  -4   26.51    3.66
  -9   5   4   25.65    3.49
   9  -5  -3    6.70    3.18
  -9   5   3    9.24    3.15
   9  -5  -2    4.94    3.42
  -9   5   2    7.85    3.71
   9  -5  -1   59.32    6.26
  -9   5   1   61.39    6.29
   9  -5   1   42.90    5.89
  -9   5  -1   51.44    5.96
  -8   5   6   55.06    4.85
   8  -5  -5  202.50   14.47
  -8   5   5  186.77   13.45
   8  -5  -3  351.59   24.48
  -8   5   3  413.97   28.63
   8  -5  -2   45.02    5.40
  -8   5   2   35.69    4.98
   8  -5  -1   42.59    5.34
  -8   5   1   45.81    5.60
   7  -5  -5   22.01    3.26
   7  -5  -4   13.59    3.15
  -7   5   4   11.01    3.18
   7  -5  -3   56.16    5.69
  -7   5   3   51.55    5.47
   7  -5  -2   98.51    8.56
  -7   5   2   91.39    8.20
   7  -5  -1   39.75    5.10
  -7   5   1   39.35    5.21
   7  -5   0    7.32    5.01
  -7   5   0   10.98    4.72
   7  -5   1   55.72    5.96
  -7   5  -1   56.89    5.76
   6  -5  -6    2.09    2.51
  -6   5   6    1.90    2.67
   6  -5  -5   -0.51    2.60
  -6   5   5   -0.33    2.62
   6  -5  -4   27.18    3.84
   6  -5  -3    7.68    3.68
  -6   5   3    2.25    3.48
   6  -5  -2  379.22   26.63
  -6   5   2  423.48   29.53
   6  -5   0  464.64   32.62
  -6   5   0  373.18   26.80
   6  -5   1   32.96    4.37
  -6   5  -1   36.68    4.43
   5  -5  -6    1.12    2.52
  -5   5   6    3.42    2.63
   5  -5  -5    3.75    2.89
  -5   5   5    2.71    3.00
   5  -5  -4   45.79    4.77
  -5   5   4   41.62    4.70
   5  -5  -3   13.96    3.75
  -5   5   3    8.71    3.46
   5  -5  -2 1166.00   78.77
   5  -5  -1   12.49    4.35
  -5   5   1    5.30    4.26
   5  -5   0    1.61    4.76
  -5   5   0    6.73    4.74
   4  -5  -6   98.47    7.72
  -4   5   6   94.67    7.52
   4  -5  -5   13.96    3.20
  -4   5   5   12.15    3.27
   4  -5  -4   -1.74    3.00
  -4   5   4    0.48    3.18
   4  -5  -3   25.68    4.48
  -4   5   3   24.22    4.43
   4  -5  -2   49.56    5.98
  -4   5   2   63.57    6.62
   4  -5  -1  133.14   10.98
   4  -5   0  218.42   16.46
  -4   5   0  193.72   14.89
  -3   5   6  518.43   35.29
   3  -5  -5   49.57    4.99
  -3   5   5   61.01    5.74
   3  -5  -4  409.77   28.23
  -3   5   4  428.97   29.54
   3  -5  -3    2.20    3.99
  -3   5   3    4.02    3.75
   3  -5  -2 1875.04  125.93
  -3   5   2 1809.00  121.56
   3  -5  -1  114.84   10.28
  -3   5   1   93.28    8.93
   3  -5   0    6.77    4.87
  -3   5   0    6.60    3.93
   2  -5  -6    8.96    2.80
  -2   5   6    7.59    2.78
   2  -5  -5    4.55    2.30
  -2   5   5   11.69    3.33
  -2   5   4   93.15    7.72
   2  -5  -3   75.29    7.19
  -2   5   3   67.34    6.70
   2  -5  -2  227.20   16.74
  -2   5   2  213.48   15.81
   2  -5  -1   17.49    5.98
  -2   5   1   13.17    5.67
   2  -5   0  305.49   21.49
  -2   5   0  315.92   22.13
   1  -5  -6    1.26    2.62
  -1   5   6   -1.76    2.58
   1  -5  -5   23.25    3.62
  -1   5   5   31.68    4.02
   1  -5  -4  173.89   12.86
  -1   5   4  190.07   13.79
  -1   5   3 1323.69   89.20
   1  -5  -2  342.63   24.15
  -1   5   2  342.26   24.15
   1  -5  -1 3058.60  205.07
  -1   5   1 2862.87  192.08
   0  -5  -6    1.37    2.65
   0   5   6    4.37    2.63
   0  -5  -5  103.92    8.10
   0   5   5   97.19    7.70
   0  -5  -4    4.87    3.44
   0   5   4    2.62    3.35
   0   5   2    8.29    4.59
   0   5   1 9212.40  614.65
  -1  -5  -6   -3.44    2.51
   1   5   6   -0.49    2.49
  -1  -5  -5   23.29    3.64
   1   5   5   29.91    3.66
  -1  -5  -4  186.22   13.59
   1   5   4  207.81   15.00
  -1  -5  -3 1365.03   91.90
   1   5   3 1315.64   88.59
  -1  -5  -1 2184.19  146.49
   1   5   1 2162.24  145.03
  -2  -5  -6    8.21    2.76
   2   5   6   13.48    2.85
  -2  -5  -5    7.04    2.96
   2   5   5    6.84    2.82
  -2  -5  -4  114.30    9.07
   2   5   4  103.43    8.32
  -2  -5  -3   72.07    6.82
   2   5   3   86.23    7.61
  -2  -5  -1    6.37    3.91
   2   5   1    5.65    4.08
   3   5   7    2.91    2.12
  -3  -5  -6  552.82   37.46
   3   5   6  529.95   35.96
  -3  -5  -5   69.92    6.00
   3   5   5   61.52    5.41
  -3  -5  -4  485.68   33.29
   3   5   4  553.00   37.78
  -3  -5  -3    2.14    3.70
   3   5   3   -1.94    3.55
  -3  -5  -2 1729.43  116.36
   3   5   2 1995.78  134.09
   4   5   7    3.15    2.09
  -4  -5  -6  114.30    8.47
   4   5   6  111.94    8.38
  -4  -5  -5   13.01    3.00
   4   5   5   12.99    2.96
  -4  -5  -4   -0.93    3.33
   4   5   4   -1.94    3.51
  -4  -5  -2  100.39    8.65
   4   5   2   75.97    7.46
   5   5   7   13.08    2.47
  -5  -5  -6    3.53    2.16
   5   5   6   -0.75    2.18
  -5  -5  -5    9.42    2.80
   5   5   5    9.11    2.74
  -5  -5  -4   81.62    6.97
   5   5   4   95.64    7.96
  -5  -5  -3   32.07    4.24
   5   5   3   24.06    4.24
  -5  -5  -2 1007.40   68.01
   5   5   2  997.89   67.39
   6   5   7   27.70    3.13
  -6  -5  -6    7.68    2.21
   6   5   6    9.27    2.29
  -6  -5  -5    1.61    2.34
   6   5   5    1.99    2.47
  -6  -5  -2  224.82   15.82
   6   5   2  248.79   17.43
   7   5   7    2.95    2.03
  -7  -5  -6   31.56    3.22
   7   5   6   35.43    3.49
  -7  -5  -4   19.02    3.15
   7   5   4   11.49    3.35
   7   5   3   73.17    7.21
  -8  -5  -7  649.95   43.90
   8   5   7  666.60   44.93
  -8  -5  -6   85.48    6.46
   8   5   6   79.54    6.11
  -8  -5  -5  305.86   21.06
   8   5   5  338.24   23.27
  -9  -5  -7   14.63    3.38
   9   5   7   20.54    2.58
  -9  -5  -6    0.27    1.77
   9   5   6    1.19    1.85
  -9  -5  -5   50.27    4.41
   9   5   5   55.04    4.79
  -9  -5  -3   18.02    3.09
   9   5   3   19.37    3.71
 -10  -5  -7   11.25    2.07
  10   5   7   10.43    2.09
 -10  -5  -6    0.82    1.72
  10   5   6   -0.84    1.79
 -10  -5  -5    1.83    2.01
  10   5   5   -0.70    2.25
 -10  -5  -3   19.15    2.89
  10   5   3   13.87    2.74
 -11  -5  -7   51.55    4.24
  11   5   7   59.09    4.74
 -11  -5  -6   14.12    2.20
  11   5   6    8.45    1.99
 -11  -5  -5    9.26    2.30
  11   5   5   13.63    2.58
 -11  -5  -4    2.60    2.12
 -11  -5  -3   51.40    4.17
 -12  -5  -7  217.14   14.98
  12   5   7  172.47   12.06
 -12  -5  -6   42.53    3.70
  12   5   6   53.23    4.39
 -12  -5  -5    9.37    2.29
  12   5   5    5.76    2.25
  12   5   4   62.60    5.60
 -13  -5  -7    0.26    1.77
  13   5   7    0.42    1.79
 -13  -5  -6  560.68   37.81
  13   5   6  644.47   43.45
 -13  -5  -5  157.74   11.25
  13   5   5  127.58    9.35
 -14  -5  -7   15.38    2.12
  14   5   7   10.28    1.90
 -14  -5  -6  136.74    9.71
  14   5   6  164.60   11.63
  15   5   8    3.24    1.34
 -15  -5  -7   -0.91    1.48
  15   5   7    2.09    1.57
 -15  -5  -6   27.82    2.82
  15   5   6   27.75    3.02
 -15  -5  -5    2.69    2.01
  15   5   5    1.28    2.05
 -15  -5  -4  162.90   11.41
 -16  -5  -7   10.65    1.63
  16   5   7   16.88    1.98
 -16  -5  -6   -0.02    1.63
  16   5   6    2.80    1.90
 -16  -5  -5    3.91    1.87
 -17  -5  -6    1.98    1.45
  17   5   6    0.70    1.45
 -17  -5  -5   10.77    1.94
  19  -6  -3   -1.65    2.16
 -19   6   3    0.71    2.56
  19  -6  -2   -2.05    2.27
 -19   6   2    0.60    2.62
  19  -6  -1   -0.57    2.52
 -19   6   1    3.48    2.87
  19  -6   0   -1.28    2.65
 -19   6   0   -1.77    2.71
  19  -6   2   -0.99    2.89
 -19   6  -2    1.23    3.90
  19  -6   3    3.80    3.29
 -19   6  -3    0.73    3.46
  18  -6  -5    1.37    2.34
  18  -6  -4    4.34    2.36
 -18   6   4    2.69    2.36
  18  -6  -3    3.68    2.41
 -18   6   3    0.91    2.63
  18  -6  -2   -1.54    2.54
 -18   6   2    1.21    2.95
  18  -6  -1    0.79    3.00
 -18   6   1    3.70    3.18
  18  -6   0   24.31    3.97
 -18   6   0   19.92    3.80
  18  -6   1    2.78    2.78
 -18   6  -1   11.52    3.59
  18  -6   3    3.18    3.20
 -18   6  -3    1.28    3.11
  18  -6   4   -0.16    2.10
  17  -6  -6    3.31    2.16
 -17   6   6    2.74    2.34
  17  -6  -5    1.37    2.29
 -17   6   5    0.95    2.47
  17  -6  -4    2.96    2.52
 -17   6   4    2.09    2.60
  17  -6  -3   -1.94    2.69
 -17   6   3    1.94    2.87
  17  -6  -2    3.68    2.96
 -17   6   2   -2.25    3.04
  17  -6  -1    9.68    3.62
 -17   6   1    7.59    3.40
  17  -6   0   -2.58    3.27
 -17   6   0   -4.32    3.29
  17  -6   2   -1.34    3.86
 -17   6  -2    6.62    4.17
  17  -6   3    3.53    3.49
 -17   6  -3    3.44    3.26
 -16   6   7    2.87    2.56
  16  -6  -6   -1.87    2.27
 -16   6   6    6.15    2.67
  16  -6  -5    6.37    2.63
 -16   6   5    0.15    2.76
  16  -6  -4    9.02    2.89
 -16   6   4   10.02    3.11
  16  -6  -3    5.40    2.98
 -16   6   3    3.37    3.05
  16  -6  -2    6.71    3.40
 -16   6   2   12.62    3.53
  16  -6  -1    3.95    3.51
 -16   6   1    8.82    3.57
  16  -6   0   41.43    5.25
 -16   6   0   59.53    6.15
  16  -6   1    2.32    3.46
 -16   6  -1    2.16    3.57
  16  -6   2   22.06    4.92
 -16   6  -2   12.49    4.55
  16  -6   3    2.63    3.51
 -16   6  -3    2.32    3.22
 -15   6   7   -0.15    2.49
  15  -6  -6   -0.48    2.40
 -15   6   6    0.22    2.62
  15  -6  -5    0.15    2.67
 -15   6   5    7.87    3.02
  15  -6  -4    3.71    2.87
 -15   6   4    8.71    3.02
  15  -6  -3    4.79    3.11
 -15   6   3    6.60    3.02
  15  -6  -2    5.96    3.22
 -15   6   2   -0.46    2.95
  15  -6  -1   -1.65    3.40
 -15   6   1   -1.66    3.29
  15  -6   0    0.62    3.37
 -15   6   0    4.68    3.22
  15  -6   1    6.42    3.64
 -15   6  -1   16.52    4.72
  15  -6   2   -0.02    4.19
 -15   6  -2    3.82    3.97
  15  -6   3   -1.04    3.13
 -15   6  -3    2.01    2.89
 -14   6   7    6.29    2.80
  14  -6  -6    1.61    2.69
 -14   6   6   -0.11    2.76
  14  -6  -5    7.98    2.93
 -14   6   5    5.32    2.87
  14  -6  -4   -0.93    2.71
 -14   6   4    1.81    2.82
  14  -6  -3    6.35    2.95
 -14   6   3    4.94    3.07
  14  -6  -2   12.33    3.53
 -14   6   2    8.49    3.35
  14  -6  -1    2.20    3.37
 -14   6   1    4.57    3.20
  14  -6   0    1.59    3.16
 -14   6   0   -2.54    2.98
  14  -6   1    1.10    4.13
 -14   6  -1    5.25    4.19
  14  -6   2    7.35    3.95
 -14   6  -2    3.26    3.57
  14  -6   3    0.24    2.60
 -13   6   7   43.48    4.70
  13  -6  -6    0.33    2.76
 -13   6   6    3.31    2.93
  13  -6  -5    9.02    2.98
 -13   6   5    9.44    2.96
  13  -6  -4    2.16    2.78
 -13   6   4    0.00    2.65
  13  -6  -3   61.56    5.82
 -13   6   3   47.96    5.05
  13  -6  -2   28.52    4.30
 -13   6   2   24.00    3.97
  13  -6  -1   15.29    3.75
 -13   6   1   19.17    3.75
  13  -6   0    5.18    3.29
 -13   6   0    7.50    3.44
  13  -6   2   21.48    4.32
 -13   6  -2   19.46    3.93
  12  -6  -6   -0.42    2.74
 -12   6   6   -3.24    2.67
  12  -6  -5    1.30    2.69
 -12   6   5    1.81    2.60
  12  -6  -4    1.90    2.73
 -12   6   4    2.32    2.74
  12  -6  -3    2.25    3.02
 -12   6   3    2.47    2.82
  12  -6  -2    4.98    3.49
 -12   6   2    4.01    3.20
  12  -6  -1    1.90    3.57
 -12   6   1   11.45    3.42
  12  -6   1   12.20    4.45
 -12   6  -1   11.38    4.28
  12  -6   2    0.60    3.55
 -12   6  -2    3.64    3.02
 -11   6   7   -0.53    2.69
  11  -6  -6    2.23    2.58
 -11   6   6   -1.61    2.54
  11  -6  -5   -0.84    2.62
 -11   6   5    3.22    2.74
  11  -6  -4   -0.77    2.76
 -11   6   4    0.04    2.71
  11  -6  -3    5.09    3.16
 -11   6   3    3.05    3.00
  11  -6  -2    8.03    3.51
 -11   6   2    9.59    3.53
  11  -6  -1   18.18    4.04
 -11   6   1    9.00    3.35
  11  -6   0    4.08    3.55
 -11   6   0    6.48    3.64
  11  -6   1    6.86    4.41
 -11   6  -1    4.90    3.97
  11  -6   2    0.73    3.16
 -11   6  -2    5.82    2.85
  10  -6  -7    1.57    3.02
 -10   6   7    7.01    2.76
  10  -6  -6   -0.07    2.49
 -10   6   6    0.97    2.69
  10  -6  -5    0.70    2.71
 -10   6   5    4.41    2.71
  10  -6  -4    3.88    2.93
 -10   6   4    3.49    2.71
  10  -6  -3    0.91    3.15
 -10   6   3    3.70    3.04
  10  -6  -2   -3.70    3.44
 -10   6   2    0.22    3.35
  10  -6  -1    2.49    3.64
 -10   6   1    5.54    3.59
  10  -6   1    2.21    4.41
 -10   6  -1    5.40    3.99
  10  -6   2   -3.59    2.74
   9  -6  -7   -0.48    2.49
  -9   6   7   -3.75    2.40
   9  -6  -6    0.11    2.51
  -9   6   6   -0.05    2.60
   9  -6  -5    4.01    2.71
  -9   6   5   -0.20    2.49
   9  -6  -4   14.47    3.35
  -9   6   4   10.85    3.04
   9  -6  -3    4.50    3.42
  -9   6   3    2.89    3.15
   9  -6  -2    3.75    3.77
  -9   6   2    5.49    3.64
   9  -6  -1    6.88    3.66
  -9   6   1    2.10    3.51
   9  -6   0   -6.33    4.50
  -9   6   0    1.06    4.63
   9  -6   1    0.62    4.41
  -9   6  -1    4.59    4.02
   8  -6  -7    6.90    2.65
  -8   6   7    6.44    2.69
   8  -6  -6    9.99    2.82
   8  -6  -5    0.86    2.73
  -8   6   5    0.44    2.62
   8  -6  -4    8.01    3.16
  -8   6   4    7.21    3.09
   8  -6  -3    6.81    3.88
  -8   6   3   13.21    3.86
   8  -6  -2    6.26    4.04
  -8   6   2    3.60    3.99
   8  -6  -1    3.60    3.88
  -8   6   1    2.54    3.97
   8  -6   1   -1.99    4.30
  -8   6  -1    1.63    3.80
   7  -6  -7    7.92    2.65
  -7   6   7    5.51    2.62
   7  -6  -6   -3.16    2.56
  -7   6   6    2.76    2.63
   7  -6  -5    3.40    2.76
   7  -6  -4    0.26    3.18
  -7   6   4    0.04    3.11
   7  -6  -3   -0.13    3.84
  -7   6   3   -7.34    3.91
   7  -6  -2    5.45    4.34
  -7   6   2    8.43    4.21
   7  -6   0   12.55    5.32
  -7   6   0    1.17    4.72
   7  -6   1    3.71    3.80
  -7   6  -1    4.85    3.79
   6  -6  -7    8.84    2.71
  -6   6   7    9.18    2.71
   6  -6  -6   -2.36    2.65
  -6   6   6   -4.61    2.58
   6  -6  -5   10.35    3.09
  -6   6   5    1.04    2.85
   6  -6  -4    7.66    3.37
   6  -6  -3    8.05    3.91
   6  -6  -2    8.71    4.37
  -6   6   2    5.80    4.15
   6  -6  -1    5.14    4.48
  -6   6   1   14.74    4.70
   6  -6   0   18.22    5.62
  -6   6   0   24.82    5.51
   6  -6   1    0.79    3.51
  -5   6   8   -0.02    0.02
   5  -6  -7   13.85    2.91
  -5   6   7    8.80    2.82
   5  -6  -6    2.73    2.74
  -5   6   6    4.13    2.74
   5  -6  -5   -2.58    2.89
  -5   6   5    1.08    3.02
   5  -6  -4    8.84    3.62
  -5   6   4    4.06    3.62
   5  -6  -3   28.50    4.74
  -5   6   3   25.37    4.85
   5  -6  -2   12.33    4.17
   5  -6   0   -1.81    4.90
  -5   6   0    6.81    4.81
  -4   6   8   -0.57    1.30
  -4   6   7   11.62    2.89
   4  -6  -6    0.82    2.74
  -4   6   6    0.02    2.78
   4  -6  -5    8.31    3.18
  -4   6   5    3.79    3.26
   4  -6  -4    1.28    3.66
  -4   6   4   -0.82    3.64
   4  -6  -3   10.30    4.28
  -4   6   3    9.66    4.34
   4  -6  -2    1.83    4.30
  -4   6   2    0.99    4.24
   4  -6  -1    3.42    5.41
   4  -6   0   21.70    5.12
   3  -6  -7   39.00    4.17
  -3   6   7   41.47    4.28
  -3   6   6    1.02    2.63
   3  -6  -5   19.24    3.35
  -3   6   5   18.84    3.91
   3  -6  -4    3.73    3.75
  -3   6   4    7.74    4.01
   3  -6  -3   76.63    7.30
  -3   6   3   82.89    7.85
   3  -6  -2   18.17    4.76
  -3   6   2    8.82    4.39
   3  -6  -1   39.99    6.68
  -3   6   1   27.33    5.98
   3  -6   0    4.87    4.43
  -3   6   0    8.40    4.21
  -2   6   8    3.27    2.29
   2  -6  -7   -0.16    2.45
  -2   6   7   -1.21    2.41
   2  -6  -6   65.36    5.82
  -2   6   6   54.73    5.16
   2  -6  -5   13.34    3.51
  -2   6   5   11.84    3.73
  -2   6   4   14.09    4.13
   2  -6  -3    9.16    4.32
  -2   6   3    2.76    4.21
   2  -6  -2   68.93    7.28
  -2   6   2   54.50    6.59
   2  -6  -1   16.32    6.22
  -2   6   1   -2.54    5.23
   2  -6   0    7.41    4.12
  -2   6   0   11.34    3.95
  -1   6   8    4.24    2.40
   1  -6  -7    4.68    2.58
  -1   6   7    6.07    2.51
   1  -6  -6    4.23    2.91
  -1   6   6    8.52    2.84
   1  -6  -5    6.73    3.46
  -1   6   5    8.10    3.62
   1  -6  -4   34.70    4.94
  -1   6   4   41.64    5.27
  -1   6   3    7.26    4.28
   1  -6  -2   37.21    5.58
  -1   6   2   39.55    6.04
   1  -6  -1   42.51    7.01
  -1   6   1   52.72    7.28
   0   6   8   39.84    4.08
   0  -6  -7    2.49    2.41
   0   6   7    2.45    2.52
   0  -6  -6   35.14    4.12
   0   6   6   36.93    4.15
   0  -6  -5   10.41    3.42
   0   6   5   -0.49    3.16
   0  -6  -4   55.04    6.13
   0   6   4   65.56    6.57
   0  -6  -3    5.74    4.48
   0   6   3    7.28    4.37
   0  -6  -2   95.22    8.80
   0   6   2  122.87   10.79
   0   6   1    3.11    5.05
  -1  -6  -8   -1.48    2.58
   1   6   8    4.15    2.38
  -1  -6  -7    3.64    2.45
   1   6   7    3.82    2.49
  -1  -6  -6    2.40    2.73
   1   6   6    5.52    2.73
  -1  -6  -5    6.84    3.33
   1   6   5    9.86    3.27
  -1  -6  -4   52.65    5.95
   1   6   4   44.96    5.47
  -1  -6  -3    9.91    4.17
   1   6   3   11.84    4.17
  -1  -6  -2   35.14    6.26
   1   6   2   32.76    6.31
  -1  -6  -1   40.67    5.58
   1   6   1   47.64    5.84
   2   6   8    2.01    2.38
  -2  -6  -7   -1.32    2.38
   2   6   7    5.54    2.47
  -2  -6  -6   61.54    5.52
   2   6   6   60.37    5.40
  -2  -6  -5    3.71    3.18
   2   6   5   -0.55    3.15
  -2  -6  -4    5.98    4.01
   2   6   4    8.47    4.04
  -2  -6  -3    4.70    3.79
   2   6   3    4.57    3.77
  -2  -6  -2   17.91    5.27
   2   6   2   23.67    5.49
  -2  -6  -1   -0.38    3.77
   2   6   1    3.91    3.71
  -3  -6  -8    9.68    3.64
   3   6   8    5.12    2.38
  -3  -6  -7   43.46    4.23
   3   6   7   40.35    4.08
  -3  -6  -6   -0.75    2.51
   3   6   6    3.33    2.58
  -3  -6  -5   18.09    3.71
   3   6   5   19.57    3.68
  -3  -6  -4    2.40    3.91
   3   6   4    1.04    3.62
  -3  -6  -2   23.51    5.20
   3   6   2   20.38    5.21
  -4  -6  -8    0.57    2.82
   4   6   8   -0.04    2.23
  -4  -6  -7   16.01    2.76
   4   6   7   19.63    2.93
  -4  -6  -6    2.07    2.45
   4   6   6    4.72    2.58
  -4  -6  -5    5.20    3.11
   4   6   5    5.73    3.05
  -4  -6  -4    5.84    3.79
   4   6   4   -0.07    3.49
  -4  -6  -3   25.32    4.39
   4   6   3   26.52    4.98
  -4  -6  -2   -4.06    4.24
   4   6   2   -1.39    4.54
  -5  -6  -8   -3.18    2.14
   5   6   8   -0.86    2.20
  -5  -6  -7   14.96    2.63
   5   6   7   18.40    2.82
  -5  -6  -6    3.46    2.45
   5   6   6    0.09    2.49
  -5  -6  -4    2.40    3.29
   5   6   4    8.93    3.60
  -5  -6  -2   12.95    3.80
   5   6   2    4.13    3.86
  -6  -6  -8   -1.10    2.07
   6   6   8    1.21    2.14
  -6  -6  -7   12.31    2.49
   6   6   7   15.31    2.69
  -6  -6  -6    1.90    2.40
   6   6   6    1.74    2.34
  -6  -6  -5   -4.35    2.65
   6   6   5   -0.79    3.02
  -6  -6  -4    5.23    2.96
   6   6   4    1.94    3.42
  -6  -6  -3   13.19    4.19
   6   6   3   11.31    4.98
  -6  -6  -2    3.90    3.09
   6   6   2   -0.53    3.37
  -7  -6  -8    7.54    2.23
   7   6   8    4.87    2.21
  -7  -6  -7    6.42    2.25
   7   6   7    7.59    2.29
  -7  -6  -6   -1.28    2.30
   7   6   6   -0.48    2.27
  -7  -6  -5    1.32    2.62
   7   6   5    4.96    3.16
  -7  -6  -4    5.30    2.67
   7   6   4   -1.45    3.09
  -7  -6  -3    0.20    3.55
   7   6   3    2.25    4.52
  -8  -6  -8   57.77    4.90
   8   6   8   47.18    4.28
  -8  -6  -7    6.53    2.23
   8   6   7    9.62    2.29
  -8  -6  -5   -0.48    2.47
   8   6   5    0.44    2.80
  -8  -6  -3    8.84    3.31
   8   6   3    3.53    3.82
  -9  -6  -8    3.31    2.20
   9   6   8    6.93    2.30
  -9  -6  -7   -1.66    2.05
   9   6   7    2.20    2.14
  -9  -6  -6    1.02    2.23
   9   6   6    0.18    2.23
  -9  -6  -5    4.83    2.38
   9   6   5    4.77    2.74
  -9  -6  -4   11.16    2.71
   9   6   4   14.74    3.48
  -9  -6  -3    1.48    2.71
   9   6   3    6.44    3.18
  10   6   9    0.73    1.99
 -10  -6  -8    7.85    2.30
  10   6   8    3.13    2.20
 -10  -6  -7    2.65    2.03
  10   6   7    0.16    2.01
 -10  -6  -6    4.34    2.29
  10   6   6    2.69    2.29
 -10  -6  -5   -0.04    2.18
  10   6   5   -0.16    2.54
 -10  -6  -4   13.63    2.71
  10   6   4    6.38    3.42
 -10  -6  -3   -1.28    2.16
  10   6   3    5.09    2.43
  11   6   9    3.49    1.96
 -11  -6  -8    4.61    2.12
  11   6   8    2.21    2.16
 -11  -6  -7    1.79    2.09
  11   6   7   -0.27    2.18
 -11  -6  -6   -0.51    2.23
  11   6   6    6.99    2.52
 -11  -6  -5   -2.78    2.29
  11   6   5    3.42    2.54
 -11  -6  -4    7.04    2.73
  11   6   4    3.31    3.29
  12   6   9    6.82    1.96
 -12  -6  -8   15.49    2.49
  12   6   8   15.49    2.51
 -12  -6  -7    6.95    2.21
  12   6   7   11.78    2.47
 -12  -6  -6    1.12    2.25
  12   6   6   -1.39    2.45
 -12  -6  -5    6.11    2.36
  12   6   5   -0.95    2.45
 -12  -6  -4    7.21    2.80
  12   6   4    1.92    3.07
  13   6   9    1.28    1.68
 -13  -6  -8    2.20    1.77
  13   6   8    2.05    1.92
 -13  -6  -7   64.41    5.20
  13   6   7   54.18    4.66
 -13  -6  -6   10.46    2.71
  13   6   6   14.25    2.91
 -13  -6  -4    7.34    2.73
  13   6   4   -0.29    2.63
  14   6   9    8.69    1.98
 -14  -6  -8    2.85    1.66
  14   6   8    1.76    1.70
 -14  -6  -6    3.02    2.41
  14   6   6    5.93    2.62
 -14  -6  -5    2.03    2.34
  14   6   5    5.18    3.09
 -14  -6  -4    3.64    2.36
  14   6   4   -0.24    2.23
 -15  -6  -8   -1.06    1.50
  15   6   8    0.57    1.52
 -15  -6  -7    1.57    1.81
  15   6   7    0.26    1.83
 -15  -6  -6    0.95    2.16
  15   6   6   -1.92    2.30
 -15  -6  -5    8.32    2.51
  15   6   5   13.81    3.44
 -15  -6  -4    3.22    2.01
 -16  -6  -7    2.18    1.66
  16   6   7    4.01    1.77
 -16  -6  -6   -1.06    1.90
  16   6   6   -1.32    1.96
 -16  -6  -5    6.02    2.43
  16   6   5    9.38    2.82
 -17  -6  -6    0.37    1.65
  17   6   6   -0.55    1.74
 -17  -6  -5   -1.90    2.12
  17   6   5    0.77    2.05
 -18  -6  -5    1.76    2.05
  18   6   5    0.33    1.43
  19  -7  -1    5.96    2.91
 -19   7   1    2.16    3.02
  19  -7   0    1.77    2.80
 -19   7   0    2.71    2.95
  19  -7   2    1.26    3.66
 -19   7  -2    2.80    4.04
  18  -7  -4    5.65    2.47
 -18   7   4    0.44    2.69
  18  -7  -3    4.08    2.62
 -18   7   3   -0.27    2.76
  18  -7  -2   -0.13    2.69
 -18   7   2   -0.62    2.96
  18  -7  -1    2.91    3.13
 -18   7   1    1.50    3.16
  18  -7   0   11.20    3.38
 -18   7   0    4.28    3.20
  18  -7   1    0.49    2.98
 -18   7  -1    2.03    3.35
  18  -7   2   -1.41    3.49
 -18   7  -2   10.59    4.32
  18  -7   3    2.01    3.22
 -18   7  -3    1.96    3.22
  17  -7  -5   26.10    3.49
 -17   7   5   24.99    3.68
  17  -7  -4    4.98    2.67
 -17   7   4    8.73    3.13
  17  -7  -3   26.54    3.99
 -17   7   3   19.72    3.84
  17  -7  -2    6.82    3.35
 -17   7   2    6.86    3.51
  17  -7  -1    0.04    3.35
 -17   7   1    4.76    3.48
  17  -7   0    4.77    3.33
 -17   7   0   -5.34    3.31
  17  -7   1   32.71    4.88
 -17   7  -1   32.12    5.76
  17  -7   2   13.39    4.37
 -17   7  -2    9.79    4.35
  17  -7   3   28.98    4.37
 -17   7  -3   30.93    4.28
  16  -7  -6    2.49    2.32
 -16   7   6   -1.61    2.43
  16  -7  -5   -1.01    2.52
 -16   7   5   -4.52    2.74
  16  -7  -4    1.50    2.82
 -16   7   4    1.92    3.11
  16  -7  -3    0.48    3.13
 -16   7   3    4.26    3.57
  16  -7  -2    0.48    3.49
 -16   7   2    1.87    3.64
  16  -7  -1   45.92    5.73
 -16   7   1   57.04    6.27
  16  -7   0    5.52    3.62
 -16   7   0    6.42    3.73
  16  -7   2    0.62    4.46
 -16   7  -2   -3.75    4.19
  16  -7   3   -0.60    3.35
 -16   7  -3   -1.74    3.15
  15  -7  -7    1.30    2.32
 -15   7   7   -2.74    2.58
  15  -7  -6    3.75    2.69
 -15   7   6    1.54    2.76
  15  -7  -5   -0.18    2.78
 -15   7   5    3.02    2.93
  15  -7  -4    1.28    3.09
 -15   7   4    3.64    3.33
  15  -7  -3    7.43    3.44
 -15   7   3    9.24    3.66
  15  -7  -2   11.60    3.88
 -15   7   2    7.06    3.66
  15  -7  -1    4.39    3.59
 -15   7   1    2.49    3.49
  15  -7   0    5.69    3.48
 -15   7   0   -4.10    3.68
  15  -7   1    7.15    4.46
 -15   7  -1    3.49    4.46
  15  -7   2    5.21    4.45
 -15   7  -2    7.19    4.21
  15  -7   3    5.34    3.29
 -14   7   8    1.32    2.58
  14  -7  -7    4.77    2.74
 -14   7   7    4.24    2.85
  14  -7  -6    6.16    2.98
 -14   7   6    6.53    3.11
  14  -7  -5    1.76    2.95
 -14   7   5    3.97    3.02
  14  -7  -3    6.31    3.40
 -14   7   3    8.21    3.57
  14  -7  -2    0.70    3.60
 -14   7   2    0.95    3.51
  14  -7  -1    5.20    3.82
 -14   7   1    7.79    3.62
  14  -7   1    6.16    4.70
 -14   7  -1    3.66    4.34
  14  -7   2    3.51    4.26
 -14   7  -2    4.12    3.73
  13  -7  -8   -1.57    3.16
 -13   7   8    6.82    2.87
  13  -7  -7    2.32    2.60
 -13   7   7   -0.57    2.98
  13  -7  -6    6.26    3.04
 -13   7   6    8.56    3.26
  13  -7  -5    0.33    2.85
 -13   7   5    2.21    2.95
  13  -7  -4   55.06    5.67
 -13   7   4   76.45    6.90
  13  -7  -3    3.35    3.35
 -13   7   3   13.06    3.51
  13  -7  -2   19.13    4.19
 -13   7   2   28.32    4.39
  13  -7  -1    3.70    3.57
 -13   7   1    4.15    3.44
  13  -7   0    7.28    3.77
 -13   7   0    5.27    3.71
  13  -7   1    6.77    4.54
 -13   7  -1    0.75    4.30
  13  -7   2   11.73    3.99
 -13   7  -2   12.24    3.57
 -12   7   9   -0.18    0.80
  12  -7  -8   14.62    3.04
 -12   7   8   18.92    3.55
  12  -7  -7    2.34    2.74
 -12   7   7    2.49    2.93
  12  -7  -6   22.24    3.70
 -12   7   6   21.31    3.70
  12  -7  -5   -2.09    2.82
 -12   7   5   -3.84    2.82
  12  -7  -4    8.05    3.29
 -12   7   4   10.17    3.46
  12  -7  -3   -0.68    3.35
 -12   7   3    3.48    3.27
  12  -7  -2   43.14    5.41
 -12   7   2   49.68    5.58
  12  -7  -1    2.14    3.46
 -12   7   1    4.94    3.29
  12  -7   1    6.31    4.59
 -12   7  -1    0.57    4.08
  12  -7   2   28.57    4.35
 -12   7  -2   19.21    3.71
  11  -7  -8    4.39    2.85
 -11   7   8    3.68    2.96
  11  -7  -7    3.48    2.74
 -11   7   7    3.93    2.98
  11  -7  -6    7.26    2.89
 -11   7   6    0.05    2.76
  11  -7  -5    6.51    2.96
 -11   7   5   -0.44    2.93
  11  -7  -4   -1.34    3.04
 -11   7   4    0.68    3.05
  11  -7  -3    1.24    3.49
 -11   7   3   -0.71    3.18
  11  -7  -2    5.58    3.71
 -11   7   2    5.07    3.51
  11  -7  -1   11.14    3.73
 -11   7   1    7.01    3.33
  11  -7   0    5.27    4.54
 -11   7   0    5.14    4.35
  11  -7   1    8.21    4.76
 -11   7  -1    6.46    3.99
  11  -7   2    6.97    3.33
 -11   7  -2    2.21    2.91
  10  -7  -8    6.18    2.95
 -10   7   8    5.01    2.93
  10  -7  -7    4.65    2.82
 -10   7   7    6.35    3.00
  10  -7  -6    3.09    2.80
 -10   7   6    2.07    2.80
  10  -7  -5    4.35    2.91
 -10   7   5    1.37    2.89
  10  -7  -4   -0.27    3.11
 -10   7   4    2.36    3.04
  10  -7  -3    5.27    3.75
 -10   7   3   14.96    3.73
  10  -7  -2   13.63    4.19
 -10   7   2   10.50    3.68
  10  -7  -1   10.01    3.84
 -10   7   1   16.81    3.99
  10  -7   0    7.45    4.87
 -10   7   0   18.02    5.18
  10  -7   1    9.07    4.50
 -10   7  -1   20.40    4.54
   9  -7  -8    3.62    2.80
  -9   7   8    0.70    2.71
   9  -7  -7    8.25    3.00
   9  -7  -6   -0.99    2.60
  -9   7   6    2.49    2.74
   9  -7  -5  112.74    9.02
  -9   7   5  102.88    8.45
   9  -7  -4    8.25    3.46
  -9   7   4    4.68    3.18
   9  -7  -3   93.88    8.41
  -9   7   3  107.27    9.09
   9  -7  -2    5.96    3.80
  -9   7   2    0.71    3.90
   9  -7   0    0.82    4.90
  -9   7   0   -1.34    4.68
  -8   7   9   35.03    4.23
   8  -7  -8    0.20    2.71
  -8   7   8    2.96    2.78
   8  -7  -7   23.38    3.51
  -8   7   7   14.84    3.33
   8  -7  -6    3.46    2.80
   8  -7  -5   52.34    5.36
  -8   7   5   47.71    5.10
   8  -7  -4    5.21    3.33
  -8   7   4    8.43    3.55
   8  -7  -3    5.93    4.06
  -8   7   3   16.61    4.01
   8  -7  -2    2.01    4.08
  -8   7   2   -4.45    3.90
   8  -7  -1   22.68    4.98
  -8   7   1   23.56    4.98
   8  -7   0   18.77    5.56
  -8   7   0   12.37    5.09
   8  -7   1   13.34    4.34
  -8   7  -1   17.82    4.02
  -7   7   9    4.46    2.87
   7  -7  -8    5.43    2.82
  -7   7   8    7.35    2.85
   7  -7  -7   -2.29    2.56
  -7   7   7    2.30    2.63
   7  -7  -6    4.81    2.82
  -7   7   6    3.33    2.67
   7  -7  -5   44.47    4.92
   7  -7  -4   13.43    3.82
  -7   7   4   12.35    3.26
   7  -7  -3   16.12    4.23
  -7   7   3   12.88    4.32
   7  -7  -2    4.24    4.24
  -7   7   2   14.07    4.30
   7  -7  -1  104.71    9.62
  -7   7   1   78.79    8.09
   7  -7   0   -3.04    5.30
  -7   7   0    7.19    4.87
  -6   7   9   15.86    3.31
   6  -7  -8    7.94    2.82
  -6   7   8    3.62    2.76
   6  -7  -7    8.25    2.82
  -6   7   7    5.40    2.82
   6  -7  -6    6.07    2.84
  -6   7   6    1.99    2.78
   6  -7  -5    0.20    3.05
  -6   7   5    3.59    3.15
   6  -7  -4   10.87    3.91
  -6   7   4   14.58    3.93
   6  -7  -3    9.20    4.13
   6  -7  -2   56.75    6.48
  -6   7   2   47.67    6.00
   6  -7  -1    6.81    5.30
  -6   7   1    4.79    5.25
   6  -7   0   16.17    5.60
  -6   7   0   19.92    5.36
  -5   7   9   -0.07    2.71
  -5   7   8   37.68    4.26
   5  -7  -7    3.90    2.76
  -5   7   7    2.03    2.74
   5  -7  -6    6.33    2.96
  -5   7   6    7.37    2.95
   5  -7  -5   13.77    3.53
  -5   7   5   15.13    3.59
   5  -7  -4   14.31    4.26
  -5   7   4   21.51    4.66
   5  -7  -3   21.18    4.70
  -5   7   3   17.60    4.85
   5  -7  -2   30.95    5.12
   5  -7  -1    0.18    5.91
  -5   7   1    3.70    4.87
   5  -7   0    6.82    5.09
  -5   7   0   14.07    4.83
   4  -7  -9   -0.68    0.46
  -4   7   9    1.77    2.71
   4  -7  -8   50.84    4.96
  -4   7   8   63.15    5.67
  -4   7   7    4.10    2.78
   4  -7  -6   41.32    4.57
  -4   7   6   41.09    4.65
   4  -7  -5   -5.74    3.35
  -4   7   5   -0.20    3.31
   4  -7  -4   -5.21    3.91
  -4   7   4    0.49    4.12
   4  -7  -3    3.35    4.24
  -4   7   3    8.87    4.39
   4  -7  -1   16.37    5.49
  -4   7   1   12.31    5.49
   4  -7   0  442.51   30.92
  -3   7   9    2.47    2.51
   3  -7  -8    5.98    2.74
  -3   7   8    1.17    2.49
   3  -7  -7    2.82    2.63
  -3   7   7    3.20    2.76
   3  -7  -6   13.74    3.27
  -3   7   6   12.95    3.27
  -3   7   5    8.45    3.53
   3  -7  -4   65.67    6.88
  -3   7   4   62.47    6.91
   3  -7  -3   25.19    4.98
  -3   7   3   21.53    5.01
   3  -7  -2   60.02    6.84
  -3   7   2   72.61    7.81
   3  -7  -1   28.46    6.29
  -3   7   1   13.12    5.65
   3  -7   0   -5.38    4.24
  -3   7   0   -4.34    4.04
  -2   7   9   -4.45    2.58
   2  -7  -8    6.37    2.63
  -2   7   8    3.71    2.56
   2  -7  -7    3.93    2.69
  -2   7   7    4.13    2.71
   2  -7  -6    0.95    2.93
  -2   7   6    1.81    2.85
   2  -7  -5    8.32    3.71
  -2   7   5    4.52    3.62
  -2   7   4   11.49    4.57
   2  -7  -3   12.51    4.45
  -2   7   3   16.50    4.79
   2  -7  -2   42.81    5.91
  -2   7   2   49.37    6.55
   2  -7  -1   -5.67    5.27
  -2   7   1   -1.83    5.21
   2  -7   0    9.13    3.97
   1  -7  -9    3.49    3.91
  -1   7   9    0.13    2.49
   1  -7  -8    8.10    2.73
  -1   7   8    5.32    2.63
   1  -7  -7   18.17    3.35
  -1   7   7   20.09    3.29
   1  -7  -6   17.60    3.57
  -1   7   6   15.70    3.35
   1  -7  -5   40.21    5.20
  -1   7   5   49.98    5.58
   1  -7  -4   59.21    6.55
  -1   7   4   53.93    6.33
   1  -7  -3  344.46   24.40
  -1   7   3  407.02   28.65
  -1   7   2   11.01    5.62
   1  -7  -1    7.28    5.23
  -1   7   1    9.91    5.10
   0  -7  -9    3.15    3.77
   0   7   9   -0.40    2.49
   0  -7  -8    0.66    2.43
   0   7   8   -2.41    2.43
   0  -7  -7   59.71    5.47
   0   7   7   61.23    5.54
   0  -7  -6    7.52    3.16
   0   7   6    2.23    2.95
   0  -7  -5    2.67    3.66
   0   7   5    5.67    3.60
   0  -7  -4   17.71    4.43
   0   7   4    9.55    4.48
   0  -7  -3   65.93    6.91
   0   7   3   60.24    6.59
   0  -7  -2    0.31    5.36
   0   7   2   -6.49    5.18
   0   7   1  250.25   18.35
  -1  -7  -9   -0.35    2.36
   1   7   9    1.66    2.52
  -1  -7  -8   11.87    2.76
   1   7   8    8.60    2.71
  -1  -7  -7   19.56    3.22
   1   7   7   16.28    3.13
  -1  -7  -6   16.34    3.46
   1   7   6   21.70    3.59
  -1  -7  -5   41.31    5.21
   1   7   5   50.58    5.63
  -1  -7  -4   57.73    6.35
   1   7   4   54.31    6.07
  -1  -7  -3  300.92   21.68
   1   7   3  320.13   23.10
  -1  -7  -2   15.97    5.41
   1   7   2    0.91    5.29
  -1  -7  -1   12.37    4.26
   1   7   1    6.91    4.12
  -2  -7  -9    0.70    2.49
   2   7   9    3.02    2.54
  -2  -7  -8    6.62    2.54
   2   7   8    2.27    2.47
  -2  -7  -7    3.16    2.58
   2   7   7    7.74    2.63
  -2  -7  -6    0.60    2.91
   2   7   6    3.11    2.80
  -2  -7  -5    5.89    3.80
   2   7   5   11.63    3.75
  -2  -7  -4   13.15    4.46
   2   7   4   15.31    4.21
  -2  -7  -3   30.88    5.32
   2   7   3   31.13    5.51
  -2  -7  -2   16.74    5.29
   2   7   2   22.13    5.54
  -2  -7  -1    1.08    3.49
  -3  -7  -9   -0.35    2.38
   3   7   9    0.66    2.45
  -3  -7  -8    2.32    2.43
   3   7   8    0.71    2.43
  -3  -7  -7    1.77    2.45
   3   7   7   -1.02    2.40
  -3  -7  -6   16.17    3.35
   3   7   6   12.46    3.18
  -3  -7  -4   69.06    6.77
   3   7   4   70.14    6.91
  -3  -7  -3   30.07    5.25
   3   7   3   27.29    5.36
  -3  -7  -2   40.92    6.00
   3   7   2   35.42    5.91
   4   7  10   -0.48    1.04
  -4  -7  -9    2.54    2.40
   4   7   9    3.86    2.51
  -4  -7  -8   62.93    5.45
   4   7   8   61.65    5.45
  -4  -7  -7    5.71    2.54
   4   7   7   -2.60    2.41
  -4  -7  -6   78.35    6.77
   4   7   6   57.20    5.52
  -4  -7  -5    0.27    3.15
   4   7   5    0.07    3.33
  -4  -7  -3   -0.02    4.43
   4   7   3    7.77    5.21
  -5  -7  -9   -1.55    2.43
   5   7   9   -0.26    2.41
  -5  -7  -8   34.34    3.79
   5   7   8   34.06    3.79
  -5  -7  -7   -1.70    2.36
   5   7   7    6.79    2.73
  -5  -7  -6   17.45    3.35
   5   7   6   17.89    3.37
  -5  -7  -5   18.02    3.70
   5   7   5   19.68    3.84
  -5  -7  -3   22.68    5.01
   5   7   3   25.81    5.47
  -5  -7  -2   22.77    4.24
   5   7   2   10.98    3.86
   6   7  10    0.55    2.32
  -6  -7  -9   14.84    2.85
   6   7   9   20.49    3.09
  -6  -7  -8   12.57    2.69
   6   7   8    5.89    2.45
  -6  -7  -7    8.25    2.52
   6   7   7    9.93    2.69
  -6  -7  -6   -1.45    2.63
   6   7   6    2.76    2.78
  -6  -7  -5    2.65    2.96
   6   7   5    3.75    3.09
  -6  -7  -3   13.45    4.37
   6   7   3    7.13    4.94
  -6  -7  -2   30.90    4.15
   6   7   2   37.15    4.63
   7   7  10    3.75    2.45
  -7  -7  -9    4.79    2.49
   7   7   9    3.75    2.43
  -7  -7  -8    3.20    2.40
   7   7   8    2.29    2.30
  -7  -7  -7    5.63    2.49
   7   7   7    5.49    2.49
  -7  -7  -6    9.44    2.89
   7   7   6    8.85    2.95
  -7  -7  -5  107.01    8.60
   7   7   5   79.50    7.06
  -7  -7  -4   13.46    3.26
   7   7   4   11.63    3.88
   8   7  10    5.56    2.36
  -8  -7  -9   29.96    3.62
   8   7   9   26.95    3.44
  -8  -7  -8    1.50    2.38
   8   7   8   -0.24    2.29
  -8  -7  -7   22.67    3.22
   8   7   7   24.38    3.27
  -8  -7  -6    7.87    2.80
   8   7   6    3.04    2.84
  -8  -7  -5   52.79    5.18
   8   7   5   67.98    6.27
  -8  -7  -4   11.21    3.11
  -8  -7  -3   17.27    3.64
   8   7   3   15.88    4.08
   9   7  10    0.00    2.12
  -9  -7  -9    2.51    2.34
   9   7   9   -0.75    2.23
  -9  -7  -8    2.36    2.43
   9   7   8    2.43    2.30
  -9  -7  -6   -1.06    2.63
   9   7   6   -0.90    2.85
  -9  -7  -5  181.50   13.28
   9   7   5  139.23   10.65
  -9  -7  -4    8.93    2.96
   9   7   4   10.88    4.28
  -9  -7  -3   70.01    6.06
   9   7   3   62.36    5.74
  10   7  10    5.56    2.07
 -10  -7  -9    5.67    2.30
  10   7   9    8.36    2.43
 -10  -7  -8    5.98    2.45
  10   7   8    2.98    2.38
 -10  -7  -7    7.79    2.62
  10   7   7    5.82    2.63
 -10  -7  -6    2.91    2.58
  10   7   6    3.82    2.95
 -10  -7  -5    5.36    2.49
  10   7   5   11.89    3.18
 -10  -7  -4   -0.86    3.04
  10   7   4    6.26    3.84
 -10  -7  -3    4.04    2.32
  10   7   3    5.69    2.63
  11   7  10    6.86    2.09
 -11  -7  -9    2.30    2.21
  11   7   9    0.20    2.09
 -11  -7  -8    4.08    2.32
  11   7   8    1.81    2.34
 -11  -7  -7    1.12    2.52
  11   7   7    3.16    2.63
 -11  -7  -6    2.18    2.58
  11   7   6    4.98    3.00
 -11  -7  -5   11.80    2.67
  11   7   5   16.08    3.49
 -11  -7  -4    0.77    2.76
  11   7   4    4.52    3.53
 -12  -7  -9   -0.05    1.90
  12   7   9   -0.84    1.94
 -12  -7  -8   15.73    2.65
  12   7   8   24.04    3.09
 -12  -7  -7    1.90    2.54
  12   7   7    1.70    2.63
 -12  -7  -6   34.63    4.01
  12   7   6   40.14    4.57
 -12  -7  -5    2.56    2.49
  12   7   5    1.55    3.09
 -12  -7  -4   17.05    3.31
  12   7   4   16.88    3.64
 -13  -7  -9    0.40    1.72
  13   7   9    2.54    1.83
 -13  -7  -8    3.02    2.07
  13   7   8    5.62    2.18
 -13  -7  -7    4.70    2.51
  13   7   7    4.10    2.84
 -13  -7  -5    3.37    2.73
  13   7   5    1.74    3.35
 -13  -7  -4   57.07    5.30
  13   7   4   51.93    4.92
 -14  -7  -8   -0.86    1.81
  14   7   8    1.28    1.88
 -14  -7  -7    4.79    2.47
  14   7   7    5.76    2.58
 -14  -7  -6   15.15    3.02
  14   7   6   20.16    3.29
  14   7   5    3.66    3.59
 -14  -7  -4    9.64    2.62
 -15  -7  -7   -1.06    2.16
  15   7   7   -1.50    2.18
 -15  -7  -6    4.79    2.40
  15   7   6    4.10    2.56
 -15  -7  -5    4.02    3.02
  15   7   5   -2.20    3.24
 -15  -7  -4    0.18    2.18
 -16  -7  -7   13.59    2.51
  16   7   7   10.94    2.45
 -16  -7  -6    3.55    2.03
  16   7   6    1.72    2.36
 -16  -7  -5    4.63    2.63
  16   7   5    2.23    2.69
 -17  -7  -5   31.06    3.57
  17   7   5   24.48    2.93
  18  -8  -3   13.54    3.26
 -18   8   3   11.54    3.46
  18  -8  -2   34.03    4.55
 -18   8   2   33.11    4.83
  18  -8  -1    5.91    3.24
 -18   8   1    6.51    3.57
  18  -8   1    4.85    3.18
 -18   8  -1   12.53    4.52
  18  -8   2   29.47    5.10
 -18   8  -2   41.62    5.95
  18  -8   3    3.09    3.20
 -18   8  -3    6.31    3.09
  17  -8  -5    4.06    2.56
 -17   8   5    4.48    2.96
  17  -8  -4   88.21    7.59
 -17   8   4   90.90    8.01
  17  -8  -3   36.26    4.77
 -17   8   3   30.66    4.63
  17  -8  -2   27.00    4.50
 -17   8   2   32.07    4.83
  17  -8  -1   13.37    3.84
 -17   8   1    5.41    3.53
  17  -8   0   20.51    4.06
 -17   8   0   19.30    4.34
  17  -8   1    0.66    4.02
 -17   8  -1    6.46    4.65
  17  -8   3   22.43    4.02
 -17   8  -3   29.31    4.17
  16  -8  -6    2.29    2.45
 -16   8   6   -2.10    2.67
  16  -8  -5    1.12    2.69
 -16   8   5   -0.13    2.80
  16  -8  -4   15.82    3.60
 -16   8   4   18.38    4.01
  16  -8  -3    4.94    3.38
 -16   8   3    2.98    3.71
  16  -8  -2   11.65    4.01
 -16   8   2    2.41    3.80
  16  -8  -1   60.48    6.68
 -16   8   1   60.57    6.57
  16  -8   1   51.29    6.99
 -16   8  -1   51.28    7.17
  16  -8   2    3.90    4.43
 -16   8  -2    5.23    4.30
  16  -8   3    3.44    3.42
 -16   8  -3    6.86    3.26
  15  -8  -7    0.20    2.36
 -15   8   7    4.50    2.80
  15  -8  -5    4.55    3.02
 -15   8   5    2.84    3.27
  15  -8  -4    3.22    3.31
 -15   8   4    6.90    3.60
  15  -8  -3   14.43    3.95
 -15   8   3   17.16    4.37
  15  -8  -2    1.90    3.79
 -15   8   2    9.09    4.01
  15  -8  -1   84.62    8.16
 -15   8   1   72.29    7.26
  15  -8   0    3.31    4.04
 -15   8   0    8.45    4.28
  15  -8   2    2.29    4.52
 -15   8  -2    4.35    4.13
  15  -8   3    3.31    3.31
  14  -8  -8    1.46    2.40
 -14   8   8   -2.05    2.62
  14  -8  -7    8.38    2.80
 -14   8   7   11.74    3.15
  14  -8  -6   -0.18    2.82
 -14   8   6    3.79    2.93
  14  -8  -5   68.82    6.59
 -14   8   5   80.64    7.39
  14  -8  -4   -5.27    3.31
 -14   8   4    6.13    3.75
  14  -8  -3  211.47   16.12
 -14   8   3  219.70   16.66
  14  -8  -2   24.77    4.70
 -14   8   2   21.95    4.61
  14  -8  -1   10.83    3.97
 -14   8   1    8.47    3.73
  14  -8   0    5.03    3.95
 -14   8   0    1.34    3.88
  14  -8   1   12.84    5.03
 -14   8  -1   18.40    5.14
  14  -8   2   32.71    5.27
 -14   8  -2   22.65    4.54
  13  -8  -8   -1.06    2.36
 -13   8   8   -0.91    2.74
  13  -8  -7    3.77    2.73
 -13   8   7   -2.12    2.91
  13  -8  -6    9.13    3.35
 -13   8   6   13.92    3.55
  13  -8  -5   11.40    3.59
 -13   8   5    1.59    3.37
  13  -8  -4   44.67    5.40
 -13   8   4   54.07    6.04
  13  -8  -3  172.34   13.56
 -13   8   3  137.60   11.34
  13  -8  -2   53.51    6.27
 -13   8   2   45.60    5.73
  13  -8  -1   70.15    7.02
 -13   8   1   97.59    8.67
  13  -8   0    4.66    3.82
 -13   8   0   13.06    4.55
  13  -8   1  133.61   11.87
 -13   8  -1  124.92   11.07
  13  -8   2   41.34    5.45
 -13   8  -2   29.07    4.43
  12  -8  -9   40.24    4.45
 -12   8   9   31.32    4.04
  12  -8  -8    8.03    2.93
 -12   8   8   12.31    3.22
  12  -8  -7   20.23    3.60
 -12   8   7   18.95    3.75
  12  -8  -6    7.87    3.16
 -12   8   6    6.53    3.27
  12  -8  -5   95.12    8.23
 -12   8   5   83.23    7.52
  12  -8  -4   76.45    7.35
 -12   8   4   86.40    7.94
  12  -8  -3  119.33   10.12
 -12   8   3  116.33    9.91
  12  -8  -2  146.69   11.98
 -12   8   2  117.31    9.97
  12  -8   2   98.60    8.41
 -12   8  -2   82.70    7.23
  11  -8  -9    5.03    2.62
 -11   8   9    2.29    2.74
  11  -8  -8   12.71    3.18
 -11   8   8   17.23    3.59
  11  -8  -7    2.78    2.91
 -11   8   7   -1.17    3.09
  11  -8  -6   36.68    4.55
 -11   8   6   36.51    4.61
  11  -8  -5    2.67    3.15
 -11   8   5    3.11    3.18
  11  -8  -4   15.57    3.82
 -11   8   4    7.72    3.62
  11  -8  -3   -0.05    3.66
 -11   8   3   -5.34    3.24
  11  -8  -2   49.59    6.06
 -11   8   2   42.26    5.43
  11  -8  -1    8.98    3.91
 -11   8   1    6.97    4.01
  11  -8   0    0.26    4.92
 -11   8   0   17.58    4.99
  11  -8   1    6.11    4.57
 -11   8  -1    5.71    4.02
  11  -8   2   30.46    4.26
 -10   8  10   -0.75    2.58
  10  -8  -9    1.59    2.73
 -10   8   9    3.15    2.40
  10  -8  -8    6.04    3.04
  10  -8  -7    0.86    2.89
 -10   8   7    1.01    3.13
  10  -8  -6   55.79    5.58
 -10   8   6   47.20    5.23
  10  -8  -5    4.48    3.09
 -10   8   5    5.20    3.26
  10  -8  -4   40.14    5.21
 -10   8   4   34.26    4.81
  10  -8  -3    1.28    3.84
 -10   8   3    2.32    3.55
  10  -8  -2    8.58    3.88
 -10   8   2   -0.57    3.31
  10  -8  -1   10.24    4.26
 -10   8   1    9.24    4.01
  10  -8   0    9.29    4.99
 -10   8   0   24.75    5.30
  10  -8   1    6.55    4.15
 -10   8  -1    7.02    3.91
  -9   8  10   28.67    3.90
   9  -8  -9    2.73    2.74
  -9   8   9   -0.09    2.84
   9  -8  -8   42.26    4.81
  -9   8   8   42.04    4.90
   9  -8  -7    0.51    2.91
   9  -8  -6   65.03    6.13
  -9   8   6   66.31    6.35
   9  -8  -5    9.13    3.37
  -9   8   5    9.11    3.42
   9  -8  -4  952.89   65.03
  -9   8   4  894.17   61.10
   9  -8  -3   13.19    4.19
  -9   8   3   10.46    3.70
   9  -8  -2   33.17    5.05
  -9   8   2   31.39    4.65
   9  -8  -1   -0.79    3.99
  -9   8   1   14.09    4.30
   9  -8   0   -0.79    5.01
  -9   8   0   -1.74    4.63
   9  -8   1   -2.05    4.02
  -9   8  -1    0.04    3.64
  -8   8  10    3.53    2.85
   8  -8  -9    1.66    2.82
  -8   8   9    1.99    3.11
   8  -8  -8   21.11    3.66
  -8   8   8   19.41    3.71
   8  -8  -7    7.54    3.02
  -8   8   7    9.35    3.13
   8  -8  -6   48.66    5.21
   8  -8  -5  101.65    8.65
  -8   8   5   89.60    7.90
   8  -8  -4   87.70    8.10
  -8   8   4  101.09    8.85
   8  -8  -3   90.61    8.40
  -8   8   3   76.39    7.48
   8  -8  -1   10.99    4.68
  -8   8   1    7.15    4.81
   8  -8   0  364.03   26.67
  -8   8   0  385.98   28.01
   8  -8   1    6.31    3.80
  -8   8  -1    2.47    3.51
  -7   8  10   64.43    6.04
   7  -8  -9    4.43    2.95
  -7   8   9    3.55    3.04
   7  -8  -8   15.73    3.35
  -7   8   8   10.92    3.24
   7  -8  -7    3.48    2.84
  -7   8   7    0.71    2.80
   7  -8  -6    1.76    3.00
  -7   8   6    4.12    3.04
   7  -8  -5   35.07    4.76
  -7   8   5   46.01    5.40
   7  -8  -4  133.52   10.92
   7  -8  -3  163.70   12.99
  -7   8   3  193.36   14.87
   7  -8  -1  118.10   11.16
  -7   8   1  100.89   10.17
   7  -8   0   51.24    7.19
  -7   8   0   34.32    5.98
   7  -8   1   66.02    6.53
  -7   8  -1   59.98    5.95
  -6   8  10    3.53    2.98
  -6   8   9   52.30    5.34
   6  -8  -8   12.35    3.33
  -6   8   8    8.80    3.13
   6  -8  -7  219.70   15.97
  -6   8   7  213.48   15.49
   6  -8  -6    2.60    3.11
  -6   8   6    0.60    3.00
   6  -8  -5    9.99    3.64
  -6   8   5   10.19    3.77
   6  -8  -4   18.06    4.30
  -6   8   4   13.96    4.02
   6  -8  -3  127.14   10.72
   6  -8  -2   20.60    4.88
  -6   8   2    4.19    4.72
   6  -8  -1   10.46    6.09
  -6   8   1   11.52    5.54
   5  -8 -10    2.10    5.52
  -5   8  10    3.82    2.96
   5  -8  -9   30.59    4.04
  -5   8   9   38.95    4.52
  -5   8   8    0.62    2.89
   5  -8  -7   74.58    6.66
  -5   8   7   71.89    6.46
   5  -8  -6    3.29    3.07
  -5   8   6    1.94    3.04
   5  -8  -5  270.37   19.70
  -5   8   5  296.53   21.38
   5  -8  -4   16.28    4.43
  -5   8   4   13.98    4.17
   5  -8  -3   77.47    7.81
  -5   8   3   61.14    6.95
   5  -8  -2   14.60    4.77
  -5   8   2    5.89    4.48
   5  -8  -1   55.67    7.65
   5  -8   0    5.84    5.01
  -5   8   0   13.28    4.70
   4  -8 -10    3.07    4.61
  -4   8  10    1.92    2.84
   4  -8  -9    4.83    2.80
  -4   8   9    5.84    2.95
   4  -8  -8    6.46    2.82
  -4   8   8    6.11    3.02
  -4   8   6   16.10    3.59
   4  -8  -5  252.44   18.51
  -4   8   5  279.70   20.29
   4  -8  -4   21.62    4.70
  -4   8   4   19.99    4.45
   4  -8  -3  690.93   47.62
  -4   8   3  781.66   53.64
   4  -8  -2   18.27    5.18
  -4   8   2   22.35    5.41
   4  -8  -1  294.15   22.13
  -4   8   1  249.52   19.37
   4  -8   0   24.15    4.90
   3  -8 -10    0.57    2.76
  -3   8  10   -0.59    2.80
   3  -8  -9    5.14    2.78
  -3   8   9    3.16    2.67
   3  -8  -8   16.63    3.33
  -3   8   8   23.23    3.51
   3  -8  -7    0.46    2.78
  -3   8   7    5.21    2.89
   3  -8  -6    1.74    3.24
  -3   8   6    3.84    3.27
  -3   8   5   51.29    5.84
   3  -8  -4  267.63   19.74
  -3   8   4  275.68   20.29
   3  -8  -3   69.86    7.23
  -3   8   3   71.56    7.57
   3  -8  -2   -0.29    4.77
  -3   8   2   -0.70    4.92
   3  -8  -1   59.32    7.70
  -3   8   1   47.78    6.97
   3  -8   0    3.35    4.02
  -3   8   0   -1.63    3.79
  -2   8  11    0.33    0.70
   2  -8 -10    1.85    2.82
  -2   8  10    6.77    3.02
   2  -8  -9   44.78    4.79
  -2   8   9   36.09    4.24
   2  -8  -8    7.10    2.93
  -2   8   8    3.53    2.67
   2  -8  -7   30.92    4.08
  -2   8   7   26.09    3.80
   2  -8  -6    9.95    3.42
  -2   8   6    7.92    3.37
   2  -8  -5    6.35    3.80
  -2   8   5    6.99    3.73
  -2   8   4  193.17   15.04
  -2   8   3   24.24    5.20
   2  -8  -2   87.81    9.38
  -2   8   2   90.53    9.86
   2  -8  -1   15.46    5.23
  -2   8   1    3.62    5.03
   1  -8 -10    9.02    3.09
  -1   8  10   11.32    3.05
   1  -8  -9    5.67    2.87
  -1   8   9   -0.51    2.71
   1  -8  -8  431.35   29.84
  -1   8   8  394.76   27.37
   1  -8  -7   39.81    4.54
  -1   8   7   43.21    4.76
   1  -8  -6  454.77   31.63
  -1   8   6  460.80   32.05
   1  -8  -5   42.26    5.38
  -1   8   5   28.15    4.72
   1  -8  -4  548.98   38.20
  -1   8   4  554.28   38.58
   1  -8  -3   26.91    5.20
  -1   8   3   27.99    5.62
  -1   8   2   94.01    9.68
   1  -8  -1   44.84    6.27
  -1   8   1   42.42    6.20
   0  -8 -10   36.53    4.35
   0   8  10   41.34    4.59
   0  -8  -9   -0.29    2.63
   0   8   9    0.70    2.67
   0  -8  -8   22.46    3.51
   0   8   8   18.11    3.29
   0  -8  -7    2.36    2.85
   0   8   7    0.55    2.85
   0  -8  -6  378.67   26.62
   0   8   6  367.14   25.85
   0  -8  -5    9.57    4.04
   0   8   5    0.38    3.57
   0  -8  -4 1012.16   68.91
   0   8   4 1086.61   73.85
   0  -8  -3   18.59    4.83
   0   8   3   17.78    5.32
   0  -8  -2  122.58   11.21
   0   8   2   95.07    9.99
   0  -8  -1   -4.63    3.86
   0   8   1    5.60    4.24
   1   8  11    2.27    2.45
  -1  -8 -10   17.12    3.37
   1   8  10    7.01    2.84
  -1  -8  -9    4.39    2.71
   1   8   9    1.92    2.73
  -1  -8  -8  411.41   28.45
   1   8   8  377.39   26.18
  -1  -8  -7   25.26    3.79
   1   8   7   36.44    4.30
  -1  -8  -6  537.27   37.12
   1   8   6  510.38   35.32
  -1  -8  -5   40.78    5.32
   1   8   5   35.29    5.01
  -1  -8  -4  475.25   33.22
   1   8   4  568.37   39.33
  -1  -8  -3   28.61    5.29
   1   8   3   18.44    5.29
  -1  -8  -2   43.92    6.90
   1   8   2   30.35    6.29
  -1  -8  -1   46.17    5.65
   1   8   1   43.32    5.38
   2   8  11    6.16    2.69
  -2  -8 -10    0.31    2.78
   2   8  10    2.09    2.80
  -2  -8  -9   48.64    4.92
   2   8   9   39.49    4.41
  -2  -8  -8    5.14    2.74
   2   8   8    5.67    2.73
  -2  -8  -7   40.03    4.55
   2   8   7   56.18    5.49
  -2  -8  -6   18.48    3.80
   2   8   6   22.26    3.97
  -2  -8  -5    8.51    3.57
   2   8   5   -0.59    3.49
  -2  -8  -4  159.17   12.38
   2   8   4  143.98   11.43
   2   8   3    6.27    4.81
  -2  -8  -2   55.92    7.02
   2   8   2   57.29    7.24
   3   8  11    2.20    2.65
  -3  -8 -10    6.49    2.85
   3   8  10    0.13    2.74
  -3  -8  -9    6.16    2.91
   3   8   9    7.08    2.80
  -3  -8  -8   17.16    3.13
   3   8   8   14.32    3.00
  -3  -8  -7    0.97    2.73
   3   8   7   -1.02    2.84
  -3  -8  -6    5.03    3.31
   3   8   6    7.26    3.59
  -3  -8  -5   82.92    7.54
   3   8   5   67.59    6.71
  -3  -8  -4  257.38   18.68
   3   8   4  252.81   18.51
  -3  -8  -3   63.39    7.59
   3   8   3   79.56    8.71
  -3  -8  -2    2.34    4.46
   3   8   2    6.82    4.43
   4   8  11    4.34    2.56
  -4  -8 -10    6.06    2.84
   4   8  10    2.85    2.74
  -4  -8  -9   -0.48    2.62
   4   8   9    3.09    2.73
  -4  -8  -8    1.98    2.54
   4   8   8    0.13    2.58
  -4  -8  -7  709.22   48.29
   4   8   7  688.00   46.94
  -4  -8  -6   17.10    3.73
   4   8   6   17.14    3.70
  -4  -8  -5  313.73   22.39
   4   8   5  322.32   23.03
  -4  -8  -4   16.54    3.99
   4   8   4   17.03    4.46
  -4  -8  -3  797.76   54.90
   4   8   3  907.70   62.29
  -4  -8  -2   16.48    4.46
   4   8   2   12.59    4.23
   5   8  11   -0.40    2.36
  -5  -8 -10    5.20    2.67
   5   8  10    5.20    2.82
  -5  -8  -9   29.62    3.79
   5   8   9   39.40    4.34
  -5  -8  -8    3.62    2.58
   5   8   8    3.57    2.73
  -5  -8  -7  117.97    9.27
   5   8   7  148.54   11.34
  -5  -8  -6    5.62    3.05
   5   8   6    7.77    3.35
  -5  -8  -5  289.76   20.76
   5   8   5  264.70   19.19
  -5  -8  -4    8.96    3.66
   5   8   4   10.06    3.93
  -5  -8  -2   10.19    3.73
   5   8   2    3.38    3.46
   6   8  11   33.31    3.80
  -6  -8 -10    7.37    2.78
   6   8  10    4.43    2.67
  -6  -8  -9   76.50    6.49
   6   8   9   58.21    5.36
  -6  -8  -8   17.89    3.16
   6   8   8   10.35    2.96
  -6  -8  -7  259.03   18.46
   6   8   7  290.31   20.62
  -6  -8  -6    8.23    3.15
   6   8   6    7.17    3.24
  -6  -8  -5   11.43    3.33
   6   8   5   12.84    3.51
  -6  -8  -4   18.88    3.90
   6   8   4   17.20    4.08
  -6  -8  -3  172.21   13.45
   6   8   3  155.58   12.60
  -6  -8  -2    7.88    3.16
   7   8  11    3.49    2.27
  -7  -8 -10   67.54    5.85
   7   8  10   72.07    6.15
  -7  -8  -9    5.21    2.80
   7   8   9    7.15    2.78
  -7  -8  -8   12.09    3.00
   7   8   8   12.22    3.02
  -7  -8  -7    3.95    2.85
   7   8   7    1.04    2.76
  -7  -8  -6    1.83    2.89
   7   8   6    3.60    3.04
  -7  -8  -5   50.87    5.18
   7   8   5   45.99    5.05
   7   8   4  129.30   10.94
  -7  -8  -3  159.77   12.46
   7   8   3  172.38   13.32
   8   8  11    3.79    2.23
  -8  -8 -10    2.82    2.36
   8   8  10    3.57    2.52
  -8  -8  -9    3.42    2.65
   8   8   9    0.15    2.52
  -8  -8  -8   40.63    4.46
   8   8   8   26.12    3.68
  -8  -8  -7   25.26    3.71
   8   8   7   16.88    3.37
  -8  -8  -6   91.92    7.76
   8   8   6   97.43    8.14
  -8  -8  -5  124.26    9.71
   8   8   5  118.94    9.62
  -8  -8  -4  117.20    9.88
   8   8   4  141.99   11.78
  -8  -8  -3   46.67    5.10
   8   8   3   52.89    5.67
  -9  -8 -10   23.95    3.15
   9   8  10   23.16    3.13
  -9  -8  -9   -1.04    2.47
   9   8   9    4.21    2.43
  -9  -8  -8   71.89    6.31
   9   8   8   78.82    6.71
  -9  -8  -7    0.09    2.74
   9   8   7   -0.82    2.82
  -9  -8  -5   12.73    3.07
   9   8   5   10.72    3.68
  -9  -8  -4  851.18   58.15
   9   8   4  872.76   59.89
  -9  -8  -3    8.51    2.87
   9   8   3   10.50    3.22
 -10  -8 -10   -0.66    1.99
  10   8  10    0.16    2.07
 -10  -8  -9   -3.18    2.43
  10   8   9   -0.82    2.25
 -10  -8  -8   13.68    3.13
  10   8   8    8.82    2.85
 -10  -8  -7   -2.56    2.96
  10   8   7    1.61    3.22
 -10  -8  -6   85.87    7.35
  10   8   6  106.48    8.82
 -10  -8  -5    9.15    3.02
  10   8   5   12.18    3.79
 -10  -8  -4   46.78    5.29
  10   8   4   40.67    5.47
 -10  -8  -3   -0.82    2.29
 -11  -8 -10   44.09    4.15
  11   8  10   40.06    4.04
 -11  -8  -9    1.68    2.25
  11   8   9    1.30    2.14
 -11  -8  -8   23.21    3.48
  11   8   8   19.79    3.35
 -11  -8  -7    0.02    2.89
  11   8   7    0.95    3.16
 -11  -8  -6   62.40    5.91
  11   8   6   47.43    5.27
 -11  -8  -5    6.57    2.91
 -11  -8  -4    5.41    3.05
  11   8   4   -0.33    3.64
 -12  -8  -9   52.04    4.66
  12   8   9   58.83    5.14
 -12  -8  -8   20.29    3.15
  12   8   8   22.61    3.37
 -12  -8  -7   34.65    4.30
  12   8   7   25.21    3.93
 -12  -8  -4   78.31    6.88
  12   8   4   65.05    6.20
 -13  -8  -8    3.66    2.27
  13   8   8    4.94    2.36
 -13  -8  -7    1.94    2.71
  13   8   7    2.38    2.80
 -13  -8  -6   23.54    3.53
  13   8   6   27.97    4.24
 -13  -8  -4   41.62    4.45
  13   8   4   44.85    4.66
 -14  -8  -8   -1.68    2.14
  14   8   8    4.02    2.30
 -14  -8  -7   10.54    2.74
  14   8   7   17.87    3.26
 -14  -8  -6    4.23    2.49
  14   8   6    6.99    3.29
 -14  -8  -4    3.04    2.60
 -15  -8  -5   23.36    3.93
  15   8   5   18.86    3.82
 -16  -8  -6    0.64    2.23
  16   8   6    0.20    2.67
 -16  -8  -5    0.97    2.67
  16   8   5    0.24    2.54
 -17  -8  -5    6.73    2.43
  17   8   5    4.35    2.10
  18  -9  -2    0.16    3.20
 -18   9   2    3.70    3.64
  18  -9  -1    3.16    2.91
 -18   9   1    5.07    3.42
  18  -9   0    1.87    3.15
 -18   9   0   -0.09    3.40
  18  -9   1   -0.31    3.66
 -18   9  -1    0.95    4.41
  18  -9   2   -1.63    3.99
 -18   9  -2    3.44    4.12
  17  -9  -4    1.21    2.74
 -17   9   4   -0.42    3.31
  17  -9  -3    3.29    3.20
 -17   9   3   -1.55    3.38
  17  -9  -2   -3.04    3.27
 -17   9   2   -2.91    3.53
  17  -9  -1    3.84    3.38
 -17   9   1    9.24    3.60
  17  -9   0    0.44    3.46
 -17   9   0    4.85    3.77
  17  -9   1   -1.48    4.13
 -17   9  -1    1.65    4.50
  17  -9   2   -0.49    3.93
 -17   9  -2    2.45    4.17
  17  -9   3   -0.02    2.96
 -17   9  -3   -5.56    2.93
  16  -9  -5    2.98    2.84
 -16   9   5    4.72    3.18
  16  -9  -4   -1.45    3.18
 -16   9   4   -2.58    3.37
  16  -9  -3    1.35    3.49
 -16   9   3   -1.15    3.71
  16  -9  -2    9.79    3.86
 -16   9   2    8.29    4.10
  16  -9  -1    6.04    3.75
 -16   9   1    6.46    3.79
  16  -9   0    0.59    3.91
 -16   9   0    6.31    4.21
  16  -9   1    5.91    4.77
 -16   9  -1    6.16    4.85
  16  -9   2    3.53    4.34
 -16   9  -2    8.14    4.32
  16  -9   3   -0.75    3.09
 -16   9  -3    0.24    2.96
  15  -9  -6    5.51    2.80
 -15   9   6    2.14    3.04
  15  -9  -5    1.98    3.00
 -15   9   5   -3.22    3.20
  15  -9  -4   13.88    3.84
 -15   9   4    8.07    3.91
  15  -9  -3    0.59    3.80
 -15   9   3    3.73    3.97
  15  -9  -2    7.21    4.08
 -15   9   2   10.43    4.24
  15  -9  -1    8.27    3.90
 -15   9   1    4.17    3.90
  15  -9   0   -1.74    4.23
 -15   9   0    2.41    5.12
  15  -9   1    0.49    4.87
 -15   9  -1    0.59    4.81
  15  -9   2    8.74    4.61
 -15   9  -2    5.01    4.21
  15  -9   3   -0.77    3.18
  14  -9  -7    3.04    2.56
 -14   9   7    1.12    2.67
  14  -9  -6   -1.41    2.91
 -14   9   6    0.71    3.15
  14  -9  -5    4.28    3.31
 -14   9   5   -0.49    3.57
  14  -9  -4    4.21    3.82
 -14   9   4   -0.31    3.91
  14  -9  -3    0.31    3.93
 -14   9   3    1.94    4.08
  14  -9  -2    5.98    4.08
 -14   9   2    3.04    4.02
  14  -9  -1    4.19    3.88
 -14   9   1    1.30    3.99
  14  -9   0    1.68    4.74
 -14   9   0    8.78    5.51
  14  -9   1    4.15    5.05
 -14   9  -1   -1.30    4.32
  14  -9   2    6.68    4.35
 -14   9  -2    6.15    3.90
  13  -9  -8    2.21    2.45
 -13   9   8    1.81    2.73
  13  -9  -7    2.73    2.84
 -13   9   7    2.43    3.00
  13  -9  -6   11.71    3.51
 -13   9   6    6.51    3.53
  13  -9  -5    6.53    3.66
 -13   9   5    9.91    4.06
  13  -9  -4   14.63    4.30
 -13   9   4    5.85    3.88
  13  -9  -3   21.40    4.72
 -13   9   3   23.76    4.85
  13  -9  -2    6.29    4.06
 -13   9   2    4.87    3.93
  13  -9  -1    7.65    4.21
 -13   9   1    3.79    3.93
  13  -9   0    3.53    4.88
 -13   9   0    9.79    5.07
  13  -9   1    6.44    4.98
 -13   9  -1   12.57    4.90
  13  -9   2   -1.08    3.80
 -13   9  -2   -2.25    3.53
  12  -9  -9   -2.20    2.40
  12  -9  -8    3.11    2.65
 -12   9   8    0.70    2.82
  12  -9  -7   -1.10    2.84
 -12   9   7   -0.84    3.20
  12  -9  -6    3.84    3.38
 -12   9   6    2.96    3.48
  12  -9  -5    9.49    3.91
 -12   9   5    7.28    3.90
  12  -9  -4   11.98    4.32
 -12   9   4   18.48    4.26
  12  -9  -3    1.57    3.88
 -12   9   3    1.45    3.64
  12  -9  -2    0.71    3.80
 -12   9   2    7.10    3.82
  12  -9  -1    4.37    4.04
 -12   9   1   -3.05    3.84
  12  -9   0   -1.26    4.94
 -12   9   0   -2.78    4.74
  12  -9   1    6.20    4.77
 -12   9  -1   -2.20    4.12
  12  -9   2    5.95    3.68
 -12   9  -2    6.71    3.33
  11  -9  -9    3.57    2.51
 -11   9   9    0.99    2.21
  11  -9  -8    7.65    3.02
 -11   9   8    5.27    3.15
  11  -9  -7    1.54    3.00
 -11   9   7    8.05    3.37
  11  -9  -6    4.34    3.42
 -11   9   6    2.40    3.44
  11  -9  -5    0.35    3.35
 -11   9   5    1.90    3.59
  11  -9  -4    2.41    3.82
 -11   9   4   -1.92    3.59
  11  -9  -3    8.05    4.10
 -11   9   3    9.57    3.86
  11  -9  -2    2.63    3.84
 -11   9   2    4.66    3.59
  11  -9  -1   10.79    4.32
 -11   9   1    6.84    3.97
  11  -9   0   10.50    5.01
 -11   9   0    1.04    4.50
  11  -9   1    4.90    4.63
 -11   9  -1   17.29    4.45
  11  -9   2   -4.96    3.20
  10  -9 -10   -1.21    2.47
  10  -9  -9   15.55    3.31
 -10   9   9   16.54    3.51
  10  -9  -8    3.29    3.04
  10  -9  -7    3.90    3.18
 -10   9   7    3.57    3.38
  10  -9  -6   -1.57    3.20
 -10   9   6    1.06    3.42
  10  -9  -5    5.16    3.51
 -10   9   5    6.18    3.66
  10  -9  -4    1.57    3.62
 -10   9   4   -0.42    3.53
  10  -9  -3   10.45    4.08
 -10   9   3    5.62    3.84
  10  -9  -2    3.07    3.55
 -10   9   2   -2.05    3.53
  10  -9  -1    5.25    4.19
 -10   9   1    3.77    4.43
  10  -9   0    1.30    4.90
 -10   9   0   -3.37    4.45
  10  -9   1    5.62    4.15
 -10   9  -1   -1.41    3.73
   9  -9 -10    4.48    2.51
  -9   9  10    7.13    2.87
   9  -9  -9   -0.04    2.85
  -9   9   9   -2.43    2.95
   9  -9  -8   -0.44    2.98
  -9   9   8    1.76    3.24
   9  -9  -7   -0.38    3.05
   9  -9  -6    2.80    3.11
  -9   9   6    5.20    3.44
   9  -9  -5   -2.23    3.31
  -9   9   5    2.51    3.46
   9  -9  -4   10.90    3.88
  -9   9   4   10.02    3.75
   9  -9  -3    0.84    3.93
  -9   9   3   -4.87    3.49
   9  -9  -2    9.13    3.97
  -9   9   2    5.63    3.64
   9  -9  -1   29.27    5.82
  -9   9   1   19.35    5.32
   9  -9   0   -0.15    5.18
  -9   9   0   -1.99    4.17
   9  -9   1   14.98    4.34
  -9   9  -1   14.38    3.95
   8  -9 -10   -0.73    2.54
  -8   9  10   -2.73    2.63
   8  -9  -9    0.38    2.87
  -8   9   9    2.03    3.09
   8  -9  -8    0.46    3.02
  -8   9   8   -0.97    3.18
   8  -9  -7    2.16    3.16
  -8   9   7    1.55    3.20
   8  -9  -6    4.88    3.33
  -8   9   6   -4.35    3.16
   8  -9  -5   -0.88    3.68
   8  -9  -4   12.62    4.19
  -8   9   4   22.94    4.48
   8  -9  -3   35.10    5.30
  -8   9   3   43.74    5.67
   8  -9  -2   22.41    4.87
  -8   9   2    7.81    3.93
   8  -9  -1   38.82    6.79
  -8   9   1   30.92    5.93
   8  -9   0    7.79    5.07
  -8   9   0    4.83    4.50
   8  -9   1   15.81    4.24
  -8   9  -1    9.13    3.46
   7  -9 -11  -21.31   12.88
  -7   9  11    1.48    2.73
  -7   9  10    3.62    2.93
   7  -9  -9    1.23    2.95
  -7   9   9    0.77    3.13
   7  -9  -8    1.02    3.07
  -7   9   8   -1.66    3.05
   7  -9  -7   -3.05    3.04
  -7   9   7    2.58    3.26
   7  -9  -6    1.72    3.16
  -7   9   6   -0.24    3.24
   7  -9  -5   -3.29    3.44
  -7   9   5    5.73    3.68
   7  -9  -4    0.42    3.70
   7  -9  -3    4.10    3.82
  -7   9   3    5.38    3.68
   7  -9  -2   -0.38    3.95
  -7   9   2    2.58    4.02
   7  -9  -1    8.03    5.69
  -7   9   1    7.57    4.88
   7  -9   0    3.38    4.98
  -7   9   0   -1.43    4.43
   7  -9   1    2.25    3.66
   6  -9 -11   -2.05    2.34
  -6   9  11   -2.01    2.54
   6  -9 -10    0.90    2.76
  -6   9  10    7.19    3.20
  -6   9   9    4.88    3.22
   6  -9  -8    4.72    3.22
  -6   9   8    5.36    3.04
   6  -9  -7    0.27    3.11
  -6   9   7    0.77    3.20
   6  -9  -6    2.52    3.35
  -6   9   6    3.99    3.38
   6  -9  -5    3.18    3.64
  -6   9   5   -0.07    3.51
   6  -9  -4    5.58    3.79
  -6   9   4    1.30    3.68
   6  -9  -3    3.71    3.75
   6  -9  -2   11.96    4.66
   6  -9  -1   -8.03    5.21
  -6   9   1    2.51    5.18
   6  -9   0   -0.20    4.85
  -6   9   0    6.09    4.59
   5  -9 -11    0.99    2.58
  -5   9  11    1.92    2.69
   5  -9 -10   14.07    3.35
  -5   9  10   11.71    3.35
   5  -9  -9    1.15    3.00
  -5   9   9    2.16    3.05
  -5   9   8    5.45    3.15
  -5   9   7    5.25    3.24
   5  -9  -6    0.79    3.31
  -5   9   6   -4.57    3.33
   5  -9  -5    6.81    3.75
  -5   9   5   -2.60    3.44
   5  -9  -4   76.74    7.72
  -5   9   4   72.50    7.45
   5  -9  -3    6.27    4.01
  -5   9   3    5.25    3.91
   5  -9  -2    7.23    4.57
  -5   9   2   15.53    5.18
   5  -9  -1   -1.04    5.32
   5  -9   0   -4.06    4.39
  -5   9   0    2.45    4.32
   4  -9 -11   -1.66    2.52
  -4   9  11   -1.32    2.67
   4  -9 -10    0.93    2.95
  -4   9  10   -1.72    2.91
   4  -9  -9    3.16    2.96
  -4   9   9    0.82    3.05
   4  -9  -8    2.80    2.98
  -4   9   8   -4.26    2.98
   4  -9  -7    4.63    3.24
  -4   9   7   -0.20    2.95
  -4   9   6    1.94    3.40
   4  -9  -5    5.62    3.97
  -4   9   5   11.12    4.01
   4  -9  -4   20.71    4.70
  -4   9   4   17.71    4.50
   4  -9  -3   11.12    4.37
  -4   9   3    2.49    4.06
   4  -9  -2    1.23    4.96
  -4   9   2    7.24    5.67
   4  -9  -1    0.07    5.45
  -4   9   1    1.90    5.38
   4  -9   0    6.02    4.19
  -4   9   0    1.98    3.60
   3  -9 -11    0.15    2.54
  -3   9  11    0.48    2.63
   3  -9 -10    2.16    2.93
  -3   9  10    4.52    3.04
   3  -9  -9    6.91    3.09
  -3   9   9    1.46    2.98
   3  -9  -8    2.32    2.93
  -3   9   8    1.57    2.85
   3  -9  -7    3.38    3.20
  -3   9   7    4.39    3.18
   3  -9  -6   10.52    3.70
  -3   9   6   15.49    4.02
  -3   9   5    6.68    3.79
   3  -9  -4    1.79    3.64
  -3   9   4   -1.21    4.01
   3  -9  -2   14.03    6.02
  -3   9   2    6.86    5.96
   3  -9  -1   15.11    5.87
  -3   9   1   -4.81    5.09
   3  -9   0    1.59    3.88
  -3   9   0   -1.02    3.73
   2  -9 -11    0.97    2.63
  -2   9  11    5.63    2.78
   2  -9 -10    0.88    2.95
  -2   9  10   -0.71    2.95
   2  -9  -9   -1.88    3.02
  -2   9   9    1.63    2.91
   2  -9  -8    0.46    2.80
  -2   9   8   -2.58    2.96
   2  -9  -7    0.48    3.07
  -2   9   7    5.32    3.11
   2  -9  -6    7.21    3.60
  -2   9   6    5.82    3.48
   2  -9  -5    5.47    3.77
  -2   9   5    3.44    3.64
   2  -9  -4    8.25    4.32
  -2   9   4   11.84    4.17
  -2   9   3    1.79    4.96
   2  -9  -2   17.34    5.96
  -2   9   2    6.11    5.93
   2  -9  -1    4.13    4.90
  -2   9   1   -0.88    4.94
   1  -9 -11    4.01    2.78
  -1   9  11    1.15    2.78
   1  -9 -10    3.84    2.98
  -1   9  10   -0.40    2.87
   1  -9  -9   18.02    3.60
  -1   9   9   17.71    3.42
   1  -9  -8    7.17    3.11
  -1   9   8    1.96    2.95
   1  -9  -7   -0.46    3.09
  -1   9   7   -1.48    3.11
   1  -9  -6   -0.71    3.35
  -1   9   6   -2.23    3.49
   1  -9  -5    4.99    3.77
  -1   9   5    0.77    3.60
   1  -9  -4   -7.12    3.79
  -1   9   4    6.16    3.82
   1  -9  -3    4.68    4.54
  -1   9   3   12.18    5.27
  -1   9   2    5.07    5.93
  -1   9   1   51.93    6.60
   0  -9 -11   18.93    3.44
   0   9  11   16.02    3.24
   0  -9 -10   -1.13    2.89
   0   9  10   -0.26    2.91
   0  -9  -9   -0.42    2.84
   0   9   9    0.11    2.84
   0  -9  -8    2.25    2.96
   0   9   8    3.75    3.05
   0  -9  -7   16.04    3.64
   0   9   7   23.74    3.95
   0  -9  -6   -1.30    3.64
   0   9   6    1.61    3.38
   0  -9  -5   16.13    4.19
   0   9   5   23.95    4.57
   0  -9  -4    4.98    4.10
   0   9   4    4.94    3.86
   0  -9  -3   26.54    5.34
   0   9   3   20.82    6.09
   0  -9  -2   10.41    5.62
   0   9   2    1.55    5.71
   0  -9  -1   23.07    4.87
   0   9   1   23.07    4.87
  -1  -9 -11    1.66    2.69
   1   9  11    0.48    2.62
  -1  -9 -10    4.96    3.07
   1   9  10    1.08    2.96
  -1  -9  -9   15.00    3.40
   1   9   9   12.62    3.24
  -1  -9  -8    3.88    2.96
   1   9   8    2.43    3.02
  -1  -9  -7    5.41    3.20
   1   9   7    3.42    3.11
  -1  -9  -6    0.35    3.42
   1   9   6    0.31    3.42
  -1  -9  -5    7.56    3.77
   1   9   5    4.59    3.66
  -1  -9  -4    0.02    3.77
   1   9   4    7.98    3.90
  -1  -9  -3   15.59    5.18
   1   9   3   13.34    5.85
  -1  -9  -2   16.35    5.69
   1   9   2   22.12    5.69
  -1  -9  -1   35.25    4.96
   1   9   1   27.60    4.70
  -2  -9 -11    3.51    2.67
   2   9  11    6.73    2.84
  -2  -9 -10   -2.49    2.85
   2   9  10    2.65    2.98
  -2  -9  -9    4.43    3.07
   2   9   9    1.66    2.76
  -2  -9  -8   -3.22    2.95
   2   9   8   -0.75    2.84
  -2  -9  -7    5.38    3.24
   2   9   7    7.66    3.27
  -2  -9  -6    1.99    3.26
   2   9   6   11.65    3.77
  -2  -9  -5    7.65    3.70
   2   9   5    7.17    3.73
  -2  -9  -4   11.25    3.88
   2   9   4   16.26    4.57
  -2  -9  -3    1.17    4.92
   2   9   3    5.10    5.16
  -2  -9  -2    4.87    4.92
   2   9   2    7.50    4.87
  -3  -9 -11    1.46    2.58
   3   9  11    1.46    2.62
  -3  -9 -10    5.07    3.02
   3   9  10    1.54    2.84
  -3  -9  -9    0.66    3.07
   3   9   9   -1.06    2.76
  -3  -9  -8    0.13    2.82
   3   9   8   -1.30    2.91
  -3  -9  -7    5.25    3.18
   3   9   7    3.31    3.15
  -3  -9  -6   16.10    3.82
   3   9   6   19.48    4.15
  -3  -9  -5    6.79    3.40
   3   9   5    2.14    3.44
  -3  -9  -4    7.30    3.79
   3   9   4   -3.27    3.75
  -3  -9  -3   15.20    5.23
   3   9   3   16.94    5.34
  -3  -9  -2   16.54    4.63
   3   9   2    2.38    4.30
  -4  -9 -11   -1.81    2.32
   4   9  11   -2.93    2.43
  -4  -9 -10    6.64    2.93
   4   9  10    0.88    2.80
  -4  -9  -9    3.18    2.91
   4   9   9    2.54    2.87
  -4  -9  -8   -1.63    2.82
   4   9   8   -0.05    2.96
  -4  -9  -7    6.11    3.29
   4   9   7    5.52    3.35
  -4  -9  -6    8.34    3.38
   4   9   6    7.10    3.46
  -4  -9  -5    9.64    3.44
   4   9   5    2.16    3.27
  -4  -9  -4   13.83    3.93
   4   9   4    1.63    3.99
  -4  -9  -3    1.70    4.65
   4   9   3    1.66    4.88
  -4  -9  -2   -0.42    3.71
   4   9   2    2.95    3.80
  -5  -9 -11    1.90    2.32
   5   9  11    2.40    2.40
  -5  -9 -10   15.82    3.24
   5   9  10   11.76    3.15
  -5  -9  -9    4.23    2.93
   5   9   9    2.29    2.96
  -5  -9  -8    3.24    3.09
   5   9   8   -0.77    2.95
  -5  -9  -7    3.27    3.16
   5   9   7    4.96    3.33
  -5  -9  -6   -2.85    3.05
   5   9   6    1.15    3.33
  -5  -9  -5    0.15    2.95
   5   9   5    0.24    3.26
  -5  -9  -3    5.82    4.37
   5   9   3   -7.98    4.43
  -5  -9  -2    1.77    3.48
   5   9   2    3.20    3.42
  -6  -9 -11    1.72    2.21
   6   9  11   -0.22    2.27
  -6  -9 -10   -2.47    2.65
   6   9  10    3.51    2.67
  -6  -9  -9    0.84    2.84
   6   9   9    1.74    2.93
  -6  -9  -8    2.16    2.98
   6   9   8    1.24    3.11
  -6  -9  -7    1.23    3.11
   6   9   7    5.32    3.24
  -6  -9  -6    2.14    2.95
   6   9   6    1.81    3.33
  -6  -9  -5    3.82    3.04
   6   9   5    2.38    3.18
  -6  -9  -4    5.76    3.73
   6   9   4   10.21    4.79
  -6  -9  -3   -4.04    3.66
   6   9   3   -3.99    4.10
  -7  -9 -11   -3.51    2.10
   7   9  11   -0.07    2.25
  -7  -9 -10    0.46    2.58
   7   9  10    2.34    2.56
  -7  -9  -9    6.16    2.95
   7   9   9   -2.03    2.82
  -7  -9  -8    2.25    3.07
   7   9   8    2.51    3.11
  -7  -9  -7    1.98    3.13
   7   9   7    3.33    3.26
  -7  -9  -6    1.98    3.00
   7   9   6    1.70    3.20
  -7  -9  -5    6.42    3.09
   7   9   5    4.54    3.44
  -7  -9  -4    1.76    3.88
   7   9   4    1.45    4.26
  -7  -9  -3    1.24    3.49
   7   9   3    1.52    3.60
  -8  -9 -10    0.53    2.43
   8   9  10    0.09    2.27
  -8  -9  -9    2.18    2.82
   8   9   9    2.98    2.76
  -8  -9  -8    5.52    3.18
   8   9   8   -4.39    3.07
  -8  -9  -7   11.49    3.37
   8   9   7    3.51    3.37
  -8  -9  -6    2.14    2.96
   8   9   6    6.27    3.29
  -8  -9  -5    1.87    3.00
   8   9   5   -0.90    3.35
  -8  -9  -4   11.63    3.95
   8   9   4   13.77    4.59
  -8  -9  -3   20.16    3.66
   8   9   3   28.63    4.12
  -9  -9 -10    3.26    2.41
   9   9  10    3.55    2.27
  -9  -9  -9    1.02    2.67
   9   9   9   -0.48    2.58
  -9  -9  -8    5.71    3.20
   9   9   8    6.48    3.09
  -9  -9  -7   -2.25    3.24
   9   9   7   -1.13    3.13
  -9  -9  -6   -0.70    2.93
   9   9   6    4.50    3.18
  -9  -9  -5    8.41    3.15
   9   9   5    4.34    3.60
  -9  -9  -4    2.93    3.60
   9   9   4   -5.12    4.24
  -9  -9  -3    5.30    2.74
   9   9   3    1.24    2.98
 -10  -9 -10   -0.16    2.20
  10   9  10   -2.01    2.12
 -10  -9  -9   20.10    3.40
  10   9   9   19.85    3.26
 -10  -9  -8    1.17    3.07
  10   9   8    3.00    2.93
 -10  -9  -7    7.70    3.42
  10   9   7    2.36    3.27
 -10  -9  -6   -2.23    2.91
  10   9   6   -3.16    3.35
 -10  -9  -5   13.83    3.37
  10   9   5    4.21    4.19
 -10  -9  -4    0.57    3.38
  10   9   4    0.62    3.95
 -10  -9  -3    3.95    2.45
 -11  -9  -9    3.22    2.40
  11   9   9    2.01    2.40
 -11  -9  -8    6.33    3.11
  11   9   8    5.62    3.18
 -11  -9  -7    1.79    3.13
  11   9   7    1.94    3.49
 -11  -9  -6   -3.37    2.89
  11   9   6    1.94    3.53
 -11  -9  -5    0.75    3.15
  11   9   5    0.29    4.50
 -11  -9  -4    0.95    3.20
  11   9   4   -0.42    3.57
 -12  -9  -9    4.24    2.29
  12   9   9    1.57    2.36
 -12  -9  -8    0.59    2.74
  12   9   8   -4.41    2.78
 -12  -9  -7    7.72    3.09
  12   9   7    7.45    3.35
 -12  -9  -6    3.44    3.02
  12   9   6    6.71    3.77
 -12  -9  -5    0.22    3.82
  12   9   5    9.33    4.77
 -12  -9  -4    8.29    3.20
  12   9   4    0.02    3.38
 -13  -9  -8   -3.02    2.40
  13   9   8   -0.86    2.63
 -13  -9  -7    3.77    2.74
  13   9   7    1.85    2.95
 -13  -9  -6   11.03    3.24
  13   9   6    6.91    3.73
 -13  -9  -5   18.86    4.12
  13   9   5    8.93    4.46
 -13  -9  -4    1.37    2.78
  13   9   4    7.02    3.05
 -14  -9  -7    1.76    2.56
  14   9   7   -2.29    2.60
 -14  -9  -6   -0.86    2.63
 -14  -9  -5    1.48    3.31
  14   9   5    6.55    3.97
 -14  -9  -4    4.98    2.58
 -15  -9  -6    2.47    2.49
  15   9   6   -0.20    3.33
 -15  -9  -5    3.35    2.87
  15   9   5   -2.51    3.09
 -16  -9  -5    3.04    2.69
  16   9   5    2.09    2.49
  17 -10  -3    3.11    3.26
 -17  10   3    8.23    3.71
  17 -10  -2    2.60    3.20
 -17  10   2    2.65    3.55
  17 -10   0    0.16    3.33
 -17  10   0    2.49    4.68
  17 -10   1    4.17    4.15
 -17  10  -1   16.34    5.27
  17 -10   2    5.84    4.02
 -17  10  -2    3.66    3.88
  17 -10   3    2.52    2.93
 -17  10  -3    5.65    3.07
  16 -10  -5    3.84    3.20
 -16  10   5    5.01    3.73
  16 -10  -4   22.72    4.45
 -16  10   4   21.27    4.52
  16 -10  -3   23.96    4.43
 -16  10   3   24.33    4.88
  16 -10  -2   52.83    6.35
 -16  10   2   77.29    7.90
  16 -10  -1   41.93    5.54
 -16  10   1   41.82    6.04
  16 -10   3    2.38    3.05
  15 -10  -6    0.38    2.74
 -15  10   6    1.98    3.07
  15 -10  -4    4.24    3.64
 -15  10   4   -5.05    3.77
  15 -10  -2    4.46    3.93
 -15  10   2    7.76    4.19
  15 -10  -1   29.96    5.12
 -15  10   1   24.04    5.14
  15 -10   0   -0.77    4.70
 -15  10   0    1.39    5.56
  15 -10   1   17.10    5.63
 -15  10  -1   13.35    5.34
  15 -10   3    0.86    3.05
  14 -10  -7   -1.01    2.78
 -14  10   7   -2.67    3.05
  14 -10  -6   18.17    3.75
 -14  10   6   24.04    4.32
  14 -10  -5  113.38    9.88
 -14  10   5  116.78   10.30
  14 -10  -4    3.04    3.86
 -14  10   4    2.85    3.93
  14 -10  -3   34.39    5.62
 -14  10   3   35.47    5.74
  14 -10  -2   -2.52    4.13
 -14  10   2    4.76    4.15
  14 -10  -1    4.54    4.43
 -14  10   1   10.87    4.76
  14 -10   0    7.79    5.60
 -14  10   0    5.09    5.63
  14 -10   1    8.47    5.45
 -14  10  -1   23.87    5.78
  14 -10   2    2.49    4.28
 -14  10  -2    1.99    3.80
  13 -10  -7   10.35    3.18
 -13  10   7    9.20    3.49
  13 -10  -6   -0.13    3.13
 -13  10   6    0.40    3.66
  13 -10  -5   69.84    7.34
 -13  10   5   64.32    7.10
  13 -10  -4   74.80    7.85
 -13  10   4   50.73    6.59
  13 -10  -3  447.45   32.01
 -13  10   3  480.74   34.23
  13 -10  -2    6.35    4.08
 -13  10   2    2.09    4.08
  13 -10  -1    9.48    4.46
 -13  10   1   13.19    4.92
  13 -10   0    4.04    5.41
 -13  10   0   10.65    5.38
  13 -10   2   -2.56    3.91
 -13  10  -2    2.10    3.70
  12 -10  -8    8.82    2.95
 -12  10   8    5.16    2.98
  12 -10  -7   10.81    3.51
 -12  10   7    9.60    3.64
  12 -10  -6   28.72    4.63
 -12  10   6   16.65    4.35
  12 -10  -5   93.92    8.85
 -12  10   5   87.06    8.56
  12 -10  -4   51.17    6.57
 -12  10   4   60.28    7.04
  12 -10  -1    1.61    4.34
 -12  10   1    4.17    4.79
  12 -10   0    7.72    5.23
 -12  10   0   11.67    5.21
  12 -10   1    1.50    4.74
 -12  10  -1    2.63    4.45
  12 -10   2   47.62    5.73
 -12  10  -2   48.73    5.45
  11 -10  -9    0.31    2.52
  11 -10  -8    4.32    2.87
 -11  10   8    0.16    3.11
  11 -10  -7    2.51    3.27
 -11  10   7    0.04    3.49
  11 -10  -6   68.42    6.99
 -11  10   6   89.40    8.49
  11 -10  -5   11.69    4.04
 -11  10   5    9.44    4.28
  11 -10  -4    8.71    4.23
 -11  10   4    0.48    3.88
  11 -10  -3    4.23    4.10
 -11  10   3    5.09    3.88
  11 -10  -2    4.21    4.02
 -11  10   2   12.27    4.19
  11 -10   1    1.37    4.32
 -11  10  -1    3.90    4.01
  11 -10   2    1.98    3.15
  10 -10  -9   -0.38    2.78
 -10  10   9    3.55    2.87
  10 -10  -8   50.45    5.51
  10 -10  -7    3.57    3.48
 -10  10   7    3.49    3.59
  10 -10  -6   32.16    4.98
 -10  10   6   25.76    4.96
  10 -10  -5    1.46    3.73
 -10  10   5   -2.20    3.95
  10 -10  -4    7.34    3.88
 -10  10   4    5.93    3.88
  10 -10  -3    4.17    4.10
 -10  10   3    0.82    3.66
  10 -10  -2   39.64    5.84
 -10  10   2   25.92    4.99
  10 -10  -1   -2.47    4.81
 -10  10   1    6.07    4.74
  10 -10   0  641.90   45.40
 -10  10   0  613.92   43.43
  10 -10   1   -2.41    4.10
 -10  10  -1   -1.21    3.66
   9 -10 -10    4.88    2.89
   9 -10  -9    2.20    2.91
  -9  10   9   -0.86    2.93
   9 -10  -8   65.51    6.42
  -9  10   8   58.92    6.24
   9 -10  -7    0.93    3.48
   9 -10  -6   15.84    4.17
   9 -10  -5   -5.10    3.77
  -9  10   5    1.24    3.82
   9 -10  -4   30.93    5.12
  -9  10   4   37.35    5.54
   9 -10  -3    4.92    3.84
  -9  10   3    2.58    3.60
   9 -10  -2   15.53    4.61
  -9  10   2   21.49    4.79
   9 -10  -1    5.03    5.45
  -9  10   1   17.93    5.25
   9 -10   0   12.42    5.23
  -9  10   0   16.96    4.99
   9 -10   1    1.12    3.73
  -9  10  -1    3.11    3.46
   8 -10 -10   -2.16    2.54
  -8  10  10   -3.40    2.73
   8 -10  -9    3.16    3.02
  -8  10   9    2.23    3.04
   8 -10  -8   74.62    7.04
  -8  10   8   56.62    6.20
   8 -10  -7   -2.65    3.40
  -8  10   7    9.73    3.75
   8 -10  -6  252.63   18.86
  -8  10   6  251.53   18.82
   8 -10  -5   44.18    5.74
   8 -10  -4  306.41   22.59
  -8  10   4  335.68   24.53
   8 -10  -3   -4.48    3.60
  -8  10   3    4.59    3.68
   8 -10  -1   40.43    6.84
  -8  10   1   45.64    6.62
   8 -10   0   21.77    5.69
  -8  10   0   35.18    5.62
   8 -10   1   14.29    4.19
  -8  10  -1   10.56    3.40
  -7  10  10   -4.19    2.82
   7 -10  -9    4.01    3.11
  -7  10   9    4.70    3.22
   7 -10  -8    3.29    3.35
  -7  10   8    1.74    3.51
   7 -10  -7   24.04    4.35
  -7  10   7   25.67    4.50
   7 -10  -6   32.16    4.92
  -7  10   6   44.34    5.67
   7 -10  -5    3.26    3.80
  -7  10   5    2.87    3.77
   7 -10  -4   11.36    4.19
   7 -10  -3   35.65    5.34
  -7  10   3   30.15    4.66
   7 -10  -2    7.63    4.46
  -7  10   2   16.45    4.79
   7 -10   0    1.04    4.65
  -7  10   0    4.04    4.01
   7 -10   1    6.24    3.49
   6 -10 -10   24.75    3.84
  -6  10  10   19.08    3.73
  -6  10   9   38.40    4.85
   6 -10  -8    3.53    2.98
  -6  10   8    4.13    3.49
   6 -10  -7   27.24    4.55
  -6  10   7   29.32    4.81
   6 -10  -6    6.88    3.91
  -6  10   6    2.30    3.51
   6 -10  -5   18.51    4.48
  -6  10   5    8.05    3.99
   6 -10  -4   11.20    4.21
  -6  10   4   14.87    4.26
   6 -10  -3    8.36    4.02
  -6  10   3    8.41    3.99
   6 -10  -2    5.29    4.65
   6 -10  -1    2.41    5.01
  -6  10   1    7.02    4.88
   6 -10   0   45.53    6.20
  -6  10   0   56.09    6.48
   5 -10 -11    6.84    2.82
  -5  10  11    9.59    3.00
   5 -10 -10    4.41    2.91
  -5  10  10   -1.30    3.07
   5 -10  -9  220.25   16.28
  -5  10   9  198.30   14.76
   5 -10  -8    0.49    3.27
  -5  10   8    0.51    3.46
  -5  10   7   41.73    5.41
   5 -10  -6    5.62    3.60
  -5  10   6    1.87    3.68
   5 -10  -5   -4.43    3.71
  -5  10   5    1.30    3.59
   5 -10  -4    9.86    4.01
  -5  10   4    0.02    3.79
   5 -10  -3   86.12    8.38
  -5  10   3   68.75    7.50
   5 -10  -2    3.27    5.32
  -5  10   2   -5.25    5.10
   5 -10  -1  263.24   20.29
   5 -10   0    3.82    4.15
   4 -10 -11    7.35    2.82
  -4  10  11    4.46    2.82
   4 -10 -10   -0.11    3.09
  -4  10  10    6.07    3.31
   4 -10  -9   54.22    5.76
  -4  10   9   59.93    6.06
   4 -10  -8   -0.40    3.22
  -4  10   8    2.89    3.33
   4 -10  -7    7.65    3.57
  -4  10   7   12.71    3.93
  -4  10   6    2.34    3.68
   4 -10  -5  121.89   10.48
  -4  10   5  125.82   10.68
   4 -10  -4    3.27    3.91
  -4  10   4    4.21    3.88
   4 -10  -3   34.35    5.63
  -4  10   3   35.63    5.71
   4 -10  -2    4.48    5.63
  -4  10   2    3.75    5.25
   4 -10  -1   17.32    5.67
  -4  10   1   14.47    5.36
   4 -10   0    7.21    4.15
  -4  10   0    6.40    3.86
   3 -10 -11    1.46    2.56
  -3  10  11   -0.09    2.58
   3 -10 -10    5.49    3.11
  -3  10  10    1.54    3.04
   3 -10  -9    9.07    3.40
  -3  10   9    3.79    3.16
   3 -10  -8    3.07    3.31
  -3  10   8    7.17    3.33
   3 -10  -7   41.07    5.25
  -3  10   7   39.37    5.12
   3 -10  -6    8.98    3.75
  -3  10   6    9.06    3.88
   3 -10  -5  133.91   11.27
  -3  10   5  155.64   12.66
  -3  10   4   70.36    7.15
   3 -10  -3  171.99   14.12
  -3  10   3  213.11   16.83
   3 -10  -2    9.02    5.36
  -3  10   2   11.67    5.54
   3 -10  -1   44.36    6.79
  -3  10   1   29.53    5.82
   3 -10   0   -4.02    3.77
   2 -10 -11    0.46    2.54
  -2  10  11   -3.38    2.60
   2 -10 -10   28.37    4.23
  -2  10  10   21.75    3.80
   2 -10  -9   13.48    3.57
  -2  10   9   18.20    3.84
   2 -10  -8    4.63    3.35
  -2  10   8    4.96    3.29
   2 -10  -7   17.82    4.19
  -2  10   7   23.56    4.24
   2 -10  -6   15.13    4.23
  -2  10   6   16.92    4.13
   2 -10  -5   41.60    5.71
  -2  10   5   44.67    5.71
   2 -10  -4   28.83    4.94
  -2  10   4   38.89    5.45
  -2  10   3   36.22    5.84
   2 -10  -2   37.15    6.70
  -2  10   2   40.67    6.97
   2 -10  -1   -3.05    4.70
  -2  10   1    5.27    4.79
   1 -10 -11    0.37    2.58
  -1  10  11    2.36    2.73
   1 -10 -10   40.48    4.87
  -1  10  10   38.58    4.66
   1 -10  -9   14.21    3.62
  -1  10   9    6.73    3.48
   1 -10  -8  195.74   14.74
  -1  10   8  221.16   16.39
   1 -10  -7    2.69    3.40
  -1  10   7    1.87    3.40
   1 -10  -6   62.07    6.75
  -1  10   6   61.28    6.64
   1 -10  -5   42.00    5.65
  -1  10   5   43.03    5.67
   1 -10  -4   10.34    3.93
  -1  10   4   18.35    4.54
   1 -10  -3   42.18    6.59
  -1  10   3   35.27    6.29
   1 -10  -2   12.90    5.56
  -1  10   2   14.58    5.60
  -1  10   1  104.40    9.40
   0 -10 -11   -0.11    2.63
   0  10  11   -3.84    2.58
   0 -10 -10   60.20    5.95
   0  10  10   48.49    5.18
   0 -10  -9    2.38    3.29
   0  10   9    0.18    3.22
   0 -10  -7    0.55    3.40
   0  10   7    0.68    3.53
   0 -10  -6  170.67   13.50
   0  10   6  134.05   11.07
   0 -10  -5    1.04    3.70
   0  10   5    1.02    3.68
   0 -10  -4  197.57   15.31
   0  10   4  176.11   14.16
   0 -10  -3    1.30    5.27
   0  10   3    8.32    5.40
   0 -10  -1    5.76    4.24
   0  10   1   -0.35    4.26
  -1 -10 -11    3.44    2.71
   1  10  11    4.26    2.76
  -1 -10 -10   43.03    4.99
   1  10  10   42.64    4.87
  -1 -10  -9   20.73    4.01
   1  10   9   11.43    3.68
  -1 -10  -8  201.96   15.18
   1  10   8  205.43   15.42
  -1 -10  -7    1.59    3.46
   1  10   7   -1.26    3.44
  -1 -10  -6   49.87    5.89
   1  10   6   54.48    6.13
  -1 -10  -5   31.52    4.87
   1  10   5   32.21    5.01
  -1 -10  -4    7.83    4.17
   1  10   4   20.14    4.77
  -1 -10  -3   63.86    7.94
   1  10   3   53.60    7.26
  -1 -10  -2   14.16    5.51
   1  10   2    8.71    4.92
  -1 -10  -1   66.06    6.57
   1  10   1   69.31    6.97
  -2 -10 -11    0.64    2.65
   2  10  11   -3.07    2.56
  -2 -10 -10   17.78    3.68
   2  10  10   19.77    3.59
  -2 -10  -9   30.48    4.48
   2  10   9   18.04    3.71
  -2 -10  -8    9.90    3.66
   2  10   8    4.59    3.55
  -2 -10  -7   11.49    3.82
   2  10   7   12.88    3.82
  -2 -10  -6   20.49    4.15
   2  10   6   11.63    3.93
  -2 -10  -5   19.50    4.24
   2  10   5   17.18    4.13
  -2 -10  -3   24.27    5.47
   2  10   3   14.29    5.52
  -2 -10  -2   32.84    5.67
   2  10   2   32.21    5.65
  -3 -10 -11   -2.21    2.54
   3  10  11    1.19    2.49
  -3 -10 -10    5.71    3.07
   3  10  10    5.73    2.87
  -3 -10  -9    3.42    3.42
   3  10   9    2.74    3.27
  -3 -10  -8    0.75    3.44
   3  10   8    5.60    3.37
  -3 -10  -7   45.20    5.51
   3  10   7   36.35    5.07
  -3 -10  -6    5.76    3.38
   3  10   6    6.15    3.68
  -3 -10  -3  552.27   39.02
   3  10   3  547.15   38.89
  -3 -10  -2   -2.21    3.90
   3  10   2    3.62    4.02
  -4 -10 -11    1.50    2.47
   4  10  11    2.56    2.49
  -4 -10 -10    0.15    2.93
   4  10  10    1.52    2.84
  -4 -10  -9   64.78    6.38
   4  10   9   80.64    7.32
  -4 -10  -8    1.81    3.29
   4  10   8   -0.73    3.37
  -4 -10  -7    2.41    3.22
   4  10   7   11.23    3.77
  -4 -10  -6    2.14    3.35
   4  10   6    4.74    3.62
  -4 -10  -5   85.68    7.77
   4  10   5   84.70    7.96
  -4 -10  -4   11.34    4.76
   4  10   4    3.79    4.66
  -4 -10  -3   29.56    5.43
   4  10   3   11.69    4.88
  -4 -10  -2    3.33    3.51
   4  10   2    3.38    3.64
  -5 -10 -11   22.88    3.35
   5  10  11   30.42    3.79
  -5 -10 -10   -0.04    2.74
   5  10  10    1.92    2.89
  -5 -10  -9  202.14   15.04
   5  10   9  240.92   17.62
  -5 -10  -8    6.82    3.51
   5  10   8    3.59    3.44
  -5 -10  -7   34.88    4.90
   5  10   7   31.78    4.83
  -5 -10  -6    4.59    3.40
   5  10   6    1.46    3.64
  -5 -10  -4   10.19    4.54
   5  10   4    2.38    4.65
  -5 -10  -3  193.36   15.04
   5  10   3  159.19   13.06
  -5 -10  -2   -0.97    3.11
   5  10   2    3.09    3.05
  -6 -10 -11    4.72    2.60
  -6 -10 -10   17.05    3.35
   6  10  10   15.59    3.35
  -6 -10  -9   44.51    5.14
   6  10   9   56.51    5.87
  -6 -10  -8    2.14    3.48
   6  10   8    2.51    3.29
  -6 -10  -7   14.14    3.80
   6  10   7   20.18    4.17
  -6 -10  -6    4.23    3.31
   6  10   6    5.20    3.46
  -6 -10  -5   28.21    4.43
   6  10   5   30.44    5.05
  -6 -10  -4   20.93    4.79
   6  10   4   24.07    5.34
  -6 -10  -3    6.49    3.77
   6  10   3   13.10    4.10
  -7 -10 -10    2.30    2.56
   7  10  10   -3.73    2.58
  -7 -10  -9    2.89    3.11
   7  10   9    4.12    3.18
  -7 -10  -8    6.59    3.44
   7  10   8    7.39    3.59
  -7 -10  -7   29.54    4.59
   7  10   7   27.92    4.61
  -7 -10  -6   36.60    4.85
   7  10   6   38.80    5.09
  -7 -10  -5    7.50    3.53
   7  10   5   10.04    3.95
  -7 -10  -3   33.38    4.66
   7  10   3   31.70    4.70
  -8 -10 -10    2.69    2.54
   8  10  10    1.23    2.49
  -8 -10  -9    1.79    3.02
   8  10   9   -4.34    2.93
  -8 -10  -8  100.87    8.78
   8  10   8   96.51    8.51
  -8 -10  -5   52.06    5.85
  -8 -10  -4  439.22   31.24
   8  10   4  407.75   29.29
  -8 -10  -3   -0.60    2.96
   8  10   3   -0.24    3.11
  -9 -10 -10    5.01    2.58
   9  10  10    6.53    2.71
  -9 -10  -9    4.12    2.91
   9  10   9    2.09    2.80
  -9 -10  -8   95.07    8.43
   9  10   8   91.28    8.16
  -9 -10  -7    0.00    3.44
   9  10   7    1.39    3.49
  -9 -10  -6   25.90    4.19
   9  10   6   28.26    4.63
   9  10   5    3.88    4.46
  -9 -10  -4   28.81    4.70
   9  10   4   38.34    5.56
  -9 -10  -3    5.03    2.85
   9  10   3    1.45    2.69
 -10 -10  -9    5.78    2.71
  10  10   9    2.07    2.69
 -10 -10  -8   72.92    6.91
  10  10   8   88.68    7.87
 -10 -10  -7    3.57    3.35
  10  10   7    6.20    3.48
 -10 -10  -6   23.89    4.19
  10  10   6   38.05    5.29
 -10 -10  -5    0.35    4.02
  10  10   5    6.75    4.39
 -10 -10  -4   12.16    3.86
  10  10   4   13.99    4.37
 -11 -10  -9    4.90    2.65
  11  10   9    2.52    2.56
 -11 -10  -8   12.88    3.38
  11  10   8    2.73    2.91
 -11 -10  -7   10.90    3.53
  11  10   7    3.31    3.46
 -11 -10  -6   85.90    7.87
  11  10   6   92.51    8.67
 -11 -10  -4   10.77    3.62
  11  10   4   -1.81    3.70
 -12 -10  -8   10.46    3.07
  12  10   8    3.55    2.96
 -12 -10  -7   14.80    3.42
  12  10   7    4.50    3.27
 -12 -10  -6   19.34    3.93
  12  10   6   15.70    4.28
 -12 -10  -5   89.60    8.32
  12  10   5   90.29    8.87
 -12 -10  -4   41.76    4.85
  12  10   4   31.96    4.57
 -13 -10  -4   37.19    4.37
  13  10   4   26.20    4.01
 -14 -10  -7    3.68    2.51
  14  10   7   10.43    3.27
 -14 -10  -6   25.24    4.15
  14  10   6   20.73    4.68
 -14 -10  -4    2.12    2.63
 -15 -10  -6   -1.61    2.96
  15  10   6   -3.75    3.46
 -15 -10  -5   32.10    4.32
  15  10   5   25.99    3.95
  17 -11  -1    3.62    3.57
 -17  11   1   10.61    4.19
  17 -11   0    1.88    3.91
 -17  11   0   -3.79    4.77
  17 -11   1   -2.47    4.26
 -17  11  -1    3.22    4.77
  16 -11  -4    0.51    3.60
 -16  11   4   -5.80    3.95
  16 -11  -3    2.36    3.33
 -16  11   3    0.99    3.80
  16 -11  -2    0.66    3.37
 -16  11   2    4.43    3.75
  16 -11  -1    5.78    3.88
 -16  11   1   11.34    4.54
  16 -11   0   -1.85    4.39
 -16  11   0    4.41    5.01
  16 -11   1    7.66    4.63
 -16  11  -1    6.31    4.76
  16 -11   2    5.82    3.70
 -16  11  -2    2.43    3.88
  16 -11   3    3.04    2.84
  15 -11  -5    4.37    3.42
 -15  11   5   -3.04    3.55
  15 -11  -4    0.18    3.46
 -15  11   4    4.68    3.93
  15 -11  -3    0.07    3.73
 -15  11   3   -3.09    3.88
  15 -11  -2    3.77    3.79
 -15  11   2    3.62    3.80
  15 -11  -1    3.00    4.08
 -15  11   1   -2.65    4.26
  15 -11   0   -4.96    4.85
 -15  11   0    8.07    5.56
  15 -11   1    3.29    4.98
 -15  11  -1   -2.63    4.79
  15 -11   2   -1.15    4.01
 -15  11  -2   -3.62    3.68
  14 -11  -6   -0.75    2.84
 -14  11   6   -2.25    3.35
  14 -11  -5    0.48    3.49
 -14  11   5    1.46    3.88
  14 -11  -4    4.65    3.97
 -14  11   4   -1.63    3.82
  14 -11  -3   -2.89    3.77
 -14  11   3    3.59    4.32
  14 -11  -2   -5.54    3.90
 -14  11   2    5.05    4.41
  14 -11  -1    1.57    4.41
 -14  11   1    3.37    4.90
  14 -11   0    0.64    5.49
 -14  11   0   10.35    5.62
  14 -11   1    2.49    5.16
 -14  11  -1    4.55    5.29
  14 -11   2    0.22    4.06
 -14  11  -2    7.45    4.10
  13 -11  -7    4.90    3.00
 -13  11   7    0.84    3.16
  13 -11  -6   22.65    4.21
 -13  11   6   11.27    4.19
  13 -11  -5    1.72    3.88
 -13  11   5   -2.03    4.21
  13 -11  -4   15.15    4.54
 -13  11   4    7.08    4.35
  13 -11  -3    5.03    4.32
 -13  11   3    8.21    4.35
  13 -11  -2   22.79    4.99
 -13  11   2   26.85    5.76
  13 -11  -1    5.52    4.61
 -13  11   1    5.29    5.47
  13 -11   0    1.21    5.45
 -13  11   0    1.57    5.18
  13 -11   1    7.92    5.34
 -13  11  -1    7.46    4.94
  13 -11   2   14.16    4.41
 -13  11  -2   15.79    4.24
  12 -11  -8    3.46    3.11
  12 -11  -7    1.72    3.00
 -12  11   7    2.41    3.37
  12 -11  -6    3.42    3.60
 -12  11   6    3.79    4.12
  12 -11  -5    4.70    4.02
 -12  11   5    0.27    4.12
  12 -11  -4    1.48    4.35
 -12  11   4   -1.83    4.17
  12 -11  -3    5.23    4.50
 -12  11   3   -3.55    4.02
  12 -11  -2   17.01    4.90
 -12  11   2    9.22    4.68
  12 -11  -1    9.38    5.32
 -12  11   1   -1.23    5.40
  12 -11   0   10.52    5.62
 -12  11   0    3.26    5.18
  12 -11   1    9.66    4.83
 -12  11  -1    3.29    4.70
  12 -11   2   10.57    3.95
  11 -11  -8    4.68    3.07
 -11  11   8    0.11    3.13
  11 -11  -7    5.10    3.33
 -11  11   7    7.98    3.95
  11 -11  -6    2.18    3.77
 -11  11   6   -3.71    3.93
  11 -11  -5    1.98    4.04
 -11  11   5    1.37    4.35
  11 -11  -4    3.18    3.99
 -11  11   4    7.96    4.41
  11 -11  -3    3.35    4.35
 -11  11   3    5.51    4.12
  11 -11  -2    0.79    4.52
 -11  11   2   -0.33    4.12
  11 -11  -1   -2.78    5.40
 -11  11   1   -2.91    4.99
  11 -11   0    5.30    5.41
 -11  11   0    5.07    5.21
  11 -11   1    5.63    4.59
 -11  11  -1    5.16    4.12
  10 -11  -9    4.79    2.82
 -10  11   9    9.84    3.27
  10 -11  -8   -3.29    3.00
  10 -11  -7    5.47    3.70
 -10  11   7   12.93    3.73
  10 -11  -6    9.20    4.37
 -10  11   6    9.93    4.46
  10 -11  -5    1.94    4.12
 -10  11   5    2.14    4.23
  10 -11  -4   -0.77    3.90
 -10  11   4    4.43    4.04
  10 -11  -3    8.16    4.26
 -10  11   3   12.90    4.15
  10 -11  -2    0.95    4.34
 -10  11   2    1.50    4.21
  10 -11  -1   14.20    5.95
 -10  11   1    3.09    4.83
  10 -11   0    1.30    5.29
 -10  11   0   -4.50    4.35
  10 -11   1    2.76    4.10
 -10  11  -1    4.13    3.88
   9 -11  -9   13.56    3.29
  -9  11   9    9.81    3.29
   9 -11  -8    3.97    3.27
  -9  11   8   -1.59    3.42
   9 -11  -7    8.49    3.91
  -9  11   7    8.36    4.10
   9 -11  -6    2.40    3.99
   9 -11  -5   26.47    5.18
  -9  11   5   21.06    4.90
   9 -11  -4    3.70    4.01
  -9  11   4   -1.06    4.08
   9 -11  -3   -0.18    3.62
  -9  11   3    1.46    3.75
   9 -11  -2    5.30    4.37
  -9  11   2    1.30    4.17
   9 -11  -1   12.55    5.60
  -9  11   1    6.07    4.74
   9 -11   0    1.41    4.85
  -9  11   0    3.99    4.52
   9 -11   1    8.43    4.01
  -9  11  -1    5.25    3.42
   8 -11  -9   15.24    3.49
  -8  11   9   14.10    3.62
   8 -11  -8   -3.49    3.26
  -8  11   8    6.42    3.75
   8 -11  -7    3.20    3.95
  -8  11   7   10.26    4.39
   8 -11  -6   10.77    4.32
  -8  11   6    3.20    4.01
   8 -11  -5    9.29    4.23
   8 -11  -4    0.11    4.01
  -8  11   4    0.49    3.99
   8 -11  -3    9.57    4.26
  -8  11   3   15.09    4.50
   8 -11  -2    3.09    4.10
  -8  11   2    2.87    4.39
   8 -11  -1   14.74    5.67
  -8  11   1   13.08    5.16
   8 -11   0   12.09    5.05
  -8  11   0    4.88    4.15
   8 -11   1    9.62    3.79
  -8  11  -1   -1.81    3.22
  -7  11  10    4.63    2.95
   7 -11  -9   -2.14    3.13
  -7  11   9    1.72    3.24
   7 -11  -8    3.55    3.64
  -7  11   8   -0.38    3.62
   7 -11  -7    3.22    3.82
  -7  11   7    5.98    4.02
   7 -11  -6    6.49    3.93
  -7  11   6    4.94    4.15
   7 -11  -5    5.71    4.06
  -7  11   5    6.82    4.10
   7 -11  -4    3.26    3.88
  -7  11   4    2.45    3.64
   7 -11  -3    7.10    4.06
   7 -11  -2   13.57    4.83
  -7  11   2    7.81    5.38
   7 -11  -1    8.12    5.34
  -7  11   1    9.20    4.85
   7 -11   0    1.19    4.26
  -7  11   0    4.12    3.82
   6 -11 -10   -2.14    2.67
  -6  11  10   -1.76    2.80
   6 -11  -9    0.24    3.13
  -6  11   9    3.84    3.51
  -6  11   8   14.82    4.26
   6 -11  -7    6.70    3.99
  -6  11   7    0.77    4.04
   6 -11  -6    9.64    4.13
  -6  11   6    4.98    4.15
   6 -11  -5    0.70    3.97
  -6  11   5    6.48    4.08
   6 -11  -4    2.82    3.93
  -6  11   4   -2.14    3.64
   6 -11  -3   14.18    4.50
  -6  11   3    2.54    4.10
   6 -11  -2    8.45    5.49
   6 -11  -1   11.62    5.16
  -6  11   1   -0.68    4.35
   6 -11   0   -2.82    4.08
  -6  11   0    0.02    3.64
   5 -11 -10    8.56    3.05
  -5  11  10    6.00    3.05
   5 -11  -9    1.50    3.37
  -5  11   9    0.04    3.38
   5 -11  -8   23.32    4.63
  -5  11   8   21.44    4.54
  -5  11   7    3.97    3.90
   5 -11  -6    3.97    3.97
  -5  11   6    1.57    3.79
   5 -11  -5    4.50    4.04
  -5  11   5    2.89    3.77
   5 -11  -4   26.05    4.81
  -5  11   4   17.01    4.32
   5 -11  -3    0.15    4.02
  -5  11   3    2.32    4.34
   5 -11  -2   11.43    5.67
  -5  11   2   25.17    5.84
   5 -11  -1    3.66    4.92
  -5  11   1    1.99    4.66
   5 -11   0    4.61    3.82
   4 -11 -10    6.22    3.05
  -4  11  10    4.30    3.09
   4 -11  -9    1.61    3.48
  -4  11   9    5.73    3.57
   4 -11  -8   44.05    5.58
  -4  11   8   45.04    5.76
   4 -11  -7    3.90    3.99
  -4  11   7    5.73    4.17
   4 -11  -6    0.46    3.38
  -4  11   6   -1.04    3.64
  -4  11   5    4.02    3.88
   4 -11  -4    1.46    3.84
  -4  11   4    5.21    3.90
   4 -11  -3    7.54    4.35
  -4  11   3    7.15    4.45
   4 -11  -2   23.10    5.93
  -4  11   2   17.60    5.85
   4 -11  -1   -1.46    4.81
  -4  11   1    5.60    4.54
   4 -11   0   14.14    4.10
  -4  11   0    6.26    3.62
   3 -11 -11    0.99    2.73
  -3  11  11    1.48    2.96
   3 -11 -10   32.49    4.54
  -3  11  10   37.26    4.74
   3 -11  -9    7.41    3.59
  -3  11   9    5.30    3.60
   3 -11  -8    2.10    3.75
  -3  11   8    1.94    3.77
   3 -11  -7    1.21    3.71
  -3  11   7    0.53    3.75
   3 -11  -6   25.28    4.85
  -3  11   6   25.98    4.87
   3 -11  -5   -3.51    3.79
  -3  11   5   -1.83    3.70
  -3  11   4   19.77    4.76
   3 -11  -3    4.32    4.15
  -3  11   3    1.85    4.54
   3 -11  -2   25.99    6.15
  -3  11   2   22.37    5.98
   3 -11  -1    9.73    4.77
  -3  11   1    7.54    4.48
   3 -11   0   -1.41    3.60
   2 -11 -11   20.98    3.62
  -2  11  11   20.23    3.60
   2 -11 -10    3.59    3.02
  -2  11  10    1.90    3.11
   2 -11  -9    7.77    3.73
  -2  11   9    9.62    3.68
   2 -11  -8    0.77    3.86
  -2  11   8    7.06    3.90
   2 -11  -7   -6.75    4.02
  -2  11   7   -2.01    3.66
   2 -11  -6   -0.18    3.80
  -2  11   6    0.29    3.73
   2 -11  -5   -6.62    3.82
  -2  11   5   -1.50    3.77
   2 -11  -4    2.36    3.90
  -2  11   4   10.37    4.52
   2 -11  -3   -0.79    4.21
  -2  11   3   10.34    5.07
  -2  11   2    5.30    5.09
   2 -11  -1    7.28    4.63
  -2  11   1    4.02    4.32
   1 -11 -11    7.19    2.87
  -1  11  11    6.49    2.82
   1 -11 -10    2.45    3.09
  -1  11  10    3.49    3.29
   1 -11  -9   12.35    3.82
  -1  11   9    9.75    3.77
   1 -11  -8    2.29    3.71
  -1  11   8    0.73    3.75
   1 -11  -7   29.16    5.05
  -1  11   7   27.44    4.81
   1 -11  -6    4.30    3.80
  -1  11   6    1.45    3.68
   1 -11  -5   14.23    4.17
  -1  11   5   10.28    4.06
   1 -11  -3    2.34    5.01
  -1  11   3   -1.04    5.09
   1 -11  -2   15.53    5.56
  -1  11   2   13.17    5.36
  -1  11   1    5.73    4.08
   0 -11 -11   20.40    3.53
   0  11  11   25.24    3.77
   0 -11 -10   -0.99    2.98
   0  11  10   -0.88    3.11
   0 -11  -9    0.86    3.48
   0  11   9   -1.77    3.38
   0 -11  -8    0.02    3.73
   0  11   8   -1.15    3.64
   0 -11  -7   24.35    4.77
   0  11   7   39.97    5.51
   0 -11  -6    7.02    3.80
   0  11   6    3.35    3.75
   0 -11  -5    7.17    3.82
   0  11   5    2.51    3.62
   0 -11  -4    0.73    4.02
   0  11   4    6.62    4.32
   0 -11  -3   86.45    9.35
   0  11   3   96.50    9.97
   0 -11  -2    3.95    4.98
   0  11   2    2.82    4.72
   0 -11  -1   75.93    7.32
   0  11   1   79.87    7.41
  -1 -11 -11    7.04    2.93
   1  11  11    5.76    2.87
  -1 -11 -10    2.25    3.13
   1  11  10   -0.11    3.04
  -1 -11  -9    1.92    3.57
   1  11   9    9.79    3.80
  -1 -11  -8    7.90    3.84
   1  11   8   -0.51    3.62
  -1 -11  -7   28.78    4.99
   1  11   7   30.04    4.98
  -1 -11  -6    5.91    3.90
   1  11   6   -2.98    3.64
  -1 -11  -5   10.88    3.86
   1  11   5    8.85    3.88
  -1 -11  -4   15.86    4.59
   1  11   4    9.24    4.30
  -1 -11  -3    9.79    5.01
   1  11   3   11.49    5.30
  -1 -11  -2   11.56    4.81
   1  11   2    2.43    4.41
  -1 -11  -1    3.37    3.51
  -2 -11 -11   19.34    3.48
   2  11  11   19.63    3.46
  -2 -11 -10    4.45    3.26
   2  11  10    3.46    3.16
  -2 -11  -9    2.69    3.62
   2  11   9   -0.82    3.59
  -2 -11  -8    2.14    3.88
   2  11   8   -1.66    3.62
  -2 -11  -7    1.43    3.66
   2  11   7    3.33    3.71
  -2 -11  -6    2.51    3.60
   2  11   6    2.52    3.68
  -2 -11  -5    5.27    3.53
   2  11   5    6.13    3.91
  -2 -11  -4    3.13    3.93
   2  11   4    3.95    4.70
  -2 -11  -3   13.87    5.10
   2  11   3    1.41    5.03
  -2 -11  -2   -3.29    4.15
   2  11   2    1.08    4.19
  -3 -11 -11   -1.83    2.65
   3  11  11   -0.57    2.52
  -3 -11 -10   -2.07    3.07
   3  11  10    5.03    3.15
  -3 -11  -9    5.82    3.75
   3  11   9   -0.16    3.46
  -3 -11  -8    6.84    3.97
   3  11   8    4.06    3.80
  -3 -11  -7   -2.65    3.70
   3  11   7   -3.68    3.68
  -3 -11  -6   14.43    4.02
   3  11   6   12.77    4.12
  -3 -11  -5    4.30    3.44
   3  11   5    5.69    4.15
  -3 -11  -4   21.90    5.18
   3  11   4   21.81    5.82
  -3 -11  -3    6.60    4.63
   3  11   3    6.95    4.70
  -3 -11  -2   14.82    4.28
   3  11   2   21.29    4.34
  -4 -11 -10   -6.24    2.91
   4  11  10    0.82    2.87
  -4 -11  -9   -3.35    3.40
   4  11   9    3.09    3.66
  -4 -11  -8   37.03    5.49
   4  11   8   46.52    5.89
  -4 -11  -7    3.84    3.64
   4  11   7    4.94    3.91
  -4 -11  -6   -0.15    3.33
   4  11   6    2.14    3.51
  -4 -11  -5   -0.86    3.49
   4  11   5    7.04    4.04
  -4 -11  -4    9.48    4.55
   4  11   4   13.21    5.40
  -4 -11  -3    2.41    4.28
   4  11   3   -1.55    4.30
  -4 -11  -2    6.86    3.57
   4  11   2   11.93    3.57
  -5 -11 -10   -1.32    2.78
   5  11  10    3.62    2.91
  -5 -11  -9    1.34    3.49
   5  11   9    0.22    3.42
  -5 -11  -8   23.89    4.68
   5  11   8   19.46    4.52
  -5 -11  -7    0.62    3.48
   5  11   7    3.40    3.75
  -5 -11  -6   -0.02    3.22
   5  11   6    4.50    3.53
  -5 -11  -5    3.38    3.48
   5  11   5    0.95    3.93
  -5 -11  -4   22.99    5.05
   5  11   4   21.81    5.32
  -5 -11  -3   -2.71    4.01
   5  11   3    3.04    3.97
  -5 -11  -2    3.29    3.18
  -6 -11 -10    1.23    2.74
   6  11  10    0.62    2.80
  -6 -11  -9   -0.71    3.46
   6  11   9   -1.77    3.48
  -6 -11  -8   21.06    4.52
   6  11   8   19.52    4.55
  -6 -11  -7   -0.22    3.62
   6  11   7    4.92    3.79
  -6 -11  -6   12.62    3.68
   6  11   6    4.19    3.71
  -6 -11  -5   13.08    3.91
   6  11   5   11.67    4.19
  -6 -11  -4    5.47    4.23
   6  11   4    0.71    4.79
  -6 -11  -3   -0.68    3.75
   6  11   3    0.68    3.79
  -7 -11 -10    5.01    2.87
   7  11  10    5.63    2.95
  -7 -11  -9   -2.10    3.33
   7  11   9   -0.05    3.31
  -7 -11  -8    1.66    3.60
   7  11   8    5.89    3.70
  -7 -11  -7    4.30    3.70
   7  11   7    0.53    3.75
  -7 -11  -6    8.82    3.64
   7  11   6    7.12    3.90
  -7 -11  -5   -2.01    3.38
   7  11   5    9.20    4.66
  -7 -11  -4    2.12    3.93
   7  11   4    4.57    4.59
  -7 -11  -3   -0.02    3.27
   7  11   3   -1.88    3.38
  -8 -11 -10   -4.17    2.91
  -8 -11  -9   11.07    3.59
   8  11   9   16.63    3.82
  -8 -11  -8    2.85    3.57
   8  11   8    1.65    3.55
  -8 -11  -7    4.74    3.82
   8  11   7   19.26    4.54
  -8 -11  -6    3.86    3.48
   8  11   6    6.57    4.13
  -8 -11  -5    9.97    4.28
   8  11   5   24.35    5.65
  -8 -11  -4    7.66    4.10
   8  11   4    4.15    4.26
  -8 -11  -3    4.39    3.13
   8  11   3    4.48    3.22
  -9 -11  -9    3.02    3.04
   9  11   9    4.23    3.11
  -9 -11  -8    2.65    3.35
   9  11   8    3.18    3.29
  -9 -11  -7   10.06    3.82
   9  11   7   11.38    3.90
  -9 -11  -6    2.05    3.59
   9  11   6   -1.46    3.97
  -9 -11  -5   25.68    5.32
   9  11   5   17.52    5.27
  -9 -11  -4    0.88    3.64
   9  11   4   -4.83    3.90
  -9 -11  -3    2.74    2.89
 -10 -11  -9    1.35    2.91
  10  11   9   -2.27    2.89
 -10 -11  -8    4.66    3.07
  10  11   8   -2.16    3.02
 -10 -11  -7    8.87    3.62
  10  11   7   -1.10    3.38
 -10 -11  -6    3.82    3.53
  10  11   6   -0.68    3.90
 -10 -11  -5   13.79    4.66
  10  11   5   11.47    4.96
 -10 -11  -4   -3.38    3.51
  10  11   4    2.89    3.79
 -11 -11  -8    2.96    2.91
  11  11   8    0.31    2.85
 -11 -11  -7    5.80    3.13
  11  11   7   -0.51    3.07
 -11 -11  -6    2.74    3.60
 -11 -11  -5    5.47    4.08
  11  11   5    7.19    4.77
 -11 -11  -4    4.01    3.64
  11  11   4    2.43    3.48
 -12 -11  -8    5.36    3.04
  12  11   8    3.48    3.02
 -12 -11  -7    8.01    2.98
  12  11   7    0.64    3.35
 -12 -11  -6    1.28    3.22
  12  11   6    7.23    4.66
 -12 -11  -5   -0.16    3.90
  12  11   5    3.38    4.48
 -12 -11  -4    0.95    3.20
  12  11   4   -0.42    3.48
 -13 -11  -7    0.09    2.62
  13  11   7    3.68    3.29
 -13 -11  -6   14.21    3.66
  13  11   6   14.34    4.66
 -13 -11  -5    4.65    3.62
  13  11   5   -2.82    3.95
 -13 -11  -4    4.61    3.02
 -14 -11  -6    2.40    3.40
  14  11   6   -0.15    3.73
 -14 -11  -5   -1.06    3.00
  14  11   5    0.37    3.24
 -15 -11  -5    5.54    2.78
  15  11   5    1.06    2.87
  16 -12  -2    5.16    3.55
 -16  12   2    6.13    4.01
  16 -12  -1    1.28    3.64
 -16  12   1    0.29    4.13
  16 -12   0   12.70    5.12
 -16  12   0   15.24    5.63
  16 -12   1    7.52    4.52
 -16  12  -1    3.24    4.72
  16 -12   2    5.14    3.75
 -16  12  -2    0.27    3.64
  15 -12  -4    0.02    3.24
 -15  12   4    5.25    3.84
  15 -12  -3    5.25    3.82
 -15  12   3    3.00    3.80
  15 -12  -2    0.97    3.59
 -15  12   2   12.90    4.68
  15 -12   0   -4.39    4.83
 -15  12   0    8.20    5.34
  15 -12   1    5.07    4.63
 -15  12  -1    2.96    4.70
  15 -12   2   -1.24    3.62
 -15  12  -2    0.22    3.53
  14 -12  -5   24.66    4.77
 -14  12   5   26.82    5.12
  14 -12  -4   -2.82    3.62
 -14  12   4    6.88    4.08
  14 -12  -2    4.72    4.21
 -14  12   2    8.69    4.61
  14 -12  -1    9.11    4.98
 -14  12   1   17.27    6.26
  14 -12   0   11.82    5.69
 -14  12   0   10.04    5.73
  14 -12   1   21.99    5.80
 -14  12  -1    6.82    5.18
  14 -12   2    5.87    3.93
 -14  12  -2    7.17    3.90
  13 -12  -6    7.57    3.44
 -13  12   6   15.59    4.23
  13 -12  -5   30.86    5.10
 -13  12   5   37.45    5.76
  13 -12  -4   -1.87    3.90
 -13  12   4   -5.85    4.12
  13 -12  -3    2.95    4.28
 -13  12   3   11.62    4.50
  13 -12  -2   10.76    5.12
 -13  12   2   19.12    5.49
  13 -12  -1   57.15    7.81
 -13  12   1   72.73    9.55
  13 -12   0   14.91    6.38
 -13  12   0    9.53    5.76
  13 -12   1   94.23    9.79
 -13  12  -1   73.37    8.32
  13 -12   2    5.80    4.04
 -13  12  -2    5.62    3.88
  12 -12  -7   18.33    3.95
 -12  12   7   13.70    4.06
  12 -12  -6    2.63    3.77
 -12  12   6    0.93    3.84
  12 -12  -5   39.00    5.85
 -12  12   5   34.15    5.78
  12 -12  -4    9.24    4.55
 -12  12   4    6.86    4.57
  12 -12  -3   44.87    6.48
 -12  12   3   67.89    7.70
  12 -12  -2   12.37    5.09
 -12  12   2   12.71    5.18
  12 -12  -1  124.76   12.66
 -12  12   1   94.03   10.54
  12 -12   0   65.56    8.84
 -12  12   0   53.93    7.99
  12 -12   1  100.56    9.97
 -12  12  -1   91.01    9.18
  12 -12   2    4.72    4.06
  11 -12  -8    2.12    3.29
  11 -12  -7    3.04    3.42
 -11  12   7    3.16    3.77
  11 -12  -6    7.17    4.08
 -11  12   6    6.49    4.28
  11 -12  -5   -2.87    4.06
 -11  12   5    2.51    4.32
  11 -12  -4   34.52    5.87
 -11  12   4   23.03    5.21
  11 -12  -3    2.98    4.50
 -11  12   3    9.95    4.52
  11 -12  -2    9.46    5.16
 -11  12   2    7.37    4.85
  11 -12  -1    7.32    6.13
 -11  12   1    7.52    5.51
  11 -12   0    7.35    5.76
 -11  12   0    1.04    4.98
  11 -12   1   12.46    4.92
 -11  12  -1   10.65    4.50
  10 -12  -8    2.62    3.16
 -10  12   8   -5.54    3.15
  10 -12  -7   11.38    4.02
  10 -12  -6   13.66    4.65
 -10  12   6   11.18    4.55
  10 -12  -5   -0.70    4.30
 -10  12   5   10.24    4.70
  10 -12  -4    4.01    4.39
 -10  12   4    1.12    4.15
  10 -12  -3    9.93    4.28
 -10  12   3    5.29    4.45
  10 -12  -2   34.88    6.37
 -10  12   2   54.53    7.56
  10 -12  -1    8.78    5.85
 -10  12   1    8.76    5.43
  10 -12   0    5.95    5.41
 -10  12   0   -0.31    4.41
  10 -12   1    6.70    4.32
 -10  12  -1    9.79    3.93
   9 -12  -8    7.41    3.49
  -9  12   8    0.73    3.55
   9 -12  -7   -1.06    3.82
  -9  12   7    1.83    3.99
   9 -12  -6   75.18    8.09
   9 -12  -5   -6.66    4.21
  -9  12   5    1.81    4.43
   9 -12  -4  292.51   22.01
  -9  12   4  368.24   26.95
   9 -12  -3   12.40    4.59
  -9  12   3    7.96    4.55
   9 -12  -2   48.40    7.06
  -9  12   2   70.36    8.84
   9 -12  -1    1.66    5.47
  -9  12   1    1.41    4.77
   9 -12   0   10.19    5.23
  -9  12   0    1.94    4.43
   9 -12   1    1.35    4.06
  -9  12  -1   -1.96    3.37
   8 -12  -9    6.66    3.22
  -8  12   9    0.40    3.24
   8 -12  -8   10.94    3.88
  -8  12   8    6.95    3.91
   8 -12  -7    0.73    4.02
  -8  12   7   11.96    4.54
   8 -12  -6   17.38    4.94
  -8  12   6   15.02    4.74
   8 -12  -5   24.92    5.25
  -8  12   5   13.96    4.26
   8 -12  -4   13.06    4.30
   8 -12  -3   47.34    6.55
  -8  12   3   29.56    5.67
   8 -12  -2   16.41    5.73
  -8  12   2   35.78    6.81
   8 -12  -1   14.21    5.56
  -8  12   1    1.10    5.07
   8 -12   0  105.90   10.02
  -8  12   0  142.58   12.18
   8 -12   1    5.85    3.79
  -7  12   9    5.93    3.40
   7 -12  -8    6.75    4.01
  -7  12   8    4.23    3.90
   7 -12  -7    1.01    4.21
  -7  12   7    2.18    4.19
   7 -12  -6    0.42    4.12
  -7  12   6   11.98    4.57
   7 -12  -5    5.93    4.21
  -7  12   5    0.64    4.17
   7 -12  -4   81.50    8.29
  -7  12   4   87.90    8.76
   7 -12  -3   26.43    5.40
   7 -12  -2   20.93    5.98
  -7  12   2   27.71    6.22
   7 -12  -1   39.00    6.91
  -7  12   1   36.97    6.49
   7 -12   0    3.55    4.39
  -7  12   0   -0.53    3.93
   6 -12 -10   -0.11    3.04
   6 -12  -9   -0.59    3.20
  -6  12   9    4.04    3.46
  -6  12   8    3.40    3.91
   6 -12  -7  107.34   10.26
  -6  12   7  106.32    9.88
   6 -12  -6    1.99    4.19
  -6  12   6    3.44    4.21
   6 -12  -5    3.82    4.37
  -6  12   5   17.60    4.83
   6 -12  -4   10.06    4.15
  -6  12   4    1.88    4.01
   6 -12  -1   21.29    5.78
   6 -12   0   10.32    4.28
  -6  12   0   10.92    4.19
   5 -12 -10   -1.57    2.80
  -5  12  10   -2.52    2.96
   5 -12  -9   -1.98    3.40
  -5  12   9    6.49    3.77
   5 -12  -8    4.17    4.08
  -5  12   8    3.11    4.02
  -5  12   7    0.51    4.39
  -5  12   6   11.91    4.41
   5 -12  -5    6.75    4.34
  -5  12   5    2.87    4.01
   5 -12  -4    5.47    4.24
  -5  12   4    7.02    4.21
   5 -12  -3   91.68    9.16
  -5  12   3  100.37    9.93
   5 -12  -2   10.19    5.41
  -5  12   2   15.90    5.60
   5 -12  -1   14.74    5.54
  -5  12   1   19.48    5.25
   5 -12   0    5.01    4.02
   4 -12 -10    0.02    2.89
  -4  12  10    2.74    3.16
   4 -12  -9   29.56    4.88
  -4  12   9   21.88    4.50
   4 -12  -8   -6.13    3.91
  -4  12   8    6.31    4.19
   4 -12  -7  429.16   30.88
  -4  12   7  447.81   32.12
   4 -12  -6    5.62    4.39
  -4  12   6   -0.46    4.15
  -4  12   5   62.56    7.04
   4 -12  -4    8.56    4.35
  -4  12   4    0.77    4.21
   4 -12  -3  104.42   10.06
  -4  12   3  118.08   11.58
   4 -12  -2    4.50    5.23
  -4  12   2    4.01    5.27
   4 -12  -1  320.31   23.76
  -4  12   1  347.75   25.46
   4 -12   0   14.31    4.01
  -4  12   0    8.63    3.53
   3 -12 -10    4.19    3.04
  -3  12  10    2.58    3.16
   3 -12  -9    1.15    3.59
  -3  12   9    0.59    3.66
   3 -12  -8   18.22    4.65
  -3  12   8    6.16    4.24
   3 -12  -7    3.55    4.17
  -3  12   7    3.16    4.21
   3 -12  -6    7.13    4.15
  -3  12   6    5.78    4.08
   3 -12  -5   28.46    5.16
  -3  12   5   28.98    5.09
  -3  12   4   65.75    7.56
  -3  12   3   32.65    6.73
   3 -12  -2    2.40    5.10
  -3  12   2    9.95    5.23
   3 -12  -1   22.34    5.30
  -3  12   1   20.40    4.77
   2 -12 -10    4.70    3.27
  -2  12  10    6.35    3.13
   2 -12  -9    1.28    3.49
  -2  12   9    4.04    3.79
   2 -12  -8    5.07    4.30
  -2  12   8    7.85    4.54
   2 -12  -7   25.52    5.29
  -2  12   7   29.29    5.16
   2 -12  -6   -1.26    3.95
  -2  12   6    8.76    4.30
   2 -12  -5    1.37    3.91
  -2  12   5    2.23    3.77
   2 -12  -4    9.71    4.37
  -2  12   4   20.45    5.12
   2 -12  -3    1.94    5.45
  -2  12   3   12.48    5.63
  -2  12   2   17.45    5.40
   2 -12  -1    0.51    4.19
  -2  12   1    0.05    3.86
   1 -12 -10   15.60    3.73
  -1  12  10    6.66    3.33
   1 -12  -9    4.52    3.71
  -1  12   9    0.93    3.77
   1 -12  -8   94.67    9.06
  -1  12   8  101.05    9.44
   1 -12  -7   -0.22    4.10
  -1  12   7   -1.74    3.91
   1 -12  -6  221.35   17.21
  -1  12   6  199.94   15.73
   1 -12  -5    6.70    3.97
  -1  12   5    4.74    3.86
   1 -12  -4  110.69   10.32
  -1  12   4   90.61    9.07
   1 -12  -3   63.29    8.09
  -1  12   3   57.86    7.68
   1 -12  -2  136.67   12.26
  -1  12   2  144.08   12.62
   1 -12  -1   10.59    3.79
  -1  12   1    0.60    3.77
   0 -12 -10   21.77    4.08
   0  12  10   33.68    4.65
   0 -12  -9   -1.19    3.75
   0  12   9   -1.81    3.59
   0 -12  -8   29.62    5.54
   0  12   8   27.46    5.16
   0 -12  -7    4.66    4.17
   0  12   7    3.15    4.06
   0 -12  -6   26.56    5.09
   0  12   6   25.12    4.88
   0 -12  -5    5.18    3.88
   0  12   5   10.12    4.17
   0 -12  -4   43.63    6.20
   0  12   4   57.04    7.45
   0 -12  -3    0.99    4.88
   0  12   3   10.12    5.49
   0 -12  -2  415.07   30.06
   0  12   2  429.16   30.82
   0 -12  -1    4.66    3.59
   0  12   1   -0.27    3.37
  -1 -12 -10    7.92    3.46
   1  12  10   12.49    3.59
  -1 -12  -9   -1.59    3.77
   1  12   9   -0.44    3.68
  -1 -12  -8   96.04    9.22
   1  12   8  102.17    9.48
  -1 -12  -7    1.34    4.02
   1  12   7   -2.09    3.97
  -1 -12  -6  219.15   16.94
   1  12   6  176.29   14.07
  -1 -12  -5   -3.70    3.68
   1  12   5    7.28    4.24
  -1 -12  -3   46.81    6.93
   1  12   3   45.97    6.95
  -1 -12  -2  211.47   16.37
   1  12   2  186.59   14.80
  -2 -12 -10   -2.49    3.07
   2  12  10    0.05    3.13
  -2 -12  -9    7.90    3.88
   2  12   9    9.55    3.90
  -2 -12  -8    5.91    4.02
   2  12   8    7.70    4.28
  -2 -12  -7   21.86    4.94
   2  12   7   20.95    4.76
  -2 -12  -6   -1.32    3.75
   2  12   6    3.51    3.86
  -2 -12  -4   12.02    5.12
   2  12   4   24.15    5.95
  -2 -12  -3    1.72    4.83
   2  12   3    5.69    4.87
  -2 -12  -2   13.72    4.48
   2  12   2    8.93    4.01
  -3 -12 -10    3.16    3.18
   3  12  10    2.38    3.27
  -3 -12  -9    4.72    3.91
   3  12   9    8.03    3.75
  -3 -12  -8   12.18    4.37
   3  12   8   11.49    4.35
  -3 -12  -7    7.34    4.19
   3  12   7    1.85    4.01
  -3 -12  -6    1.98    3.66
   3  12   6    1.98    3.91
  -3 -12  -5   38.62    5.54
   3  12   5   33.95    5.67
  -3 -12  -4   60.09    7.70
   3  12   4   89.80    9.60
  -3 -12  -3   40.14    6.22
   3  12   3   48.82    6.93
  -3 -12  -2    7.30    3.86
   3  12   2    3.37    3.75
  -4 -12 -10    1.41    2.95
   4  12  10   -4.26    2.95
  -4 -12  -9   34.04    5.14
   4  12   9   33.15    5.29
  -4 -12  -8   -1.66    3.91
   4  12   8    2.03    4.04
  -4 -12  -7  391.11   28.24
   4  12   7  372.08   27.00
  -4 -12  -6    2.23    3.57
   4  12   6    5.05    3.99
  -4 -12  -4    4.66    4.54
   4  12   4   13.63    5.23
  -4 -12  -3   73.90    7.90
   4  12   3   73.78    7.99
  -4 -12  -2    7.37    3.57
   4  12   2    1.23    3.33
  -5 -12 -10    3.88    3.00
   5  12  10    3.04    3.05
  -5 -12  -9    4.96    3.64
   5  12   9    5.95    3.68
  -5 -12  -8    7.06    4.02
   5  12   8    1.06    3.86
  -5 -12  -7   12.91    4.35
   5  12   7   11.16    4.30
  -5 -12  -6    7.76    3.75
   5  12   6    6.51    4.15
  -5 -12  -4   14.38    4.98
   5  12   4   17.20    5.62
  -5 -12  -2   10.30    3.24
  -6 -12 -10    2.96    2.96
   6  12  10    1.28    3.09
  -6 -12  -9    1.24    3.51
   6  12   9    3.62    3.49
  -6 -12  -8    1.13    3.79
   6  12   8   -2.05    3.77
  -6 -12  -7  113.78   10.08
   6  12   7  104.65    9.55
  -6 -12  -6    2.69    3.71
   6  12   6    4.37    4.34
  -6 -12  -4    2.80    4.32
   6  12   4    4.90    4.79
  -6 -12  -3    3.02    3.70
   6  12   3   -0.66    3.77
  -7 -12  -9    6.49    3.37
   7  12   9    3.37    3.37
  -7 -12  -8    7.76    3.95
   7  12   8    5.91    3.97
  -7 -12  -7    3.02    3.90
   7  12   7    4.52    3.88
  -7 -12  -6    5.69    3.93
   7  12   6   -1.94    4.12
  -7 -12  -5    8.12    4.77
   7  12   5    7.17    5.21
  -7 -12  -4   91.59    9.07
   7  12   4   68.58    7.85
  -7 -12  -3    7.52    3.53
   7  12   3    5.84    3.64
  -8 -12  -9    6.68    3.27
   8  12   9   -1.59    3.15
  -8 -12  -8    6.33    3.66
   8  12   8    9.55    3.77
  -8 -12  -7    2.65    3.66
   8  12   7    5.45    3.93
  -8 -12  -6   18.38    4.59
   8  12   6   11.98    4.65
  -8 -12  -5   47.64    6.84
   8  12   5   28.54    5.96
  -8 -12  -4    2.93    4.13
   8  12   4    4.61    4.55
  -8 -12  -3    8.38    3.38
   8  12   3    4.94    3.31
  -9 -12  -9    3.20    3.11
   9  12   9    1.48    3.29
  -9 -12  -8    8.09    3.60
   9  12   8   17.96    4.04
  -9 -12  -7    3.42    3.49
   9  12   7    2.47    3.62
  -9 -12  -6   76.89    7.85
   9  12   6   54.97    6.73
  -9 -12  -5   -3.46    4.41
   9  12   5    1.59    4.85
  -9 -12  -4  323.06   23.65
   9  12   4  334.58   24.38
  -9 -12  -3    1.99    3.09
 -10 -12  -8   -1.83    3.05
  10  12   8    2.20    3.04
 -10 -12  -7   13.43    3.59
  10  12   7    4.43    3.66
 -10 -12  -6    8.12    4.01
  10  12   6    4.61    4.52
 -10 -12  -5    6.44    4.54
  10  12   5    2.67    4.76
 -10 -12  -4    9.60    3.97
  10  12   4    7.28    4.06
 -11 -12  -8    5.03    3.44
  11  12   8   18.38    4.04
 -11 -12  -7    3.13    2.96
  11  12   7    7.19    3.53
  11  12   6    7.63    4.54
 -11 -12  -5    0.18    4.02
  11  12   5    3.62    4.46
 -11 -12  -4   27.93    4.57
  11  12   4   15.66    3.97
 -12 -12  -7   21.22    3.86
  12  12   7   25.21    4.41
 -12 -12  -6   -1.65    3.73
  12  12   6    0.59    3.86
 -12 -12  -4   13.61    3.57
  12  12   4    3.24    3.11
 -13 -12  -6    8.34    3.90
  13  12   6    7.48    4.30
 -13 -12  -5   36.77    5.18
  13  12   5   37.04    5.25
 -13 -12  -4    1.72    2.89
 -14 -12  -5   24.13    4.06
  14  12   5   15.40    3.77
  15 -13  -2    2.85    3.79
 -15  13   2    1.32    4.21
  15 -13  -1   -3.38    4.34
 -15  13   1   -1.57    5.30
  15 -13   0    0.55    4.57
 -15  13   0    1.08    4.99
  15 -13   1    0.26    4.19
 -15  13  -1   -2.78    4.32
  15 -13   2    7.06    3.70
 -15  13  -2    0.11    3.53
  14 -13  -4    8.49    3.90
 -14  13   4    8.10    4.23
  14 -13  -3    4.81    3.66
 -14  13   3   -3.46    3.71
  14 -13  -1   19.90    5.63
 -14  13   1   14.32    6.11
  14 -13   1   19.74    5.36
 -14  13  -1   16.30    5.14
  14 -13   2    2.95    3.66
 -14  13  -2    5.45    3.51
  13 -13  -5    6.40    3.88
 -13  13   5   15.22    4.55
  13 -13  -4   19.90    4.90
 -13  13   4   24.44    5.10
  13 -13  -3    8.09    4.23
 -13  13   3   10.92    4.52
  13 -13  -1   35.40    7.17
 -13  13   1   18.64    6.00
  13 -13   0    0.66    5.63
 -13  13   0   -0.77    5.49
  13 -13   1   21.27    5.65
 -13  13  -1   13.41    5.14
  13 -13   2   35.01    5.18
 -13  13  -2   45.79    5.63
  12 -13  -5   12.09    4.28
 -12  13   5   15.27    4.77
  12 -13  -4   12.02    4.54
 -12  13   4   -1.26    4.01
  12 -13  -3   39.04    6.13
 -12  13   3   47.84    7.06
  12 -13   1   21.93    5.62
 -12  13  -1   26.42    5.58
  12 -13   2    7.96    4.04
  11 -13  -7    4.35    3.48
 -11  13   7    1.23    3.73
  11 -13  -6    9.27    4.23
 -11  13   6   -1.57    4.08
  11 -13  -5    1.30    4.23
 -11  13   5    5.09    4.37
  11 -13  -4   11.78    4.46
 -11  13   4   10.77    4.63
  11 -13  -2   11.52    5.14
 -11  13   2    7.76    5.76
  11 -13  -1  201.04   17.38
 -11  13   1  170.67   15.82
  11 -13   0    6.82    5.76
 -11  13   0   -5.95    5.14
  11 -13   1  133.72   11.71
 -11  13  -1  126.88   10.96
  10 -13  -7   10.94    4.24
  10 -13  -6   26.87    5.27
 -10  13   6   20.16    5.10
  10 -13  -5   59.20    7.35
 -10  13   5   67.04    7.83
  10 -13  -4    8.32    4.59
 -10  13   4    2.43    4.61
  10 -13  -2   20.25    5.84
 -10  13   2   19.98    6.53
  10 -13  -1   13.83    6.35
 -10  13   1    3.62    5.80
  10 -13   0   54.06    8.03
 -10  13   0   40.99    6.62
  10 -13   1    7.61    4.61
 -10  13  -1   10.35    4.23
   9 -13  -8    3.35    3.40
  -9  13   8   -1.15    3.62
   9 -13  -7   41.80    6.00
  -9  13   7   31.08    5.62
   9 -13  -6   -2.29    4.13
   9 -13  -4    7.32    4.48
  -9  13   4    4.34    4.57
   9 -13  -3  424.03   31.01
  -9  13   3  430.80   31.72
   9 -13  -2   21.88    6.53
  -9  13   2   30.24    6.93
   9 -13  -1  110.62   11.52
  -9  13   1  122.89   12.06
   9 -13   0    1.35    5.32
  -9  13   0    5.16    4.52
   8 -13  -8    3.42    3.57
  -8  13   8    0.62    3.90
   8 -13  -7   25.04    5.18
  -8  13   7   18.26    5.01
   8 -13  -6   50.69    6.86
  -8  13   6   43.83    6.62
   8 -13  -5   17.25    5.34
  -8  13   5    4.46    4.99
   8 -13  -4   19.39    4.98
   8 -13  -3  234.52   18.68
  -8  13   3  186.96   15.73
   8 -13  -2    5.07    5.52
  -8  13   2    4.70    5.54
   8 -13  -1   19.35    5.84
  -8  13   1   20.58    5.87
   8 -13   0   73.37    8.09
  -8  13   0   64.67    7.23
   8 -13   1    3.90    3.51
  -7  13   9   13.15    4.02
   7 -13  -8   21.27    4.81
  -7  13   8   30.90    5.47
   7 -13  -7    6.90    4.35
  -7  13   7    6.11    4.26
   7 -13  -6   29.21    5.71
  -7  13   6   37.08    6.22
   7 -13  -5   79.08    8.60
  -7  13   5   68.71    7.87
   7 -13  -4   63.20    7.45
  -7  13   4   65.84    7.83
   7 -13  -3   14.65    4.99
   7 -13  -2   55.06    8.09
   7 -13  -1  147.84   13.32
  -7  13   1  139.45   12.86
   7 -13   0    3.86    4.34
  -7  13   0    0.44    3.95
   6 -13  -9    1.57    3.16
  -6  13   9   -0.13    3.49
  -6  13   8    6.04    4.04
   6 -13  -7   58.45    6.91
  -6  13   7   63.42    7.59
   6 -13  -6   50.32    6.86
  -6  13   6   44.36    6.60
   6 -13  -5   15.02    4.76
  -6  13   5   10.19    4.65
   6 -13  -3    3.68    4.68
  -6  13   3    1.98    4.99
   6 -13  -1   13.85    5.29
   6 -13   0   96.97    8.98
  -6  13   0   95.27    8.74
   5 -13  -9   10.90    3.90
  -5  13   9   11.25    4.04
   5 -13  -8    9.70    4.35
  -5  13   8   10.52    4.50
   5 -13  -7    5.78    4.59
  -5  13   7   -0.40    4.28
  -5  13   6  439.40   31.79
   5 -13  -5   15.06    4.88
  -5  13   5   12.84    4.57
   5 -13  -3   53.89    7.43
  -5  13   3   51.81    7.98
   5 -13  -2   28.17    6.46
  -5  13   2   25.43    6.16
   5 -13  -1    7.08    4.90
  -5  13   1   11.32    4.70
   5 -13   0    5.91    3.91
  -5  13   0   10.34    3.42
   4 -13  -9    4.08    3.53
  -4  13   9   -1.10    3.70
   4 -13  -8   93.26    9.44
  -4  13   8   94.78    9.20
   4 -13  -7   12.06    4.92
  -4  13   7   15.66    4.90
   4 -13  -6  761.91   53.20
  -4  13   6  782.94   54.51
  -4  13   5   -0.07    4.17
   4 -13  -4  186.96   15.33
  -4  13   4  229.58   18.27
   4 -13  -3    2.63    5.40
  -4  13   3    3.51    5.34
   4 -13  -1   14.78    4.94
  -4  13   1   18.62    4.76
   4 -13   0  287.38   20.78
   3 -13 -10    6.88    3.46
  -3  13  10    8.51    3.60
   3 -13  -9   13.88    4.19
  -3  13   9   12.93    4.26
   3 -13  -8   15.11    4.72
  -3  13   8   11.29    4.54
   3 -13  -7   13.41    5.01
  -3  13   7   13.48    4.88
   3 -13  -6   64.68    7.54
  -3  13   6   60.40    7.30
   3 -13  -5   59.56    6.93
  -3  13   5   49.34    6.57
   3 -13  -4   66.50    7.74
  -3  13   4   61.57    7.63
  -3  13   3  149.25   13.65
   3 -13  -2   34.90    6.64
  -3  13   2   39.57    6.77
   3 -13  -1   31.01    5.51
  -3  13   1   29.67    5.20
   2 -13 -10    5.84    3.24
  -2  13  10    1.57    3.26
   2 -13  -9   -0.29    3.57
  -2  13   9    6.22    3.99
   2 -13  -8   -2.25    4.01
  -2  13   8   -0.97    4.24
   2 -13  -7   35.31    6.04
  -2  13   7   29.89    5.52
   2 -13  -6    8.80    4.52
  -2  13   6    1.48    4.01
   2 -13  -5   39.64    5.76
  -2  13   5   32.74    5.56
   2 -13  -4   45.59    6.48
  -2  13   4   58.89    7.30
   2 -13  -3   44.67    7.23
  -2  13   3   43.37    7.26
  -2  13   2   55.01    7.23
  -2  13   1   -4.43    3.68
   1 -13 -10    8.60    3.42
  -1  13  10    4.04    3.48
   1 -13  -9   21.51    4.63
  -1  13   9   17.25    4.48
   1 -13  -8    7.72    4.45
  -1  13   8   13.19    4.50
   1 -13  -7   38.34    5.98
  -1  13   7   23.09    5.20
   1 -13  -6  103.45    9.90
  -1  13   6   82.92    8.41
   1 -13  -4    7.66    4.50
  -1  13   4    0.51    4.87
   1 -13  -2   -1.68    4.65
  -1  13   2    5.03    4.45
   1 -13  -1   52.30    6.15
  -1  13   1   51.09    5.82
   0 -13 -10    2.52    3.22
   0  13  10   -0.38    3.37
   0 -13  -9    1.08    3.82
   0  13   9    2.47    3.97
   0 -13  -8   -5.34    4.23
   0  13   8    2.09    4.10
   0 -13  -7  493.00   35.27
   0  13   7  475.99   34.08
   0 -13  -6    2.41    4.12
   0  13   6   -3.48    4.08
   0 -13  -4   16.19    5.20
   0  13   4   11.63    5.43
   0 -13  -3  195.74   16.43
   0  13   3  150.13   13.63
   0 -13  -2    3.04    4.63
   0  13   2    1.26    4.12
   0 -13  -1   30.79    4.76
  -1 -13 -10    6.27    3.59
   1  13  10    5.07    3.49
  -1 -13  -9   20.03    4.79
   1  13   9   29.38    5.05
  -1 -13  -8    8.49    4.46
   1  13   8    3.53    4.17
  -1 -13  -7   45.28    6.40
   1  13   7   37.98    5.98
  -1 -13  -5  203.78   16.30
   1  13   5  191.89   15.70
  -1 -13  -4    7.57    5.32
   1  13   4   -3.16    5.12
  -1 -13  -2    1.24    4.23
   1  13   2    3.42    3.95
  -2 -13 -10    3.24    3.31
   2  13  10    4.50    3.35
  -2 -13  -9    9.38    4.10
   2  13   9    6.62    4.08
  -2 -13  -8    0.84    4.04
   2  13   8    0.80    4.06
  -2 -13  -7   68.29    7.74
   2  13   7   74.69    8.07
  -2 -13  -6   12.86    4.41
   2  13   6   23.29    5.07
  -2 -13  -4   43.03    6.91
   2  13   4   37.26    6.81
  -2 -13  -3   96.95    9.73
   2  13   3   77.40    8.74
  -2 -13  -2   47.29    5.96
   2  13   2   45.09    5.69
  -3 -13 -10   -0.35    3.37
   3  13  10   -0.15    3.60
  -3 -13  -9   14.80    4.28
   3  13   9   19.28    4.52
  -3 -13  -8   10.30    4.50
   3  13   8    8.38    4.32
  -3 -13  -7   17.03    4.85
   3  13   7   12.59    4.66
  -3 -13  -6   20.23    4.85
   3  13   6   30.09    5.51
  -3 -13  -5   52.34    6.75
  -3 -13  -4    3.86    4.65
   3  13   4    6.70    5.38
  -3 -13  -3  112.21   10.59
   3  13   3  129.62   11.65
  -3 -13  -2   27.51    4.55
   3  13   2   13.08    3.91
  -4 -13  -9    4.81    3.64
   4  13   9    0.71    3.55
  -4 -13  -8   98.11    9.42
   4  13   8   86.53    8.58
  -4 -13  -7   15.13    4.72
   4  13   7    9.33    4.45
  -4 -13  -6  583.55   41.07
   4  13   6  541.29   38.60
  -4 -13  -5    5.45    4.12
   4  13   5   -2.38    4.99
  -4 -13  -4  196.10   16.30
   4  13   4  184.94   15.73
  -4 -13  -3    0.11    4.13
   4  13   3    4.02    4.37
  -4 -13  -2  429.34   30.00
   4  13   2  405.37   28.43
  -5 -13  -9    6.48    3.66
   5  13   9    4.06    3.62
  -5 -13  -8   13.37    4.26
   5  13   8   13.01    4.34
  -5 -13  -7    0.71    3.93
   5  13   7    1.83    4.12
  -5 -13  -6  421.84   30.53
   5  13   6  362.39   26.76
  -5 -13  -5   15.44    5.23
   5  13   5   15.90    5.87
  -5 -13  -4   38.36    6.38
   5  13   4   23.40    5.87
  -5 -13  -3   35.10    5.36
   5  13   3   35.36    5.47
  -6 -13  -9    4.92    3.31
   6  13   9    5.56    3.38
  -6 -13  -8    1.23    3.66
   6  13   8    3.49    3.80
  -6 -13  -7   55.57    6.55
   6  13   7   66.82    7.37
  -6 -13  -6   48.82    6.46
   6  13   6   48.13    6.82
  -6 -13  -5   10.43    5.20
   6  13   5    7.74    5.47
  -6 -13  -3   -0.51    3.53
   6  13   3   -1.15    3.51
  -7 -13  -9   24.42    4.50
   7  13   9   10.85    3.70
  -7 -13  -8   37.12    5.38
   7  13   8   52.90    6.42
  -7 -13  -7    3.20    3.80
   7  13   7   11.78    4.37
  -7 -13  -5   23.14    5.62
   7  13   5   35.89    6.66
  -7 -13  -4   39.81    6.24
   7  13   4   62.53    7.61
  -7 -13  -3   12.99    3.88
   7  13   3    8.69    3.73
  -8 -13  -8    9.73    3.79
   8  13   8    5.52    3.59
  -8 -13  -6   55.92    6.88
   8  13   6   79.04    8.93
  -8 -13  -4    3.68    4.54
   8  13   4    7.35    4.61
  -8 -13  -3  106.10    8.96
   8  13   3  100.61    8.60
  -9 -13  -8    2.93    3.33
   9  13   8    7.19    3.42
  -9 -13  -6    6.13    3.97
   9  13   6    0.53    4.88
  -9 -13  -3  273.30   19.59
 -10 -13  -6   10.37    4.30
  10  13   6   16.43    5.18
 -10 -13  -5   60.07    7.39
  10  13   5   35.87    6.18
 -10 -13  -4    6.75    4.01
  10  13   4    3.16    3.80
 -11 -13  -7    3.48    3.24
  11  13   7    1.17    3.55
 -11 -13  -6    2.01    3.99
  11  13   6   10.24    4.45
 -11 -13  -5    2.29    4.12
  11  13   5    3.46    4.34
 -11 -13  -4    4.76    3.66
  11  13   4    5.98    3.71
 -12 -13  -5    9.35    3.95
  12  13   5   11.43    3.93
 -12 -13  -4    3.93    3.18
  12  13   4   -2.60    2.71
 -13 -13  -5   15.16    3.80
  13  13   5   12.02    3.51
 -13 -13  -4   11.60    3.04
  14 -14  -2    5.30    4.04
 -14  14   2   -4.48    4.43
  14 -14  -1    5.47    4.87
 -14  14   1    3.05    5.43
  14 -14   0    5.76    4.90
 -14  14   0    5.10    4.99
  14 -14   1    5.52    4.28
 -14  14  -1    4.35    4.41
  14 -14   2    4.39    3.40
 -14  14  -2   -1.32    3.48
  13 -14  -4    2.20    3.59
 -13  14   4    2.91    3.79
  13 -14  -3   21.42    4.83
 -13  14   3   29.85    5.85
  13 -14  -2    2.21    4.13
 -13  14   2    7.04    4.94
  13 -14  -1    5.49    5.27
 -13  14   1   21.24    6.00
  13 -14   0    3.66    5.18
 -13  14   0    6.20    4.90
  13 -14   1    9.26    4.55
 -13  14  -1   -3.55    4.06
  13 -14   2   -2.23    3.44
  12 -14  -5    0.11    3.48
 -12  14   5    0.80    4.02
  12 -14  -4   -0.04    3.59
 -12  14   4    1.57    3.84
  12 -14  -3    5.96    4.12
 -12  14   3    5.18    4.52
  12 -14  -2   -4.76    4.94
 -12  14   2    4.43    5.96
  12 -14  -1   -4.41    5.54
 -12  14   1    2.01    5.56
  12 -14   0    5.29    5.40
 -12  14   0   10.13    5.29
  12 -14   1    1.45    4.55
 -12  14  -1   -0.09    3.95
  12 -14   2    1.96    3.35
  11 -14  -6    2.47    3.51
 -11  14   6    8.91    4.23
  11 -14  -5    0.97    3.79
 -11  14   5   -0.42    3.93
  11 -14  -4    1.48    3.93
 -11  14   4   -0.16    4.28
  11 -14  -3    5.69    4.50
 -11  14   3    0.15    4.76
  11 -14  -2   -2.67    5.20
 -11  14   2    7.04    6.02
  11 -14  -1    7.66    6.33
 -11  14   1   -0.15    5.38
  11 -14   0    6.84    5.89
 -11  14   0    6.16    5.23
  11 -14   1    2.18    4.35
 -11  14  -1   -1.46    4.17
  10 -14  -6   17.07    4.65
 -10  14   6   12.55    4.52
  10 -14  -5   -1.32    4.21
 -10  14   5   -3.97    4.13
  10 -14  -4   22.12    5.10
 -10  14   4    6.64    4.76
  10 -14  -3    6.33    4.92
 -10  14   3   -0.53    4.90
  10 -14  -2   28.39    7.28
 -10  14   2   29.74    6.95
  10 -14  -1   -1.17    5.76
 -10  14   1    5.56    5.67
  10 -14   0   11.82    5.95
 -10  14   0    5.52    5.18
  10 -14   1    3.05    4.70
 -10  14  -1    5.12    4.12
   9 -14  -7    1.98    3.64
  -9  14   7    1.10    3.82
   9 -14  -6    2.95    4.10
  -9  14   6   -1.90    4.26
   9 -14  -5    0.82    4.30
   9 -14  -4   15.73    5.05
  -9  14   4   14.21    5.21
   9 -14  -3   -2.84    4.72
  -9  14   3    0.44    4.79
   9 -14  -2   16.41    6.27
  -9  14   2    3.00    5.93
   9 -14  -1   -5.71    5.65
  -9  14   1    0.33    5.41
   9 -14   0   10.10    5.23
  -9  14   0   -1.04    4.50
   9 -14   1    0.73    4.26
  -9  14  -1    4.50    3.82
   8 -14  -8    8.09    4.13
   8 -14  -7   -2.89    3.97
  -8  14   7   -1.46    3.99
   8 -14  -6   29.69    5.63
  -8  14   6   24.27    5.49
   8 -14  -5    6.97    4.70
  -8  14   5    4.63    4.57
   8 -14  -4    5.05    4.74
   8 -14  -3    4.88    4.99
  -8  14   3   12.18    5.43
   8 -14  -2  132.11   12.97
  -8  14   2  129.70   13.08
   8 -14  -1    7.04    5.54
  -8  14   1    3.42    5.38
   8 -14   0   10.74    4.98
  -8  14   0    1.61    4.28
   8 -14   1   -2.74    3.53
   7 -14  -8    5.21    3.62
  -7  14   8    1.70    3.70
   7 -14  -7    3.53    4.17
  -7  14   7   -3.82    3.95
   7 -14  -6    9.68    4.77
  -7  14   6    4.34    4.70
   7 -14  -5    2.69    4.35
  -7  14   5   -4.17    4.37
   7 -14  -4   -0.13    4.68
  -7  14   4    4.59    4.79
   7 -14  -3   22.17    6.16
  -7  14   3   31.06    7.15
   7 -14  -2    1.28    5.87
   7 -14  -1   -2.56    5.25
  -7  14   1    3.05    4.99
   7 -14   0    5.52    4.55
  -7  14   0    4.85    4.13
   6 -14  -8    2.71    3.55
  -6  14   8    1.98    3.97
  -6  14   7   15.68    4.90
   6 -14  -6    3.44    4.76
  -6  14   6   13.15    5.09
   6 -14  -5    4.79    4.61
  -6  14   5   10.02    4.77
   6 -14  -4    6.59    4.83
  -6  14   4    7.65    5.03
   6 -14  -3    2.18    5.58
  -6  14   3    8.43    5.98
   6 -14  -2    2.85    5.76
  -6  14   2   -4.76    5.25
   6 -14  -1   -3.82    4.98
   6 -14   0    2.62    4.21
   5 -14  -9    7.63    3.99
  -5  14   9   10.88    4.46
   5 -14  -8    2.32    3.86
  -5  14   8   -1.98    3.86
   5 -14  -7    9.42    4.77
  -5  14   7    9.22    4.61
  -5  14   6   11.25    5.01
   5 -14  -5   96.06    9.66
  -5  14   5  129.20   11.76
   5 -14  -4    6.31    4.76
  -5  14   4    9.06    5.03
   5 -14  -3   28.65    7.06
  -5  14   3   23.01    6.55
   5 -14  -2   -1.98    5.47
  -5  14   2    2.65    5.34
   5 -14  -1   -1.83    4.81
  -5  14   1    5.85    4.48
   5 -14   0   -2.27    3.77
  -5  14   0   -1.68    3.53
   4 -14  -9    5.56    3.66
  -4  14   9    7.57    3.86
   4 -14  -8    0.18    4.06
  -4  14   8   -1.54    3.99
   4 -14  -7   17.56    5.21
  -4  14   7   28.83    5.74
   4 -14  -6    5.23    4.72
  -4  14   6   18.62    5.20
   4 -14  -5    8.14    4.34
  -4  14   5    7.34    4.88
  -4  14   4   -0.48    4.74
   4 -14  -3   11.41    6.06
  -4  14   3   -4.26    5.67
   4 -14  -2    6.59    5.43
  -4  14   2    6.79    5.25
   4 -14  -1    4.92    4.65
  -4  14   1    1.68    4.08
   4 -14   0   -2.74    3.49
   3 -14  -9    3.97    3.75
  -3  14   9   -4.30    3.53
   3 -14  -8    3.64    4.24
  -3  14   8    7.24    4.30
   3 -14  -7    5.30    4.59
  -3  14   7    3.46    4.63
   3 -14  -6    9.86    4.79
  -3  14   6    3.42    4.46
   3 -14  -5   13.74    4.92
  -3  14   5    8.47    4.96
   3 -14  -4    5.23    4.70
  -3  14   4   -2.12    5.09
  -3  14   3    2.82    5.38
   3 -14  -2    6.51    4.96
  -3  14   2   -3.62    5.01
   3 -14  -1   -1.55    4.08
  -3  14   1   -0.51    3.91
   2 -14  -9   -1.08    3.75
  -2  14   9   -2.69    3.62
   2 -14  -8    1.99    4.15
  -2  14   8    3.20    4.21
   2 -14  -7    6.38    4.61
  -2  14   7   -3.93    4.37
   2 -14  -6    2.96    4.57
  -2  14   6    0.22    4.24
   2 -14  -5    9.46    4.88
  -2  14   5    7.26    4.76
   2 -14  -4   -1.28    4.77
  -2  14   4    2.93    5.45
   2 -14  -3    7.13    5.58
  -2  14   3    2.23    5.47
   2 -14  -2   -0.02    5.01
  -2  14   2    6.37    5.01
  -2  14   1    0.18    3.90
   1 -14  -9    1.48    3.62
  -1  14   9    4.92    3.90
   1 -14  -8   15.93    4.81
  -1  14   8   13.48    4.72
   1 -14  -7    4.99    4.65
  -1  14   7   -0.82    4.26
   1 -14  -6    6.40    4.43
  -1  14   6    1.23    4.37
   1 -14  -5    6.29    4.94
  -1  14   5   15.86    5.16
   1 -14  -4    4.35    5.43
  -1  14   4   -0.90    5.54
   1 -14  -3   -0.07    5.27
  -1  14   3    3.73    5.20
   1 -14  -2   -2.38    4.45
  -1  14   2    3.99    4.37
   1 -14  -1   -0.86    3.73
  -1  14   1    6.62    3.62
   0 -14  -9    4.01    3.75
   0  14   9    1.55    3.80
   0 -14  -8   32.14    5.65
   0  14   8   27.18    5.34
   0 -14  -7    1.15    4.50
   0  14   7   -2.87    4.30
   0 -14  -6  146.77   12.57
   0  14   6  124.12   11.27
   0 -14  -5    1.63    4.55
   0  14   5    5.95    4.85
   0 -14  -4    9.04    5.63
   0  14   4   -1.59    5.58
   0 -14  -3   -0.29    4.99
   0  14   3    2.62    5.18
   0 -14  -2   32.60    5.96
   0  14   2   39.11    5.85
   0 -14  -1    1.39    3.59
  -1 -14  -9    7.32    3.86
   1  14   9    8.01    3.91
  -1 -14  -8    7.39    4.59
   1  14   8   10.74    4.65
  -1 -14  -7   10.76    4.70
   1  14   7   12.44    4.68
  -1 -14  -6    0.29    4.30
   1  14   6   14.23    5.05
  -1 -14  -5   16.43    5.10
   1  14   5    5.63    4.72
  -1 -14  -4    1.81    5.21
   1  14   4    2.58    5.45
  -1 -14  -3    4.12    5.10
   1  14   3    6.71    5.07
  -1 -14  -2    1.41    4.08
   1  14   2    0.44    3.88
  -2 -14  -9   -5.20    3.42
   2  14   9   -2.67    3.57
  -2 -14  -8    6.11    4.24
   2  14   8   -0.20    4.08
  -2 -14  -7   -2.58    4.19
   2  14   7    6.48    4.21
  -2 -14  -5    1.61    4.54
   2  14   5    3.86    5.23
  -2 -14  -4    2.14    5.03
   2  14   4   -2.16    5.14
  -2 -14  -3   -0.51    4.85
   2  14   3   -3.71    4.76
  -2 -14  -2   -3.57    3.90
   2  14   2   -4.28    3.68
  -3 -14  -9    3.37    3.53
   3  14   9   -2.58    3.48
  -3 -14  -8    3.29    4.06
   3  14   8    8.63    4.17
  -3 -14  -7   11.34    4.46
   3  14   7    0.79    4.13
  -3 -14  -6    5.56    4.55
   3  14   6    4.79    4.83
  -3 -14  -5   33.75    6.40
   3  14   5   35.96    7.13
  -3 -14  -4    3.22    5.58
   3  14   4    7.50    5.60
  -3 -14  -3    4.92    4.76
   3  14   3    9.48    4.77
  -3 -14  -2    0.59    3.66
   3  14   2   -2.45    3.46
  -4 -14  -9   15.82    4.17
   4  14   9   17.60    4.24
  -4 -14  -8    1.57    3.75
   4  14   8   -2.54    3.90
  -4 -14  -7   21.71    4.90
   4  14   7   22.35    4.99
  -4 -14  -6    3.15    4.48
   4  14   6   14.51    5.20
  -4 -14  -5    0.99    5.49
   4  14   5   -5.32    5.29
  -4 -14  -4    2.40    5.32
   4  14   4    2.21    5.21
  -4 -14  -3    6.04    4.41
   4  14   3    6.71    4.59
  -4 -14  -2    2.56    3.35
  -5 -14  -9    7.92    3.80
   5  14   9    8.25    4.04
  -5 -14  -8    5.91    3.79
   5  14   8   -2.67    3.71
  -5 -14  -6    1.72    4.41
   5  14   6    2.91    4.85
  -5 -14  -5  176.84   15.49
   5  14   5  202.14   17.09
  -5 -14  -4    0.75    5.09
   5  14   4    1.63    5.07
  -5 -14  -3   19.13    4.79
   5  14   3   21.06    4.81
  -6 -14  -8    3.20    3.64
   6  14   8    2.12    3.51
  -6 -14  -7    9.59    4.19
   6  14   7   12.70    4.52
  -6 -14  -6    4.54    4.48
   6  14   6    5.21    5.20
  -6 -14  -5    6.82    5.38
   6  14   5    0.91    5.32
  -6 -14  -4   -0.55    4.79
   6  14   4    0.79    4.96
  -6 -14  -3    6.88    4.08
   6  14   3    1.54    4.01
  -7 -14  -8    4.96    3.48
   7  14   8    3.33    3.46
  -7 -14  -7   -1.13    3.66
   7  14   7    6.66    4.28
  -7 -14  -6    4.46    4.41
   7  14   6    7.65    5.27
  -7 -14  -5    2.16    5.03
   7  14   5    2.27    5.47
  -7 -14  -4    2.52    4.63
   7  14   4    0.60    4.74
  -7 -14  -3   21.49    4.50
   7  14   3   10.01    3.91
  -8 -14  -8    0.86    3.49
   8  14   8    3.16    3.53
  -8 -14  -7    3.46    3.62
   8  14   7    4.43    3.84
  -8 -14  -6   15.15    4.96
   8  14   6   30.04    6.60
  -8 -14  -5   17.85    5.62
   8  14   5    3.22    5.14
  -8 -14  -4    4.19    4.45
   8  14   4    1.92    4.59
  -8 -14  -3    1.50    3.55
  -9 -14  -7   -0.40    3.42
   9  14   7    0.84    3.66
  -9 -14  -6    6.24    4.59
   9  14   6   -3.77    4.43
  -9 -14  -5   -1.76    4.66
   9  14   5   -1.87    4.85
  -9 -14  -4   14.31    4.65
   9  14   4   18.40    4.61
  10  14   7    2.49    3.55
 -10 -14  -5    2.20    4.19
  10  14   5   -3.40    4.46
 -10 -14  -4    1.55    3.77
  10  14   4    1.41    3.82
 -11 -14  -6    3.59    4.10
  11  14   6    7.70    4.55
 -11 -14  -5    2.85    3.77
  11  14   5   -1.85    3.77
 -11 -14  -4   -0.24    3.31
  11  14   4    0.35    3.18
 -12 -14  -5    5.29    3.79
  12  14   5    9.27    3.82
 -12 -14  -4    3.26    2.91
 -13 -14  -4    1.19    2.54
  13 -15  -1    3.49    4.85
 -13  15   1   -0.51    5.12
  13 -15   0    4.88    4.85
 -13  15   0    0.49    4.70
  13 -15   1   -2.03    3.97
 -13  15  -1    4.10    3.79
  13 -15   2   -0.42    3.16
  12 -15  -4    3.71    4.06
 -12  15   4    5.47    4.26
  12 -15  -3    1.94    3.80
 -12  15   3    6.90    4.52
  12 -15  -2    8.93    5.52
 -12  15   2   20.52    6.38
  12 -15  -1   -0.71    4.85
 -12  15   1   -0.44    5.03
  12 -15   0    0.51    4.79
 -12  15   0    8.85    4.90
  12 -15   1    3.26    4.21
 -12  15  -1    2.14    3.73
  11 -15  -5    0.07    3.88
 -11  15   5    2.67    4.08
  11 -15  -4    4.90    3.82
 -11  15   4    2.80    4.30
  11 -15  -3    6.88    4.46
 -11  15   3   12.55    5.10
  11 -15  -2    4.87    5.52
 -11  15   2    1.65    5.20
  11 -15  -1    4.88    5.41
 -11  15   1    7.43    5.51
  11 -15   0    2.51    5.16
 -11  15   0   13.85    5.09
  11 -15   1    8.71    4.17
 -11  15  -1    0.31    3.79
  10 -15  -5    4.37    3.77
 -10  15   5    3.93    4.12
  10 -15  -4   11.47    4.39
 -10  15   4   -2.25    4.43
  10 -15  -2    5.32    5.84
 -10  15   2   -3.24    5.49
  10 -15  -1   12.26    6.06
 -10  15   1   17.18    6.07
  10 -15   0   20.85    5.85
 -10  15   0   14.95    5.38
  10 -15   1    0.84    4.30
 -10  15  -1    2.27    3.86
   9 -15  -6    0.86    3.95
  -9  15   6   -1.17    4.06
   9 -15  -5    8.73    4.15
   9 -15  -4    3.95    4.77
  -9  15   4    0.42    4.77
   9 -15  -3   39.18    6.91
  -9  15   3   61.06    8.80
   9 -15  -2   -2.16    5.84
  -9  15   2   15.81    6.40
   9 -15  -1   -0.16    5.93
  -9  15   1   -2.03    5.91
   9 -15   0    6.09    5.29
  -9  15   0   -0.95    4.66
   9 -15   1    3.44    4.10
   8 -15  -7   13.17    4.39
  -8  15   7   23.63    5.21
   8 -15  -6   -2.96    3.77
  -8  15   6    4.79    4.15
   8 -15  -5    9.40    4.46
  -8  15   5    8.52    4.66
   8 -15  -4   20.27    5.56
  -8  15   4   11.91    5.10
   8 -15  -3   59.20    8.27
   8 -15  -2    2.76    6.27
  -8  15   2    0.46    5.84
   8 -15   0   -2.29    4.66
  -8  15   0   -2.49    4.30
   7 -15  -7   -0.29    3.77
  -7  15   7    2.96    4.10
   7 -15  -6   13.21    4.74
  -7  15   6    8.67    4.59
   7 -15  -5   -3.15    4.17
  -7  15   5   -2.67    4.57
   7 -15  -4    3.90    4.85
  -7  15   4    5.82    5.30
   7 -15  -3    9.24    6.37
  -7  15   3    8.18    6.77
   7 -15  -2   24.62    6.99
   7 -15  -1   20.56    6.33
  -7  15   1   23.84    5.73
   7 -15   0    4.74    4.55
  -7  15   0    1.15    4.46
  -6  15   7    3.46    4.43
   6 -15  -6    4.88    4.72
  -6  15   6    5.56    4.23
   6 -15  -5    6.09    4.83
  -6  15   5   13.24    5.23
   6 -15  -4   12.68    5.49
  -6  15   4   15.13    5.69
   6 -15  -3    5.60    6.55
  -6  15   3    0.95    6.09
   6 -15  -2   15.42    6.62
  -6  15   2   11.84    5.98
   6 -15  -1   10.15    5.34
  -6  15   1    0.73    4.94
   6 -15   0   18.92    4.90
   5 -15  -8   15.16    4.57
  -5  15   8   15.57    4.68
   5 -15  -7   -0.62    3.99
  -5  15   7   -0.51    4.12
  -5  15   6   32.73    5.82
  -5  15   5   -5.12    4.90
   5 -15  -4  252.81   20.16
  -5  15   4  264.70   21.06
   5 -15  -3    6.24    5.80
  -5  15   3    2.63    5.89
   5 -15  -1    6.82    4.94
  -5  15   1   -0.51    4.55
   5 -15   0    2.14    3.93
  -5  15   0    2.05    3.51
   4 -15  -8    6.90    4.04
  -4  15   8    6.88    4.12
   4 -15  -7    6.22    4.46
  -4  15   7    6.57    4.45
   4 -15  -6   42.84    6.48
  -4  15   6   39.46    6.29
   4 -15  -5    5.16    5.14
  -4  15   5    9.66    5.45
  -4  15   4    6.51    6.13
   4 -15  -3   17.32    6.24
  -4  15   3    8.84    5.89
   4 -15  -2    6.13    5.71
  -4  15   2    0.20    5.43
   4 -15  -1    4.74    4.57
  -4  15   1   -1.35    4.19
   4 -15   0   67.45    7.13
   3 -15  -8    6.15    4.12
  -3  15   8   11.95    4.37
   3 -15  -7   -1.66    4.30
  -3  15   7    4.06    4.63
   3 -15  -6   13.65    4.87
  -3  15   6   11.07    4.85
   3 -15  -5    3.55    4.96
  -3  15   5    3.57    5.18
   3 -15  -4    9.75    5.93
  -3  15   4   15.02    6.77
   3 -15  -3   17.74    6.04
  -3  15   3   25.41    6.73
  -3  15   2    3.90    5.03
   3 -15  -1   20.87    5.10
  -3  15   1   19.10    4.83
   2 -15  -8    2.98    3.91
  -2  15   8    1.10    3.91
   2 -15  -7    8.98    4.72
  -2  15   7    9.31    4.63
   2 -15  -6    2.71    4.50
  -2  15   6    4.41    4.65
   2 -15  -5   -6.42    4.88
  -2  15   5    3.35    5.21
   2 -15  -4   11.82    6.26
  -2  15   4   10.39    6.31
   2 -15  -3    5.01    5.71
  -2  15   3    1.50    5.52
   2 -15  -2   -4.57    5.14
  -2  15   2    8.40    4.99
  -2  15   1    1.04    3.99
   1 -15  -8    1.45    4.06
  -1  15   8    9.11    4.34
   1 -15  -7    4.21    4.32
  -1  15   7   -1.68    4.21
   1 -15  -6    5.67    4.54
  -1  15   6    3.11    4.83
   1 -15  -4   13.77    6.11
  -1  15   4   13.76    6.16
   1 -15  -3   39.88    7.19
  -1  15   3   40.46    7.13
   1 -15  -2   -1.59    4.68
  -1  15   2    0.04    4.59
   1 -15  -1    4.45    3.91
  -1  15   1    1.15    3.68
   0 -15  -8    4.15    4.02
   0  15   8    1.21    3.99
   0 -15  -7   92.33    9.40
   0  15   7   99.61    9.71
   0 -15  -6    1.39    4.50
   0  15   6    3.95    4.90
   0 -15  -4    5.18    6.02
   0  15   4    5.16    5.63
   0 -15  -2   -2.25    4.55
   0  15   2   -3.62    4.15
   0 -15  -1    1.90    3.40
  -1 -15  -8   -0.27    3.93
   1  15   8    2.65    3.97
  -1 -15  -7   11.62    4.72
   1  15   7    2.95    4.24
  -1 -15  -6    9.46    4.90
   1  15   6    5.89    4.87
  -1 -15  -5   24.37    7.24
   1  15   5   35.32    7.56
  -1 -15  -4    5.25    5.71
   1  15   4    7.83    6.04
  -1 -15  -3   39.18    7.04
   1  15   3   48.84    7.48
  -1 -15  -2    4.04    4.34
   1  15   2    1.70    3.97
  -2 -15  -8   -0.13    3.80
   2  15   8    1.17    3.79
  -2 -15  -7    4.35    4.26
   2  15   7    7.06    4.32
  -2 -15  -6    3.79    4.76
   2  15   6   -1.41    4.81
  -2 -15  -5    2.69    5.41
   2  15   5    3.99    6.02
  -2 -15  -4   34.28    7.04
   2  15   4   22.83    6.82
  -2 -15  -3    0.31    5.20
   2  15   3   -2.29    4.70
  -2 -15  -2   -1.43    4.12
   2  15   2   -0.60    3.84
  -3 -15  -8   -1.98    3.71
   3  15   8    3.77    4.01
  -3 -15  -7    0.86    3.91
   3  15   7    1.70    4.13
  -3 -15  -6    3.68    4.66
   3  15   6   14.71    5.18
  -3 -15  -5    9.46    6.02
   3  15   5    7.15    5.96
  -3 -15  -4   18.57    6.22
   3  15   4   15.55    6.00
  -3 -15  -3   13.50    5.12
   3  15   3   25.56    5.69
  -3 -15  -2    2.05    3.90
   3  15   2    2.78    3.68
  -4 -15  -8   10.96    3.95
   4  15   8   13.12    4.10
  -4 -15  -7    0.02    3.66
   4  15   7    2.20    4.15
  -4 -15  -6   34.32    6.22
   4  15   6   38.16    6.42
  -4 -15  -5    3.84    5.73
   4  15   5    8.45    5.89
  -4 -15  -4    5.09    5.54
   4  15   4    2.20    5.45
  -4 -15  -3    1.74    4.94
   4  15   3    0.31    4.39
  -4 -15  -2    4.65    3.80
  -5 -15  -7    0.04    3.62
   5  15   7    3.53    4.23
  -5 -15  -5   -1.43    5.63
   5  15   5    0.71    5.62
  -5 -15  -4  201.41   16.88
   5  15   4  226.65   18.51
  -5 -15  -3    6.81    4.59
   5  15   3    5.12    4.34
  -6 -15  -7    3.22    3.77
   6  15   7    6.86    4.23
   6  15   6   10.28    5.60
  -6 -15  -5   13.13    5.67
   6  15   5   24.20    6.49
  -6 -15  -4   17.69    5.71
   6  15   4   20.32    5.78
  -6 -15  -3   -0.05    4.12
   6  15   3    1.54    4.13
  -7 -15  -7    1.45    3.62
   7  15   7    4.85    3.99
  -7 -15  -6   13.23    4.79
   7  15   6   19.45    6.09
  -7 -15  -5    8.14    5.29
   7  15   5   -3.93    5.38
  -7 -15  -4    1.43    4.72
   7  15   4    5.78    4.85
  -7 -15  -3    7.45    4.26
   7  15   3    3.86    3.95
  -8 -15  -7   21.17    4.61
   8  15   7   23.45    5.09
  -8 -15  -6    3.77    4.72
   8  15   6    0.37    4.77
  -8 -15  -5   13.41    5.27
   8  15   5   27.77    6.13
  -8 -15  -4    7.50    4.68
   8  15   4   13.83    4.74
  -8 -15  -3   36.04    5.10
  -9 -15  -6    4.08    4.37
   9  15   6    4.26    4.41
  -9 -15  -5    8.09    4.61
   9  15   5   10.06    4.92
  -9 -15  -4   -5.07    3.88
   9  15   4    0.15    3.84
  10  15   6   -0.62    4.77
 -10 -15  -5    7.46    4.43
  10  15   5    1.10    4.17
 -10 -15  -4    0.51    3.55
  10  15   4   -2.10    3.29
 -11 -15  -5    6.33    4.24
  11  15   5    4.35    3.80
 -11 -15  -4    4.98    3.20
  11  15   4   -2.38    2.87
  12 -16  -1   18.82    5.60
 -12  16   1   22.54    5.93
  12 -16   0    5.95    4.65
 -12  16   0    1.94    4.43
  12 -16   1    2.62    3.99
 -12  16  -1   11.65    4.19
  11 -16  -3    8.43    4.34
 -11  16   3    8.41    5.27
  11 -16  -2    5.54    5.07
 -11  16   2   10.35    5.63
  11 -16  -1    3.64    4.74
 -11  16   1   -1.57    5.05
  11 -16   0   -6.09    4.48
 -11  16   0   -1.57    4.35
  11 -16   1    3.84    3.86
 -11  16  -1    6.02    3.66
  10 -16  -4   18.99    4.88
 -10  16   4   11.32    4.81
  10 -16  -3   -1.63    4.59
 -10  16   3    0.18    5.27
  10 -16  -2   -1.41    5.20
 -10  16   2    1.01    5.43
  10 -16  -1   -2.45    4.88
 -10  16   1    5.23    5.23
  10 -16   0   62.00    7.70
 -10  16   0   80.42    8.73
  10 -16   1   -2.41    3.57
 -10  16  -1    0.42    3.51
   9 -16  -5    0.82    3.91
   9 -16  -4   -0.02    4.13
   9 -16  -3   -2.58    5.12
  -9  16   3    5.41    5.80
   9 -16  -2   69.62    9.27
  -9  16   2   86.20   10.56
   9 -16  -1    0.95    5.25
  -9  16   1    4.46    5.45
   9 -16   0    6.77    4.70
  -9  16   0    2.62    4.46
   9 -16   1    4.32    3.88
   8 -16  -6   -0.18    3.84
  -8  16   6    4.77    4.01
   8 -16  -5    8.36    4.08
  -8  16   5    1.98    4.41
   8 -16  -4   55.96    7.59
  -8  16   4   53.29    7.68
   8 -16  -3    3.07    6.00
   8 -16  -2   36.33    7.77
  -8  16   2   59.00    8.91
   8 -16  -1   -0.86    5.54
  -8  16   1   10.24    5.51
   8 -16   0   32.10    6.07
  -8  16   0   40.85    6.15
   7 -16  -6    6.11    3.99
  -7  16   6    0.29    4.04
   7 -16  -5    6.82    4.45
  -7  16   5    7.81    4.83
   7 -16  -4    9.46    4.99
  -7  16   4    6.22    5.38
   7 -16  -3   26.89    7.17
  -7  16   3   32.74    7.43
   7 -16  -2   10.85    6.26
  -7  16   2   -7.66    4.96
   7 -16  -1   30.02    6.81
   7 -16   0   -2.62    4.48
  -7  16   0    6.64    4.41
  -6  16   7   33.55    6.20
   6 -16  -6   -7.28    3.44
  -6  16   6   -0.91    3.88
   6 -16  -5   29.67    6.06
  -6  16   5   31.68    6.31
   6 -16  -4    8.60    5.16
  -6  16   4   -2.52    5.62
   6 -16  -3   52.85    8.52
  -6  16   3   48.73    8.69
   6 -16  -2   13.59    6.35
  -6  16   2    8.65    6.11
   6 -16  -1   20.51    6.09
  -6  16   1   32.14    6.40
   6 -16   0   16.83    5.12
   5 -16  -7    1.04    4.01
  -5  16   7    7.08    4.24
   5 -16  -6   -3.35    3.79
  -5  16   6    0.27    4.12
  -5  16   5   13.35    5.21
   5 -16  -4    3.46    5.58
  -5  16   4  -11.58    6.11
   5 -16  -3   34.30    7.63
  -5  16   3   28.24    7.43
   5 -16  -2    8.27    6.07
  -5  16   2   15.71    6.37
   5 -16  -1  294.70   22.65
  -5  16   1  289.76   22.02
   5 -16   0   -0.35    4.12
   4 -16  -7    3.79    4.12
  -4  16   7   -2.10    3.82
   4 -16  -6    1.70    4.08
  -4  16   6   -1.52    4.32
   4 -16  -5    3.71    4.94
  -4  16   5    9.84    5.25
  -4  16   4    6.26    6.22
  -4  16   3  120.13   12.66
   4 -16  -2    2.78    6.00
  -4  16   2    7.77    5.76
   4 -16  -1   85.23    9.04
  -4  16   1   75.86    8.18
   3 -16  -6    2.60    4.34
  -3  16   6    6.07    4.90
   3 -16  -5   37.85    6.88
  -3  16   5   15.44    5.65
   3 -16  -4    6.86    6.29
  -3  16   4   -5.40    5.93
   3 -16  -3   40.06    8.01
  -3  16   3   29.25    7.12
  -3  16   2   14.60    5.65
   3 -16  -1   27.46    5.71
  -3  16   1   26.67    5.34
   2 -16  -7   -1.04    3.90
  -2  16   7    2.98    3.95
   2 -16  -6    6.70    4.50
  -2  16   6   13.76    5.16
   2 -16  -5    5.98    5.20
  -2  16   5   11.09    6.18
   2 -16  -4    7.87    6.35
  -2  16   4   -2.20    5.87
   2 -16  -3    0.93    5.78
  -2  16   3   16.76    6.13
   2 -16  -2    7.90    5.32
  -2  16   2   -0.33    4.99
   2 -16  -1    4.83    4.15
  -2  16   1    1.46    4.06
   1 -16  -8    0.00    4.21
  -1  16   8    7.98    4.32
   1 -16  -7   -2.23    3.82
  -1  16   7    7.34    4.12
   1 -16  -5    1.06    4.88
  -1  16   5   -2.85    5.54
   1 -16  -4   21.24    6.60
  -1  16   4   16.72    6.79
   1 -16  -3    3.05    5.76
  -1  16   3   -1.43    5.74
   1 -16  -2  164.13   14.12
  -1  16   2  141.37   12.42
   1 -16  -1   14.45    4.59
   0 -16  -8   21.66    5.12
   0  16   8   18.22    4.85
   0 -16  -7   -0.05    3.79
   0  16   7   -2.78    3.95
   0 -16  -6    4.35    4.74
   0  16   6    4.74    4.88
   0 -16  -5   -0.48    5.21
   0  16   5    0.46    6.16
   0 -16  -4   55.46    8.58
   0  16   4   82.61   10.45
   0 -16  -3    0.95    5.67
   0  16   3    0.62    5.27
   0 -16  -2   68.78    7.98
   0  16   2   49.28    6.55
  -1 -16  -8   -0.75    4.01
   1  16   8    7.32    4.10
  -1 -16  -7    0.75    3.79
   1  16   7   -5.54    4.08
  -1 -16  -6   19.65    5.51
   1  16   6   13.98    5.25
  -1 -16  -5    6.73    6.09
   1  16   5    9.37    6.20
  -1 -16  -4   36.71    7.65
   1  16   4   36.40    7.39
  -1 -16  -3    2.73    5.54
   1  16   3    4.48    5.12
  -1 -16  -2  134.22   11.65
   1  16   2  110.14   10.02
  -2 -16  -6    9.46    4.99
   2  16   6    2.38    4.68
  -2 -16  -5    2.96    5.98
   2  16   5   10.21    6.13
  -2 -16  -4    3.27    5.95
   2  16   4   25.87    6.66
  -2 -16  -3    3.68    5.20
   2  16   3    4.13    4.99
  -2 -16  -2    6.90    4.43
   2  16   2   -0.49    3.90
  -3 -16  -7   22.26    4.68
   3  16   7    7.10    4.50
  -3 -16  -6    9.51    4.66
   3  16   6   -0.05    5.45
  -3 -16  -5    0.77    5.73
   3  16   5    1.02    5.63
  -3 -16  -4    9.38    5.82
   3  16   4    1.13    5.54
  -3 -16  -3   17.09    5.45
   3  16   3   14.01    5.25
  -3 -16  -2   12.71    4.32
   3  16   2    4.50    3.88
  -4 -16  -7    5.93    3.90
   4  16   7   11.84    4.70
  -4 -16  -6    3.57    4.35
   4  16   6    0.51    4.92
  -4 -16  -5    3.82    5.65
   4  16   5    5.67    5.67
  -4 -16  -4    0.55    5.47
   4  16   4    1.70    5.45
  -4 -16  -3   85.21    9.04
   4  16   3   87.42    8.82
  -4 -16  -2    2.78    3.71
  -5 -16  -7   -2.67    3.66
   5  16   7    7.34    4.13
  -5 -16  -6    3.49    4.46
   5  16   6    6.84    5.27
  -5 -16  -4    7.01    5.51
   5  16   4   -4.90    4.96
  -5 -16  -3   20.76    5.23
   5  16   3   12.91    4.70
  -6 -16  -7   21.77    5.41
   6  16   7   20.20    5.20
  -6 -16  -6   -2.73    4.55
   6  16   6   -2.21    4.76
  -6 -16  -5   25.43    6.04
   6  16   5   23.73    6.20
  -6 -16  -4   -1.88    4.79
   6  16   4   -5.20    4.65
  -6 -16  -3   35.62    5.71
   6  16   3   34.85    5.34
  -7 -16  -6   19.23    5.34
   7  16   6   10.94    5.20
  -7 -16  -5   13.32    5.25
   7  16   5   -4.08    4.72
  -7 -16  -4    8.36    4.70
   7  16   4    9.64    4.55
  -7 -16  -3   25.52    4.83
   7  16   3   23.21    4.37
  -8 -16  -6   12.02    6.99
   8  16   6    3.04    4.83
  -8 -16  -5   17.27    5.05
   8  16   5   23.21    5.43
  -8 -16  -4   42.81    6.13
   8  16   4   46.99    6.15
  -8 -16  -3    0.82    3.55
  -9 -16  -5   -0.71    4.02
   9  16   5   -4.61    3.93
  -9 -16  -4   -1.24    3.53
   9  16   4    3.82    3.51
 -10 -16  -4   15.71    3.88
  10  16   4   14.95    3.64
  10 -17  -2    5.56    5.23
 -10  17   2   -2.63    5.09
  10 -17  -1    1.35    4.66
 -10  17   1    1.06    4.83
  10 -17   0    7.34    4.24
 -10  17   0    2.84    3.99
  10 -17   1    1.57    3.49
 -10  17  -1    1.34    3.07
   9 -17  -3   14.56    5.63
  -9  17   3    4.28    5.51
   9 -17  -2   -1.99    5.16
  -9  17   2    3.91    5.30
   9 -17  -1   -3.27    4.85
  -9  17   1    0.79    4.63
   9 -17   0    4.13    4.30
  -9  17   0    4.17    4.08
   9 -17   1    3.15    3.35
   8 -17  -4    7.56    4.48
  -8  17   4    7.66    5.20
   8 -17  -3    3.48    5.62
   8 -17  -2    4.57    5.51
   8 -17  -1   -0.64    5.01
  -8  17   1   -1.10    4.72
   8 -17   0   -4.57    4.02
  -8  17   0    0.33    4.04
   7 -17  -5    3.77    4.12
  -7  17   5   10.85    5.07
   7 -17  -4   -1.21    4.63
  -7  17   4   -3.57    5.30
   7 -17  -3    5.32    5.49
  -7  17   3    3.48    5.58
   7 -17  -2    3.97    5.76
  -7  17   2   -1.43    5.43
   7 -17  -1   -3.62    4.85
   7 -17   0    5.71    4.32
  -7  17   0    2.91    4.19
   6 -17  -5    1.63    4.32
  -6  17   5    6.95    4.76
   6 -17  -4    3.93    5.16
  -6  17   4   -1.79    5.80
   6 -17  -3   -0.07    5.27
  -6  17   3   -7.32    5.47
   6 -17  -2   -1.48    5.63
  -6  17   2   10.98    5.95
   6 -17  -1    2.32    5.09
  -6  17   1    0.35    4.66
   6 -17   0    8.56    4.55
  -6  17   0    5.67    3.64
   5 -17  -6    2.62    3.77
  -5  17   6    3.73    4.54
  -5  17   5    3.26    4.76
   5 -17  -4   -0.16    5.32
  -5  17   4   -2.36    5.47
   5 -17  -3    2.51    5.91
  -5  17   3   -0.05    5.91
   5 -17  -2   13.85    6.29
  -5  17   2    6.06    5.84
   5 -17  -1    8.07    5.01
  -5  17   1    0.20    4.76
   5 -17   0    1.32    4.04
   4 -17  -6   10.08    4.41
  -4  17   6   16.96    5.09
   4 -17  -5    0.48    4.48
  -4  17   5    0.88    4.50
   4 -17  -4   -3.02    5.32
  -4  17   4   -0.84    5.73
  -4  17   3    2.67    5.93
   4 -17  -2    5.96    5.85
  -4  17   2   12.79    5.62
   4 -17  -1    7.63    4.92
  -4  17   1   -2.47    4.55
   3 -17  -6    1.81    4.32
  -3  17   6    8.67    4.65
   3 -17  -5   -0.79    4.30
  -3  17   5   -0.90    5.30
   3 -17  -4   13.76    6.70
  -3  17   4   -1.46    5.89
   3 -17  -3   -0.11    5.95
  -3  17   3    1.06    5.74
  -3  17   2   27.73    6.33
  -3  17   1    0.29    4.24
   2 -17  -6    3.40    4.43
  -2  17   6    3.27    4.48
   2 -17  -5   10.02    5.52
  -2  17   5   -3.60    5.82
   2 -17  -4   -0.44    5.98
  -2  17   4   -3.68    5.74
   2 -17  -3   11.89    6.46
  -2  17   3   13.06    6.16
   2 -17  -2    4.34    5.54
  -2  17   2    9.81    5.32
   2 -17  -1    2.36    4.66
  -2  17   1   -0.27    4.08
   1 -17  -7    9.60    4.41
  -1  17   7   -0.55    4.46
   1 -17  -6    3.42    4.45
  -1  17   6   -2.69    4.43
   1 -17  -5    2.40    5.20
  -1  17   5   -3.75    5.63
   1 -17  -4   -2.10    5.74
  -1  17   4   -0.90    6.00
   1 -17  -3   32.45    7.13
  -1  17   3   49.89    8.20
   1 -17  -2   -6.59    4.98
  -1  17   2    4.43    4.77
   1 -17  -1   19.79    4.83
   0 -17  -7   35.14    5.89
   0  17   7   30.57    6.00
   0 -17  -6    1.52    4.41
   0  17   6    1.87    4.46
   0 -17  -5   -0.48    5.76
   0  17   5    4.98    5.91
   0 -17  -4    5.54    6.13
   0  17   4    5.80    6.06
   0 -17  -3   -1.45    5.49
   0  17   3   -3.44    5.47
   0 -17  -2   -4.48    4.65
   0  17   2   -1.21    4.43
  -1 -17  -6    3.31    4.45
   1  17   6   -0.24    4.48
  -1 -17  -5    2.85    5.63
   1  17   5    1.57    5.65
  -1 -17  -4   11.87    6.29
   1  17   4    5.25    6.00
  -1 -17  -3   53.23    8.07
   1  17   3   77.00    9.00
  -1 -17  -2    2.82    4.70
   1  17   2    6.86    4.43
  -2 -17  -6   -2.82    4.04
   2  17   6    0.51    4.57
  -2 -17  -5    6.81    5.58
   2  17   5   -6.02    5.12
  -2 -17  -3    8.32    5.60
   2  17   3   10.72    5.27
  -2 -17  -2    6.90    4.55
   2  17   2   11.27    4.26
   3  17   6   -3.37    4.96
  -3 -17  -5    6.27    5.36
   3  17   5    4.04    5.30
  -3 -17  -4    4.19    5.41
   3  17   4    5.03    5.52
  -3 -17  -3   -1.99    4.81
   3  17   3    0.33    4.37
  -3 -17  -2   -3.38    3.95
  -4 -17  -6   18.27    5.18
   4  17   6   17.67    6.11
  -4 -17  -5    0.79    5.10
   4  17   5   -2.45    5.29
  -4 -17  -4    5.54    5.32
   4  17   4    4.45    5.09
  -4 -17  -3   -1.57    4.65
   4  17   3    0.79    4.28
  -5 -17  -6    6.53    5.52
   5  17   6    7.59    5.07
  -5 -17  -5    5.62    5.16
   5  17   5    7.35    5.03
  -5 -17  -4    6.38    5.12
   5  17   4    2.85    4.72
  -5 -17  -3    0.80    4.28
   5  17   3   -3.53    3.99
  -6 -17  -5    0.53    4.65
   6  17   5    1.23    4.54
  -6 -17  -4   -6.53    4.19
   6  17   4    2.89    4.30
  -6 -17  -3    0.90    3.97
   6  17   3    2.09    3.60
  -7 -17  -4    1.37    4.06
   7  17   4    1.88    3.86
  -7 -17  -3   -2.09    3.42
  -8 -17  -4    3.64    3.84
   8  17   4    1.85    3.51
  -8 -17  -3    1.57    3.16
   8 -18  -2    6.06    4.92
   8 -18  -1    3.11    4.19
  -8  18   1    3.71    4.54
   8 -18   0    6.38    4.02
  -8  18   0   14.63    4.34
   7 -18  -3   78.40    9.81
  -7  18   3   76.92   10.01
   7 -18  -2    7.39    5.16
  -7  18   2    7.10    5.43
   7 -18  -1    6.35    4.65
   7 -18   0    3.20    3.84
   6 -18  -4    1.50    5.29
  -6  18   4    1.34    5.36
   6 -18  -3   -2.23    5.18
  -6  18   3    2.43    5.38
   6 -18  -2    7.26    5.34
  -6  18   2    2.18    5.12
   6 -18  -1   -4.46    4.43
  -6  18   1    5.74    4.54
   6 -18   0    7.54    3.97
  -6  18   0    6.18    4.02
  -5  18   4   -3.46    5.14
   5 -18  -3    9.70    5.67
  -5  18   3   -0.73    5.56
   5 -18  -2    2.20    5.23
  -5  18   2    8.36    5.14
   5 -18  -1   34.90    6.15
  -5  18   1   24.20    5.23
   5 -18   0    0.71    3.64
   4 -18  -5   23.93    5.85
  -4  18   5   24.17    6.68
   4 -18  -4   12.31    5.67
  -4  18   4    4.68    5.47
  -4  18   3   43.70    7.70
   4 -18  -2    4.02    5.10
  -4  18   2    1.57    4.63
   4 -18  -1   40.08    6.11
  -4  18   1   43.81    6.24
   3 -18  -5    3.73    4.70
  -3  18   5    1.76    5.56
   3 -18  -4   24.57    6.29
  -3  18   4   26.73    7.06
   3 -18  -3    9.33    5.85
  -3  18   3    3.59    5.38
   3 -18  -2    3.33    4.88
  -3  18   2    5.89    4.98
  -3  18   1    3.86    4.08
   2 -18  -5   -0.51    5.10
  -2  18   5   -0.20    5.41
   2 -18  -4   30.20    6.88
  -2  18   4   19.79    6.44
   2 -18  -3    7.76    5.60
  -2  18   3   14.65    6.02
   2 -18  -2    8.67    5.30
  -2  18   2    7.87    4.83
   2 -18  -1   -3.99    4.23
  -2  18   1    0.95    3.90
   1 -18  -5    0.40    5.12
  -1  18   5    3.80    5.52
   1 -18  -4   28.39    6.81
  -1  18   4   35.16    7.15
   1 -18  -3    3.15    5.45
  -1  18   3    2.34    5.20
   1 -18  -2   21.22    5.60
  -1  18   2   20.60    5.10
   1 -18  -1    4.10    4.13
   0 -18  -5    3.07    5.27
   0  18   5    4.35    5.34
   0 -18  -4   23.27    6.49
   0  18   4   32.32    6.95
   0 -18  -3    0.04    5.12
   0  18   3    0.64    4.76
   0 -18  -2    7.92    4.54
   0  18   2   11.63    4.70
  -1 -18  -5    2.85    5.30
   1  18   5   -2.76    5.07
  -1 -18  -3    3.38    4.83
   1  18   3   -1.45    4.72
  -1 -18  -2   14.03    4.74
   1  18   2   17.63    4.54
  -2 -18  -5    5.54    5.03
   2  18   5   11.63    5.65
  -2 -18  -4    5.23    5.21
   2  18   4    4.57    5.20
  -2 -18  -3    1.90    4.76
   2  18   3    2.45    4.46
  -2 -18  -2   -1.70    4.04
   2  18   2    3.90    3.97
  -3 -18  -5    3.49    5.03
   3  18   5    2.38    5.05
  -3 -18  -4   19.70    5.89
   3  18   4   25.02    5.93
  -3 -18  -3   11.18    4.65
   3  18   3   -2.67    3.91
  -3 -18  -2   -1.39    3.79
  -4 -18  -5   31.26    6.66
   4  18   5   16.19    6.15
  -4 -18  -4    2.87    4.65
   4  18   4   -2.95    4.23
  -4 -18  -3   12.11    4.59
   4  18   3   10.45    4.17
  -5 -18  -4    5.95    4.55
   5  18   4    3.31    4.35
  -5 -18  -3    7.19    4.06
   5  18   3    1.39    3.75
  -6 -18  -4    7.34    4.37
   6  18   4    0.20    3.88
  -6 -18  -3    2.85    3.77
   6  18   3   -1.34    3.22
  -7 -18  -3   12.24    3.79
   6 -19  -1   -1.66    4.30
  -6  19   1   -6.27    4.23
   6 -19   0    4.08    3.70
   5 -19  -2    2.30    4.74
  -5  19   2   -1.52    4.59
   5 -19  -1    2.27    4.02
  -5  19   1   -4.17    3.70
   5 -19   0   -1.74    3.07
   4 -19  -3    0.82    4.59
  -4  19   3    3.40    5.40
  -4  19   2    1.98    4.50
   4 -19  -1   -3.90    3.79
  -4  19   1   -0.07    3.88
   3 -19  -3   -2.27    4.83
  -3  19   3   -0.33    4.98
   3 -19  -2  -10.08    4.39
  -3  19   2   -3.04    4.26
  -3  19   1    0.51    3.73
   2 -19  -3   -8.89    4.52
  -2  19   3   -5.07    4.66
   2 -19  -2    7.63    4.37
  -2  19   2    3.73    4.02
   2 -19  -1    5.40    3.70
   1 -19  -4    7.12    5.80
  -1  19   4   -0.95    5.73
   1 -19  -3   -4.21    4.68
  -1  19   3   -0.04    4.65
   1 -19  -2    4.87    4.28
  -1  19   2    6.13    4.12
   1 -19  -1    6.64    3.70
   0 -19  -4    0.29    5.30
   0  19   4   -2.54    5.32
   0 -19  -3    3.59    4.65
   0  19   3    2.65    4.39
   0 -19  -2   -0.18    4.17
   0  19   2   -3.99    3.84
  -1 -19  -4   -3.38    4.92
   1  19   4   -1.21    5.01
  -1 -19  -3    4.24    4.46
   1  19   3    5.93    4.59
  -1 -19  -2    0.29    3.95
   1  19   2   -3.20    3.53
  -2 -19  -3    0.44    4.37
   2  19   3    0.82    3.91
  -2 -19  -2    0.00    3.55
  -3 -19  -3    0.55    4.08
   3  19   3   -4.66    3.80
  -3 -19  -2   -2.23    3.35
  -4 -19  -3    1.35    4.06
   4  19   3    2.67    3.80
   0   0   0    0.00    0.00

_computing_structure_solution     'SHELXT 2014/5 (Sheldrick, 2014)'
;
_shelx_hkl_checksum              78638
loop_
_space_group_symop_operation_xyz
'x, y, z'
'-x+1/2, -y, z+1/2'
'-x, y+1/2, -z'
'x+1/2, -y+1/2, -z+1/2'
'-x, -y, -z'
'x-1/2, y, -z-1/2'
'x, -y-1/2, z'
'-x-1/2, y-1/2, z-1/2'
loop_
_atom_site_label
_atom_site_type_symbol
_atom_site_fract_x
_atom_site_fract_y
_atom_site_fract_z
_atom_site_U_iso_or_equiv
_atom_site_adp_type
_atom_site_occupancy
_atom_site_site_symmetry_order
_atom_site_calc_flag
_atom_site_refinement_flags_posn
_atom_site_refinement_flags_adp
_atom_site_refinement_flags_occupancy
_atom_site_disorder_assembly
_atom_site_disorder_group
Si1 Si 0.4239(4) 1.0559(4) 0.6652(6) 0.015(3) Uiso 1 1 d D . . . .
Si2 Si 0.3080(4) 1.0294(4) 0.8094(7) 0.017(3) Uiso 1 1 d D . . . .
Si3 Si 0.2786(4) 1.0620(4) 1.0319(6) 0.015(3) Uiso 1 1 d D . . . .
Si4 Si 0.1235(3) 1.0635(3) 1.0287(6) 0.007(2) Uiso 1 1 d D . . . .
Si5 Si 0.0722(3) 1.0285(3) 0.8170(6) 0.009(2) Uiso 1 1 d D . . . .
Si6 Si 0.1859(4) 1.0585(4) 0.6737(6) 0.015(3) Uiso 1 1 d D . . . .
Si7 Si 0.4232(3) 0.8280(3) 0.6752(6) 0.011(2) Uiso 1 1 d D . . . .
Si8 Si 0.3075(3) 0.8700(4) 0.8157(7) 0.015(3) Uiso 1 1 d D . . . .
Si9 Si 0.2735(3) 0.8281(3) 1.0332(7) 0.015(3) Uiso 1 1 d D . . . .
Si10 Si 0.1199(3) 0.8276(3) 1.0295(7) 0.015(3) Uiso 1 1 d D . . . .
Si11 Si 0.0694(3) 0.8698(3) 0.8172(6) 0.009(2) Uiso 1 1 d D . . . .
Si12 Si 0.1861(3) 0.8272(3) 0.6805(7) 0.016(3) Uiso 1 1 d D . . . .
O1 O 0.3733(7) 1.0541(9) 0.7558(12) 0.062(6) Uiso 1 1 d D . . . .
O2 O 0.3072(7) 1.0598(8) 0.9204(8) 0.044(5) Uiso 1 1 d D . . . .
O3 O 0.2009(4) 1.0587(8) 1.0353(16) 0.052(5) Uiso 1 1 d D . . . .
O4 O 0.0989(8) 1.0643(8) 0.9154(8) 0.052(5) Uiso 1 1 d D . . . .
O5 O 0.1145(6) 1.0534(9) 0.7230(12) 0.051(5) Uiso 1 1 d D . . . .
O6 O 0.2435(7) 1.0538(9) 0.7536(13) 0.058(6) Uiso 1 1 d D . . . .
O7 O 0.3727(7) 0.8435(9) 0.7634(12) 0.056(5) Uiso 1 1 d D . . . .
O8 O 0.3072(7) 0.8432(9) 0.9280(9) 0.049(5) Uiso 1 1 d D . . . .
O9 O 0.1967(4) 0.8464(7) 1.0299(12) 0.026(4) Uiso 1 1 d D . . . .
O10 O 0.0895(8) 0.8333(9) 0.9192(9) 0.051(5) Uiso 1 1 d D . . . .
O11 O 0.1165(5) 0.8435(8) 0.7299(11) 0.037(4) Uiso 1 1 d D . . . .
O12 O 0.2415(6) 0.8479(9) 0.7594(13) 0.052(5) Uiso 1 1 d D . . . .
O13 O 0.3092(9) 0.9495(4) 0.814(2) 0.060(6) Uiso 1 1 d D . . . .
O14 O 0.0799(7) 0.9487(4) 0.8255(15) 0.041(5) Uiso 1 1 d D . . . .
O15 O 0.4182(7) 1.1261(6) 0.6079(12) 0.041(5) Uiso 1 1 d D . . . .
O16 O 0.4089(8) 0.9974(7) 0.5873(12) 0.048(5) Uiso 1 1 d D . . . .
O17 O 0.4024(7) 0.8683(6) 0.5775(11) 0.038(5) Uiso 1 1 d D . . . .
O18 O 0.1916(7) 1.1304(6) 0.6208(11) 0.033(4) Uiso 1 1 d D . . . .
O19 O 0.1941(7) 1.0025(6) 0.5890(11) 0.037(4) Uiso 1 1 d D . . . .
O20 O 0.1948(6) 0.8716(6) 0.5827(10) 0.032(4) Uiso 1 1 d D . . . .
O21 O -0.0026(4) 1.0480(7) 0.7955(12) 0.034(4) Uiso 1 1 d D . . . .
O22 O -0.0056(4) 0.8521(7) 0.7906(12) 0.035(4) Uiso 1 1 d D . . . .
O23 O 0.4279(10) 0.750000 0.6481(17) 0.032(6) Uiso 1 2 d DS . P . .
O24 O 0.1906(10) 0.750000 0.6476(18) 0.035(6) Uiso 1 2 d DS . P . .
O25 O 0.2843(8) 0.750000 1.0586(16) 0.018(5) Uiso 1 2 d DS . P . .
O26 O 0.1121(10) 0.750000 1.0579(18) 0.033(6) Uiso 1 2 d DS . P . .
loop_
_atom_type_symbol
_atom_type_description
_atom_type_scat_dispersion_real
_atom_type_scat_dispersion_imag
_atom_type_scat_source
O O 0.0000 0.0000 'International Tables Vol C Tables 4.2.6.8 and 6.1.1.4'
Si Si 0.0000 0.0000 'International Tables Vol C Tables 4.2.6.8 and 6.1.1.4'
loop_
_geom_angle_atom_site_label_1
_geom_angle_atom_site_label_2
_geom_angle_atom_site_label_3
_geom_angle
_geom_angle_site_symmetry_1
_geom_angle_site_symmetry_3
O16 Si1 O1 111.0(11) . .
O16 Si1 O15 108.0(12) . .
O1 Si1 O15 109.7(10) . .
O16 Si1 O21 108.9(9) . 6_657
O1 Si1 O21 111.0(10) . 6_657
O15 Si1 O21 108.1(9) . 6_657
O6 Si2 O13 109.6(11) . .
O6 Si2 O1 113.0(12) . .
O13 Si2 O1 108.1(11) . .
O6 Si2 O2 108.2(10) . .
O13 Si2 O2 109.9(11) . .
O1 Si2 O2 108.0(9) . .
O20 Si3 O3 111.4(9) 2_575 .
O20 Si3 O19 110.2(10) 2_575 2_575
O3 Si3 O19 107.6(9) . 2_575
O20 Si3 O2 107.3(8) 2_575 .
O3 Si3 O2 113.0(11) . .
O19 Si3 O2 107.3(9) 2_575 .
O16 Si4 O3 110.0(10) 2_575 .
O16 Si4 O17 107.9(11) 2_575 2_575
O3 Si4 O17 111.1(9) . 2_575
O16 Si4 O4 110.1(10) 2_575 .
O3 Si4 O4 111.6(11) . .
O17 Si4 O4 106.0(9) 2_575 .
O4 Si5 O14 110.5(9) . .
O4 Si5 O5 109.0(10) . .
O14 Si5 O5 108.0(10) . .
O4 Si5 O21 111.5(10) . .
O14 Si5 O21 110.2(9) . .
O5 Si5 O21 107.5(8) . .
O6 Si6 O19 111.0(10) . .
O6 Si6 O18 107.2(10) . .
O19 Si6 O18 107.5(11) . .
O6 Si6 O5 113.1(11) . .
O19 Si6 O5 110.1(10) . .
O18 Si6 O5 107.7(8) . .
O17 Si7 O23 108.6(10) . .
O17 Si7 O7 109.6(10) . .
O23 Si7 O7 113.2(11) . .
O17 Si7 O22 109.1(9) . 6_657
O23 Si7 O22 107.6(10) . 6_657
O7 Si7 O22 108.6(9) . 6_657
O13 Si8 O8 110.3(11) . .
O13 Si8 O7 107.7(11) . .
O8 Si8 O7 107.8(10) . .
O13 Si8 O12 106.7(10) . .
O8 Si8 O12 110.3(10) . .
O7 Si8 O12 113.9(11) . .
O8 Si9 O18 110.9(10) . 2_575
O8 Si9 O25 108.0(10) . .
O18 Si9 O25 106.4(9) 2_575 .
O8 Si9 O9 110.7(9) . .
O18 Si9 O9 109.8(9) 2_575 .
O25 Si9 O9 110.9(9) . .
O26 Si10 O15 110.5(10) . 2_575
O26 Si10 O10 104.4(11) . .
O15 Si10 O10 111.9(10) 2_575 .
O26 Si10 O9 108.7(10) . .
O15 Si10 O9 109.8(9) 2_575 .
O10 Si10 O9 111.3(10) . .
O14 Si11 O10 110.8(10) . .
O14 Si11 O11 107.0(9) . .
O10 Si11 O11 108.6(10) . .
O14 Si11 O22 111.1(9) . .
O10 Si11 O22 109.5(9) . .
O11 Si11 O22 109.9(8) . .
O20 Si12 O24 107.5(10) . .
O20 Si12 O11 109.1(9) . .
O24 Si12 O11 111.0(10) . .
O20 Si12 O12 108.7(10) . .
O24 Si12 O12 112.7(11) . .
O11 Si12 O12 107.7(10) . .
Si1 O1 Si2 153.2(14) . .
Si2 O2 Si3 151.1(11) . .
Si4 O3 Si3 172.4(14) . .
Si5 O4 Si4 152.7(12) . .
Si5 O5 Si6 146.3(12) . .
Si2 O6 Si6 161.0(14) . .
Si8 O7 Si7 158.1(14) . .
Si8 O8 Si9 153.6(12) . .
Si9 O9 Si10 153.6(10) . .
Si11 O10 Si10 156.3(13) . .
Si11 O11 Si12 154.4(11) . .
Si12 O12 Si8 166.7(14) . .
Si8 O13 Si2 177.3(15) . .
Si11 O14 Si5 164.3(12) . .
Si1 O15 Si10 148.7(11) . 2_574
Si4 O16 Si1 163.9(13) 2_574 .
Si7 O17 Si4 148.6(12) . 2_574
Si6 O18 Si9 144.7(11) . 2_574
Si3 O19 Si6 159.7(12) 2_574 .
Si3 O20 Si12 148.9(11) 2_574 .
Si1 O21 Si5 149.5(12) 6_557 .
Si7 O22 Si11 150.1(12) 6_557 .
Si7 O23 Si7 152.8(16) . 7_575
Si12 O24 Si12 147.4(16) . 7_575
Si9 O25 Si9 150.8(14) 7_575 .
Si10 O26 Si10 150.0(16) 7_575 .
loop_
_geom_bond_atom_site_label_1
_geom_bond_atom_site_label_2
_geom_bond_distance
_geom_bond_site_symmetry_2
Si1 O16 1.601(9) .
Si1 O1 1.604(9) .
Si1 O15 1.608(9) .
Si1 O21 1.610(8) 6_657
Si2 O6 1.600(8) .
Si2 O13 1.600(8) .
Si2 O1 1.604(9) .
Si2 O2 1.614(9) .
Si3 O20 1.592(8) 2_575
Si3 O3 1.601(8) .
Si3 O19 1.603(8) 2_575
Si3 O2 1.614(9) .
Si4 O16 1.599(8) 2_575
Si4 O3 1.600(8) .
Si4 O17 1.605(8) 2_575
Si4 O4 1.607(9) .
Si5 O4 1.604(9) .
Si5 O14 1.608(8) .
Si5 O5 1.614(9) .
Si5 O21 1.615(8) .
Si6 O6 1.604(9) .
Si6 O19 1.607(9) .
Si6 O18 1.611(9) .
Si6 O5 1.617(9) .
Si7 O17 1.602(9) .
Si7 O23 1.605(7) .
Si7 O7 1.609(9) .
Si7 O22 1.610(8) 6_657
Si8 O13 1.591(8) .
Si8 O8 1.605(9) .
Si8 O7 1.606(8) .
Si8 O12 1.617(8) .
Si9 O8 1.606(9) .
Si9 O18 1.611(9) 2_575
Si9 O25 1.615(7) .
Si9 O9 1.623(8) .
Si10 O26 1.607(8) .
Si10 O15 1.609(9) 2_575
Si10 O10 1.616(9) .
Si10 O9 1.624(8) .
Si11 O14 1.597(8) .
Si11 O10 1.610(9) .
Si11 O11 1.613(9) .
Si11 O22 1.623(8) .
Si12 O20 1.598(9) .
Si12 O24 1.610(8) .
Si12 O11 1.613(8) .
Si12 O12 1.613(9) .
