#------------------------------------------------------------------------------
#$Date: 2018-01-11 12:53:52 +0200 (Thu, 11 Jan 2018) $
#$Revision: 205069 $
#$URL: file:///home/coder/svn-repositories/cod/cif/1/54/86/1548620.cif $
#------------------------------------------------------------------------------
#
# This file is available in the Crystallography Open Database (COD),
# http://www.crystallography.net/
#
# All data on this site have been placed in the public domain by the
# contributors.
#
data_1548620
loop_
_publ_author_name
'Gruene, T.'
'Teng, Li.'
'Van Genderen, E.'
'Pinar, A. B.'
'Van Bokhoven, J. A.'
_publ_section_title
;
 Characterization at the level of individual crystals: single crystal MFI
 type zeolite grains
;
_journal_name_full               'Chemistry - A European Journal'
_journal_paper_doi               10.1002/chem.201704213
_journal_year                    2017
_chemical_formula_sum            'O24 Si12'
_chemical_formula_weight         721.20
_space_group_crystal_system      orthorhombic
_space_group_IT_number           62
_space_group_name_Hall           '-P 2ac 2n'
_space_group_name_H-M_alt        'P n m a'
_symmetry_space_group_name_Hall  '-P 2ac 2n'
_symmetry_space_group_name_H-M   'P n m a'
_atom_sites_solution_hydrogens   .
_audit_creation_method           SHELXL-2016/6
_cell_angle_alpha                90
_cell_angle_beta                 90
_cell_angle_gamma                90
_cell_formula_units_Z            8
_cell_length_a                   20.271(18)
_cell_length_b                   20.1040(16)
_cell_length_c                   13.641(5)
_cell_measurement_temperature    293(2)
_cell_volume                     5559(5)
_computing_structure_refinement  'SHELXL-2016/6 (Sheldrick, 2016)'
_computing_structure_solution    'SHELXT 2014/5 (Sheldrick, 2014)'
_diffrn_ambient_temperature      293(2)
_diffrn_measured_fraction_theta_full 0.667
_diffrn_measured_fraction_theta_max 0.672
_diffrn_radiation_wavelength     0.02508
_diffrn_reflns_av_R_equivalents  0.1408
_diffrn_reflns_av_unetI/netI     0.1284
_diffrn_reflns_Laue_measured_fraction_full 0.667
_diffrn_reflns_Laue_measured_fraction_max 0.672
_diffrn_reflns_limit_h_max       25
_diffrn_reflns_limit_h_min       -25
_diffrn_reflns_limit_k_max       27
_diffrn_reflns_limit_k_min       -27
_diffrn_reflns_limit_l_max       15
_diffrn_reflns_limit_l_min       -15
_diffrn_reflns_number            19076
_diffrn_reflns_point_group_measured_fraction_full 0.667
_diffrn_reflns_point_group_measured_fraction_max 0.672
_diffrn_reflns_theta_full        0.862
_diffrn_reflns_theta_max         0.984
_diffrn_reflns_theta_min         0.073
_exptl_absorpt_coefficient_mu    0.006
_exptl_crystal_density_diffrn    1.723
_exptl_crystal_F_000             940
_refine_diff_density_max         0.243
_refine_diff_density_min         -0.214
_refine_diff_density_rms         0.070
_refine_ls_extinction_coef       .
_refine_ls_extinction_method     none
_refine_ls_goodness_of_fit_ref   1.154
_refine_ls_hydrogen_treatment    undef
_refine_ls_matrix_type           full
_refine_ls_number_parameters     331
_refine_ls_number_reflns         5169
_refine_ls_number_restraints     48
_refine_ls_restrained_S_all      1.153
_refine_ls_R_factor_all          0.2345
_refine_ls_R_factor_gt           0.1611
_refine_ls_shift/su_max          0.000
_refine_ls_shift/su_mean         0.000
_refine_ls_structure_factor_coef Fsqd
_refine_ls_weighting_details
'w=1/[\s^2^(Fo^2^)+(0.2000P)^2^] where P=(Fo^2^+2Fc^2^)/3'
_refine_ls_weighting_scheme      calc
_refine_ls_wR_factor_gt          0.4060
_refine_ls_wR_factor_ref         0.4520
_reflns_Friedel_coverage         0.000
_reflns_Friedel_fraction_full    .
_reflns_Friedel_fraction_max     .
_reflns_number_gt                2219
_reflns_number_total             5169
_reflns_threshold_expression     'I > 2\s(I)'
_cod_data_source_file            zsm5_ChemEurJ.cif
_cod_data_source_block           sil1a
_cod_database_code               1548620
_shelx_shelxl_version_number     2016/6
_shelx_space_group_comment
;
The symmetry employed for this shelxl refinement is uniquely defined
by the following loop, which should always be used as a source of
symmetry information in preference to the above space-group names.
They are only intended as comments.
;
_shelx_res_file
;
TITL sil1a.res in Pnma
    sil1a.res
    created by SHELXL-2016/6 at 16:37:25 on 05-Nov-2017
REM Old TITL sil1 in P222

REM SHELXT solution in Pnma
REM R1 0.264,  Rweak 0.023,  Alpha 0.087,  Orientation as input
REM Formula found by SHELXT:  O2 Si

CELL  0.02508  20.2710  20.1040  13.6410   90.000   90.000   90.000
ZERR    8.000   0.0180   0.00160  0.0053    0.000    0.000    0.000
LATT  1
SYMM 1/2-X, -Y, 1/2+Z
SYMM -X, 1/2+Y, -Z
SYMM 1/2+X, 1/2-Y, 1/2-Z
SFAC O  0.237  0.799  0.649  3.654  0.800 10.924  0.261 29.964  0.035 =
  0.0 0.0 1.230 0.660 16.000
SFAC Si  0.665  1.394  1.312  8.299  2.609 27.621  1.135 78.294  0.106 =
  0.0 0.0 1.230 1.110 28.100
UNIT 192 96
L.S. 10
ACTA
LIST 4
FMAP 2
EQIV $1   x-1/2, y, -z+3/2
EQIV $2   -x+1/2, -y+2, z-1/2
EQIV $3   x, -y+3/2, z
EQIV $4   -x+1/2, -y+2, z+1/2
EQIV $5   x+1/2, y, -z+3/2

DFIX 1.609 0.01 Si1  O1 Si1 O21_$5 Si1 O16 Si1 O15
DFIX 1.609 0.01 Si2  O2 Si2 O13 Si2 O6 Si2 O1
DFIX 1.609 0.01 Si3  O20_$4 Si3 O19_$4 Si3 O2 Si3 O3
DFIX 1.609 0.01 Si4  O4 Si4 O16_$4 Si4 O3 Si4 O17_$4
DFIX 1.609 0.01 Si5  O4 Si5 O5 Si5 O14 Si5 O21
DFIX 1.609 0.01 Si6  O19 Si6 O6 Si6 O5 Si6 O18
DFIX 1.609 0.01 Si7  O23 Si7 O17 Si7 O7 Si7 O22_$5
DFIX 1.609 0.01 Si8  O13 Si8 O8 Si8 O12 Si8 O7
DFIX 1.609 0.01 Si9  O18_$4 Si9 O8 Si9 O25 Si9 O9
DFIX 1.609 0.01 Si10 O15_$4 Si10 O26 Si10 O10 Si10 O9
DFIX 1.609 0.01 Si11 O10 Si11 O14 Si11 O11 Si11 O22
DFIX 1.609 0.01 Si12 O20 Si12 O24 Si12 O11 Si12 O12
PLAN 20
WGHT    0.200000
FVAR       0.77634
SI1   2    0.422964    1.056862    0.665340    11.00000    0.02557    0.02872 =
         0.03179    0.00044   -0.00260    0.00045
SI2   2    0.309335    1.028894    0.812426    11.00000    0.03326    0.02965 =
         0.02925   -0.00142    0.00314    0.00069
SI3   2    0.279479    1.062252    1.033244    11.00000    0.02629    0.03378 =
         0.02954   -0.00144    0.00089    0.00277
SI4   2    0.122450    1.063974    1.029122    11.00000    0.03030    0.03073 =
         0.01999   -0.00284    0.00178   -0.00121
SI5   2    0.072462    1.028028    0.816616    11.00000    0.02091    0.02903 =
         0.02716    0.00297    0.00484   -0.00081
SI6   2    0.187589    1.059126    0.673679    11.00000    0.03141    0.03194 =
         0.03393    0.00629    0.00865    0.00326
SI7   2    0.423339    0.828056    0.676444    11.00000    0.02718    0.02690 =
         0.02739   -0.00028    0.00042   -0.00031
SI8   2    0.309535    0.871154    0.818092    11.00000    0.03714    0.02987 =
         0.02579    0.00094    0.01179    0.00179
SI9   2    0.274256    0.827853    1.033134    11.00000    0.03862    0.02233 =
         0.02383    0.00453   -0.00183   -0.00503
SI10  2    0.119251    0.826397    1.029642    11.00000    0.03706    0.02619 =
         0.04324   -0.00175    0.00269    0.00022
SI11  2    0.070477    0.870372    0.819782    11.00000    0.02322    0.02851 =
         0.04120    0.00012    0.00433    0.00077
SI12  2    0.188490    0.826982    0.685104    11.00000    0.03074    0.03268 =
         0.02567   -0.00342    0.00484   -0.00311
O1    1    0.374924    1.054361    0.758434    11.00000    0.04953    0.11167 =
         0.06603   -0.01504    0.03206   -0.01605
O2    1    0.308217    1.058959    0.922613    11.00000    0.04920    0.07272 =
         0.06584   -0.00769    0.01938   -0.01314
O3    1    0.201445    1.058109    1.027330    11.00000    0.01280    0.15558 =
         0.14440   -0.04956    0.00018    0.00865
O4    1    0.097059    1.062972    0.916312    11.00000    0.08788    0.04744 =
         0.04031   -0.01165   -0.02341    0.00550
O5    1    0.116502    1.055951    0.727744    11.00000    0.02941    0.08026 =
         0.06613    0.02829    0.01548    0.00256
O6    1    0.244277    1.053369    0.756132    11.00000    0.04087    0.10459 =
         0.05420    0.00077   -0.01252    0.01195
O7    1    0.374870    0.842382    0.767333    11.00000    0.05135    0.10390 =
         0.06366   -0.00935    0.01964    0.01925
O8    1    0.309903    0.845969    0.930148    11.00000    0.05375    0.08695 =
         0.04734    0.03201    0.00740    0.00581
O9    1    0.196544    0.845685    1.027736    11.00000    0.02435    0.05357 =
         0.07577   -0.00466   -0.00122   -0.00061
O10   1    0.087531    0.836653    0.923114    11.00000    0.07184    0.09589 =
         0.09934    0.05434   -0.04651   -0.01963
O11   1    0.117445    0.841399    0.734338    11.00000    0.04922    0.07827 =
         0.08082   -0.03036    0.01244    0.01186
O12   1    0.244746    0.844042    0.764008    11.00000    0.03693    0.13067 =
         0.05820   -0.01424   -0.01342   -0.01625
O13   1    0.309438    0.949982    0.818144    11.00000    0.16713    0.02624 =
         0.12308   -0.00059   -0.01189    0.00568
O14   1    0.079853    0.948602    0.827506    11.00000    0.06275    0.03252 =
         0.08503    0.00409    0.00723    0.00924
O15   1    0.417384    1.127234    0.609611    11.00000    0.06155    0.03735 =
         0.07616    0.02496   -0.03297   -0.00070
O16   1    0.407250    0.997679    0.590366    11.00000    0.11514    0.03530 =
         0.06257   -0.00953   -0.03565   -0.00763
O17   1    0.399782    0.866857    0.578930    11.00000    0.08020    0.03111 =
         0.03866    0.00457   -0.01457    0.01162
O18   1    0.191678    1.130686    0.621664    11.00000    0.07498    0.02770 =
         0.06454    0.00799    0.02203   -0.00923
O19   1    0.192751    1.000744    0.592026    11.00000    0.08627    0.03624 =
         0.06980   -0.01689   -0.00210    0.00793
O20   1    0.197931    0.869794    0.585970    11.00000    0.09135    0.03333 =
         0.06737    0.01543    0.01320   -0.01251
O21   1   -0.003044    1.048926    0.792811    11.00000    0.02625    0.06136 =
         0.04473    0.00175    0.00697    0.00710
O22   1   -0.003826    0.849873    0.791544    11.00000    0.04162    0.08600 =
         0.03954   -0.00680    0.00192   -0.01920
O23   1    0.424182    0.750000    0.647150    10.50000    0.09255    0.02058 =
         0.09174    0.00000   -0.02641    0.00000
O24   1    0.192275    0.750000    0.655211    10.50000    0.07121    0.02893 =
         0.05932    0.00000    0.03763    0.00000
O25   1    0.284322    0.750000    1.058805    10.50000    0.05807    0.02094 =
         0.04888    0.00000   -0.01683    0.00000
O26   1    0.110185    0.750000    1.064609    10.50000    0.06140    0.02446 =
         0.06764    0.00000    0.00560    0.00000
HKLF 4




REM  sil1a.res in Pnma
REM R1 =  0.1611 for    2219 Fo > 4sig(Fo)  and  0.2345 for all    5169 data
REM    331 parameters refined using     48 restraints

END

WGHT      0.2000      0.0000

REM Highest difference peak  0.243,  deepest hole -0.214,  1-sigma level  0.070
Q1    1   0.4208  0.7500  0.8962  10.50000  0.05    0.24
Q2    1   0.3885  0.7500  0.7908  10.50000  0.05    0.24
Q3    1   0.3028  0.7500  0.9400  10.50000  0.05    0.23
Q4    1   0.3023  0.7500  0.8016  10.50000  0.05    0.23
Q5    1   0.0149  0.9480  0.7805  11.00000  0.05    0.22
Q6    1   0.1219  0.9461  0.6997  11.00000  0.05    0.22
Q7    1   0.3687  0.9470  0.6743  11.00000  0.05    0.22
Q8    1   0.2403  0.7500  0.7538  10.50000  0.05    0.22
Q9    1   0.0183  0.7500  0.9777  10.50000  0.05    0.21
Q10   1   0.3261  0.7500  0.7627  10.50000  0.05    0.21
Q11   1   0.1935  0.7500  0.8944  10.50000  0.05    0.21
Q12   1   0.3135  0.7500  0.6326  10.50000  0.05    0.21
Q13   1   0.0704  0.7500  0.6144  10.50000  0.05    0.21
Q14   1   0.1298  0.7500  0.5164  10.50000  0.05    0.21
Q15   1   0.2072  0.7500  0.4427  10.50000  0.05    0.21
Q16   1   0.1268  0.7500  0.8138  10.50000  0.05    0.20
Q17   1   0.3363  0.7500  0.6670  10.50000  0.05    0.20
Q18   1   0.1968  0.9289  0.8378  11.00000  0.05    0.20
Q19   1   0.1776  0.9453  0.7403  11.00000  0.05    0.20
Q20   1   0.3497  0.7500  0.6944  10.50000  0.05    0.20
;
_shelx_res_checksum              61632
_shelx_hkl_file
;
   0  -1   0 1597.16  192.15
   0  -3   0   44.64    9.20
   0   3   0   52.91   10.22
   0   3   1 1196.56  144.43
   0  -3  -1 1257.38  151.77
   0   3   2   19.22    5.47
   0  -3  -2   26.03    6.33
   0  -4   0  693.77   84.66
   0   4   0  898.53  109.07
   0   4   1   -7.01    6.12
   0  -4  -1    7.30    6.73
   0   4   2   27.73    6.61
   0  -4  -2   48.17    8.64
   0   4   3    1.22    4.50
   0  -4  -3    2.72    4.62
   0  -5   0  138.51   19.99
   0   5   0   77.12   13.42
   0   5   1 9999.00 1201.02
   0  -5   1 9325.91 1120.33
   0  -5  -1 9106.96 1093.97
   0   5  -1 8648.77 1039.23
   0   5   2    6.53    5.51
   0  -5  -2   15.16    6.37
   0   5   3 5863.16  704.71
   0  -5  -3 5445.52  654.44
   0   5   4    4.83    4.34
   0  -5  -4    8.35    4.99
   0  -6   0 1530.67  185.34
   0   6   0 1359.15  164.58
   0   6   1    9.69    6.85
   0  -6   1   13.95    7.91
   0  -6  -1   -2.55    5.84
   0   6  -1    4.62    7.50
   0   6   2  508.46   62.48
   0  -6  -2  630.51   77.20
   0   6   3    7.10    4.95
   0  -6  -3  -10.06    4.99
   0   6   4   87.22   12.41
   0  -6  -4  126.43   16.91
   0   6   5   37.43    7.50
   0  -6  -5   40.34    7.58
   0  -7   0   46.18   11.80
   0   7   0   26.44    9.33
   0   7   1  817.84   99.71
   0  -7   1 1217.64  147.67
   0  -7  -1  887.99  108.38
   0   7  -1 1001.12  121.76
   0   7   2    8.68    6.24
   0  -7  -2    8.43    6.28
   0   7   3   29.80    6.77
   0  -7  -3   31.14    7.34
   0   7   4    9.29    5.31
   0  -7  -4    6.93    5.11
   0   7   5   10.06    4.99
   0  -7  -5   10.83    4.91
   0   7   6    3.93    4.74
   0  -7  -6   13.75    5.39
   0  -8   0 2874.00  346.68
   0   8   0 3219.87  388.00
   0   8   1    9.53    6.53
   0  -8   1    9.97    7.14
   0  -8  -1   15.61    6.45
   0   8  -1    5.64    7.18
   0   8   2   77.53   12.57
   0  -8  -2   92.65   14.23
   0   8   3    6.20    6.53
   0  -8  -3    9.04    5.84
   0   8   4 3283.13  395.30
   0  -8  -4 3148.10  379.12
   0   8   5    5.11    4.78
   0  -8  -5    0.00    4.05
   0   8   6  915.97  111.59
   0  -8  -6  907.05  110.49
   0   8   7    3.41    4.22
   0  -8  -7    4.62    4.46
   0  -9   0    6.73    7.83
   0   9   0    5.27    9.04
   0   9   1   53.36   10.02
   0  -9   1   44.89    9.93
   0  -9  -1   33.74    8.11
   0   9  -1   52.18   10.54
   0   9   2    6.28    6.33
   0  -9  -2   -4.70    5.60
   0   9   3   22.26    7.50
   0  -9  -3   25.71    7.30
   0   9   4    4.10    4.78
   0  -9  -4    3.69    4.46
   0   9   5   80.61   12.16
   0  -9  -5  127.97   17.52
   0   9   6   17.03    5.35
   0  -9  -6    6.08    4.30
   0   9   7   71.20   11.11
   0  -9  -7   39.49    7.62
   0  -9  -8    1.91    4.95
   0  10   1   -0.32    5.92
   0 -10   1    0.08    6.04
   0 -10  -1    0.93    5.84
   0  10  -1    9.00    6.73
   0  10   2 1012.88  123.55
   0 -10   2  979.63  119.70
   0 -10  -2  821.90  100.56
   0  10  -2  958.54  117.14
   0  10   3    6.65    6.45
   0 -10  -3   12.65    5.92
   0  10   4  735.53   89.93
   0 -10  -4  619.16   76.11
   0  10   5    0.36    3.85
   0 -10  -5    2.96    4.26
   0  10   7   32.48    7.14
   0 -10  -7   43.06    8.03
   0  10   8  268.10   34.42
   0 -10  -8  350.05   44.24
   0 -10  -9   12.57    5.60
   0 -11   0    5.39    7.38
   0  11   0    6.20    9.04
   0  11   1  356.41   44.97
   0 -11   1  247.87   32.68
   0 -11  -1  396.31   49.75
   0  11  -1  250.22   32.80
   0  11   2    5.64    6.16
   0 -11   2    9.16    7.58
   0 -11  -2   -2.35    5.11
   0  11  -2    6.24    7.06
   0  11   3  215.35   28.22
   0 -11  -3  232.58   30.25
   0  11   4   -0.61    4.18
   0 -11  -4   -3.97    4.50
   0  11   5   13.54    4.87
   0 -11  -5    7.14    4.78
   0  11   6    3.65    3.73
   0 -11  -6    2.31    3.89
   0  11   7   57.09    9.81
   0 -11  -7   87.99   12.98
   0  11   8    5.35    4.70
   0 -11  -8    4.10    4.46
   0  11   9   47.28    9.41
   0 -11  -9   68.97   11.84
   0 -11 -10    3.04    5.39
   0  12   1   -1.74    4.83
   0 -12   1    3.16    6.04
   0 -12  -1   -0.61    5.11
   0  12  -1   -5.47    6.49
   0  12   2  846.23  103.56
   0 -12   2 1027.88  125.82
   0 -12  -2  876.23  107.17
   0  12  -2  971.52  118.97
   0  12   3    1.95    4.74
   0 -12  -3   -3.53    4.78
   0  12   4  216.85   28.22
   0 -12  -4  253.83   32.92
   0  12   5   -0.65    4.05
   0 -12  -5   -3.61    4.10
   0  12   6   59.48    9.93
   0 -12  -6   74.28   11.64
   0  12   7    7.62    4.62
   0 -12  -7    1.91    4.26
   0  12   8   17.19    6.20
   0 -12  -8   22.71    6.49
   0  12   9   -0.73    4.62
   0 -12  -9    7.62    6.04
   0  12  10   32.48    8.11
   0 -12 -10   51.13   10.10
   0 -12 -11    1.70    4.54
   0 -13   0    6.77    6.45
   0  13   0   17.52    7.01
   0  13   1   91.84   13.95
   0 -13   1  110.69   16.79
   0 -13  -1   89.12   13.71
   0  13   2    0.00    4.83
   0 -13   2    2.19    6.20
   0 -13  -2    4.66    4.83
   0  13  -2   -2.39    5.68
   0  13   3  294.98   37.79
   0 -13  -3  272.20   35.11
   0  13   4    2.27    4.62
   0 -13  -4    7.14    5.27
   0  13   5  724.99   89.04
   0 -13  -5  728.64   89.57
   0  13   6    0.04    4.10
   0 -13  -6    3.93    4.62
   0  13   7  996.25  121.76
   0 -13  -7  847.85  103.88
   0  13   8    2.39    5.39
   0 -13  -8   -1.70    4.78
   0  13   9    6.00    5.68
   0 -13  -9    5.56    5.03
   0  13  10    3.45    4.46
   0 -13 -10   -2.84    4.66
   0  13  11   62.81   11.03
   0 -13 -11   50.48    9.85
   0 -13 -12   -1.70    3.89
   0  14   1   -0.41    4.95
   0 -14   1    3.65    6.12
   0 -14  -1   -0.28    5.15
   0  14  -1   -9.45    5.03
   0  14   2   71.65   12.00
   0 -14   2   77.81   13.91
   0 -14  -2   77.73   12.45
   0  14  -2  144.31   21.21
   0  14   3    7.06    5.23
   0 -14  -3    4.95    5.07
   0  14  -3   -3.28    6.20
   0  14   4   38.97    8.31
   0 -14  -4   39.25    8.60
   0  14   5   -5.39    4.66
   0 -14  -5   -4.14    5.11
   0  14   6  316.31   40.39
   0 -14  -6  347.13   44.16
   0  14   7    3.81    4.91
   0 -14  -7    3.37    5.03
   0  14   8   55.47   10.18
   0 -14  -8   39.70    8.60
   0  14   9   -2.27    4.50
   0 -14  -9   -3.32    4.46
   0  14  10    0.16    4.26
   0 -14 -10    2.27    4.05
   0  14  11    0.61    3.81
   0 -14 -11   -0.81    4.01
   0  14  12    5.27    4.34
   0 -14 -12    6.97    4.74
   0 -15   0    6.93    7.30
   0  15   0    4.87    7.50
   0  15   1    5.47    5.47
   0 -15  -1    1.70    5.27
   0  15  -1    2.76    5.68
   0  15   2   89.89   14.35
   0 -15   2   89.45   15.04
   0 -15  -2   96.22   14.88
   0  15  -2   48.94   10.95
   0  15   3   52.91   10.99
   0 -15   3   28.87    9.04
   0 -15  -3   51.37   10.18
   0  15  -3   32.68    9.04
   0  15   4    3.89    5.23
   0 -15  -4    1.01    5.60
   0  15   5  388.61   49.27
   0 -15  -5  392.90   50.04
   0  15   6    4.62    5.11
   0 -15  -6   -2.68    4.38
   0  15   7  201.93   27.21
   0 -15  -7  228.04   30.21
   0  15   8   12.41    5.68
   0 -15  -8    5.31    4.87
   0  15   9   26.84    7.01
   0 -15  -9   10.62    5.15
   0  15  10   -0.61    3.81
   0 -15 -10    1.46    3.53
   0  15  11   19.42    6.04
   0 -15 -11    2.64    3.77
   0  15  12    4.34    4.46
   0 -15 -12    3.16    4.62
   0 -15 -13   18.94    6.61
   0  16   1    3.93    5.72
   0 -16   1    0.81    6.45
   0 -16  -1    3.61    5.72
   0  16  -1    5.35    6.00
   0  16   2  128.41   18.90
   0 -16   2   76.51   13.79
   0 -16  -2  128.09   18.85
   0  16   3    8.60    6.45
   0 -16   3   -2.03    7.01
   0 -16  -3    7.95    6.00
   0  16  -3    3.00    6.77
   0  16   4  196.17   26.88
   0 -16  -4  201.36   27.37
   0  16   5   -0.61    4.87
   0 -16  -5    4.30    6.20
   0  16   6    4.14    5.51
   0 -16  -6    6.69    5.27
   0  16   7   -1.70    4.50
   0 -16  -7   -4.26    4.34
   0  16   8   22.71    6.53
   0 -16  -8   32.40    7.30
   0  16   9    5.35    4.26
   0 -16  -9    1.50    3.97
   0  16  10    2.76    4.14
   0 -16 -10   -0.49    3.77
   0  16  11    1.70    4.05
   0 -16 -11    1.58    3.85
   0  16  12    6.37    4.87
   0 -16 -12    9.53    5.07
   0  16  13    3.08    4.01
   0 -16 -13    4.87    4.26
   0 -16 -14   13.34    5.96
   0 -17   0    4.34    7.79
   0  17   0    2.72    7.91
   0  17   1    6.77    6.00
   0 -17   1    3.77    6.37
   0 -17  -1   12.33    7.10
   0  17  -1    8.43    6.04
   0  17   2    4.14    5.47
   0 -17   2    1.70    6.65
   0 -17  -2    0.32    5.72
   0  17  -2    8.56    6.85
   0  17   3    8.31    6.24
   0 -17   3    0.93    6.24
   0 -17  -3    1.74    5.76
   0  17  -3    0.93    6.65
   0  17   4   -3.41    5.15
   0 -17  -4    2.92    5.72
   0  17   5    1.22    4.78
   0 -17  -5    7.54    5.72
   0  17   6    2.35    4.58
   0 -17  -6    5.39    5.15
   0  17   7   68.28   11.52
   0 -17  -7   83.65   13.46
   0  17   8    1.26    4.01
   0 -17  -8    0.73    3.97
   0  17   9   17.23    5.92
   0 -17  -9   11.43    5.11
   0  17  10    2.23    4.01
   0 -17 -10   -3.32    3.81
   0  17  11    5.47    4.95
   0 -17 -11    0.04    4.14
   0  17  12    0.28    4.18
   0 -17 -12    2.27    4.18
   0  17  13    9.16    5.03
   0 -17 -13    2.11    4.46
   0  17  14   -2.47    3.53
   0 -17 -14   -0.77    4.10
   0  18   1    0.04    5.39
   0 -18   1    7.14    6.57
   0 -18  -1   -0.85    4.99
   0  18  -1   10.34    6.16
   0  18   2   25.75    7.66
   0 -18   2    8.43    6.73
   0 -18  -2   11.07    6.00
   0  18  -2    7.14    6.41
   0  18   3   -3.00    5.43
   0 -18   3    3.24    6.57
   0 -18  -3   -0.49    5.03
   0  18  -3   14.43    6.93
   0  18   4  105.91   16.22
   0 -18  -4   80.81   13.26
   0  18  -4   58.67   11.84
   0  18   5    3.12    4.58
   0 -18  -5    3.04    5.15
   0  18   6    8.27    5.15
   0 -18  -6    4.50    5.07
   0  18   7   -2.96    3.77
   0 -18  -7    1.91    3.97
   0  18   8    3.37    4.14
   0 -18  -8    1.66    4.05
   0  18   9    2.15    4.10
   0 -18  -9    0.04    3.57
   0  18  10    4.78    4.34
   0 -18 -10   10.62    5.11
   0  18  11   -2.23    3.77
   0 -18 -11   -1.58    3.93
   0  18  12    9.41    5.23
   0 -18 -12   10.50    5.11
   0  18  13   -3.24    3.61
   0 -18 -13    1.99    3.65
   0  18  14    8.03    5.64
   0 -19   0    2.80    6.77
   0  19   0   -3.32    6.12
   0  19   1    0.57    4.78
   0 -19   1   -2.64    5.96
   0 -19  -1    2.72    5.51
   0  19  -1    3.53    5.56
   0  19   2    3.32    4.78
   0 -19   2   -1.50    5.56
   0 -19  -2   -1.05    4.58
   0  19  -2   -6.41    5.64
   0  19   3    2.68    4.95
   0 -19   3    8.03    6.61
   0 -19  -3    7.22    5.35
   0  19  -3    4.01    5.96
   0  19   4    3.53    5.56
   0 -19  -4   -0.85    4.70
   0  19  -4    5.07    5.92
   0  19   5    4.99    5.03
   0 -19  -5    4.30    4.95
   0  19   6   -1.74    4.14
   0 -19  -6   -5.19    4.34
   0  19   7   19.42    6.08
   0 -19  -7   10.50    5.15
   0  19   8    2.19    3.97
   0 -19  -8   -5.15    3.32
   0  19   9   10.38    5.15
   0 -19  -9   15.33    5.60
   0  19  10   -0.57    3.49
   0 -19 -10   -0.32    3.93
   0  19  11    8.64    4.95
   0 -19 -11    3.24    4.26
   0  19  12    1.18    4.01
   0 -19 -12    1.42    3.57
   0  19  13    2.68    4.38
   0  20   1    4.22    4.83
   0 -20   1   -0.77    5.23
   0 -20  -1   -1.62    4.91
   0  20  -1    2.84    4.95
   0  20   2    5.39    4.99
   0 -20  -2   -6.37    4.42
   0  20  -2    9.69    6.20
   0  20   3    9.45    5.39
   0 -20   3    3.69    6.53
   0 -20  -3    6.89    5.39
   0  20  -3   -1.66    5.60
   0  20   4    8.23    5.88
   0 -20   4    9.16    6.57
   0 -20  -4    4.30    5.15
   0  20  -4   18.17    6.85
   0  20   5    1.54    4.14
   0 -20  -5    2.84    4.99
   0  20   6   49.79    9.93
   0 -20  -6   54.05   10.66
   0  20   7   -2.31    3.49
   0 -20  -7    2.35    4.14
   0  20   8   11.96    5.35
   0 -20  -8    0.45    4.01
   0  20   9    1.34    3.89
   0 -20  -9   -3.41    3.77
   0  20  10   19.38    6.33
   0 -20 -10   22.22    6.77
   0  20  11    1.62    4.01
   0 -20 -11    2.60    4.22
   0  20  12    2.47    4.18
   0 -20 -12   -0.12    4.18
   0 -21   0    7.83    6.33
   0  21   0   -2.15    5.15
   0 -21   1   39.29    9.85
   0 -21  -1   18.45    6.97
   0  21  -1   28.83    8.07
   0  21   2    1.26    4.26
   0 -21   2    3.81    6.04
   0 -21  -2    3.73    4.91
   0  21  -2   -0.20    5.03
   0  21   3   10.99    5.47
   0 -21   3    1.05    6.12
   0 -21  -3   13.87    5.88
   0  21  -3   13.14    6.69
   0  21   4    0.85    4.87
   0 -21   4    3.45    5.72
   0 -21  -4    4.01    5.39
   0  21  -4   -0.32    5.03
   0  21   5    8.60    5.35
   0 -21  -5   17.31    6.12
   0  21   6    1.95    4.10
   0 -21  -6    8.07    5.31
   0  21   7    1.26    4.38
   0 -21  -7    9.12    5.31
   0  21   8    6.08    4.38
   0 -21  -8    6.49    4.46
   0  21  10    0.93    3.65
   0 -21 -10    2.84    4.01
   0  21  11   56.24   11.03
   0 -21 -11   54.94   11.96
   0  21  12    0.81    4.18
   0 -22   0   27.13    8.19
   0  22   0    8.31    5.96
   0  22   1   -0.77    4.58
   0 -22   1   -0.24    4.87
   0 -22  -1   -4.42    4.70
   0  22  -1    0.57    4.66
   0  22   2    6.20    5.11
   0 -22   2   -0.49    5.76
   0 -22  -2    9.16    6.00
   0  22  -2    2.07    4.91
   0  22   3   -0.81    4.38
   0 -22   3    1.91    5.56
   0 -22  -3    1.26    4.74
   0  22  -3    5.60    4.95
   0  22   4    8.31    5.31
   0 -22   4    9.41    6.24
   0 -22  -4   26.68    7.30
   0  22  -4   12.12    6.24
   0  22   5    5.39    4.74
   0 -22  -5    9.20    4.99
   0  22   6    0.93    3.89
   0 -22  -6    0.45    4.05
   0  22   7    1.05    3.93
   0 -22  -7   -2.47    3.61
   0  22   8   -1.46    3.77
   0 -22  -8    4.78    4.34
   0  22   9    0.20    3.81
   0 -22  -9   -0.36    3.65
   0  22  10    2.60    3.97
   0 -22 -10    3.04    4.38
   0  22  11   -3.81    4.01
   0 -23   0    3.24    5.39
   0  23   0    1.54    4.70
   0  23   1    2.88  140.98
   0 -23   1   -5.11    4.42
   0 -23  -1   -2.72    4.58
   0  23  -1    5.15    4.66
   0  23   2   -3.57    3.65
   0 -23   2   -2.03    4.54
   0 -23  -2    1.38    4.38
   0  23  -2    0.85    4.54
   0  23   3    4.87    5.07
   0 -23   3    2.68    4.83
   0 -23  -3    6.04    4.91
   0  23  -3   -1.66    4.66
   0  23   4    1.87    4.58
   0 -23   4    4.87    5.68
   0 -23  -4    0.61    4.58
   0  23  -4   -0.20    4.42
   0  23   5   10.22    5.92
   0 -23  -5    7.01    5.03
   0  23  -5    7.54    5.51
   0  23   6   -0.97    3.53
   0 -23  -6    1.34    4.38
   0  23   7    1.78    4.14
   0 -23  -7   -1.05    4.38
   0  23   8    3.12    3.81
   0 -23  -8    1.78    4.10
   0  23   9    4.18    4.66
   0  23  10    0.36    4.14
   0  24   1    4.99    5.11
   0 -24   1   -0.08    4.54
   0 -24  -1   -1.95    4.58
   0  24  -1   -0.93    3.97
   0  24   2   10.62    4.87
   0 -24   2    1.42    5.03
   0 -24  -2    4.46    5.03
   0  24  -2    1.09    4.22
   0  24   3   -0.85    3.57
   0 -24   3   -0.32    4.50
   0 -24  -3    0.45    4.14
   0  24  -3   -0.61    4.78
   0  24   4   29.03    7.74
   0 -24   4   36.94   10.18
   0 -24  -4   18.57    7.01
   0  24  -4   35.88    9.49
   0  24   5    6.00    4.78
   0 -24  -5   -5.56    4.10
   0  24  -5   -1.34    5.27
   0  24   6   -0.85    3.89
   0 -24  -6    0.65    4.34
   0  24   7    0.16    3.53
   0 -24  -7   -0.89    3.89
   0  24   8    5.84    4.46
   0  24   9    2.68    5.03
   0 -25   0   -4.91    5.39
   0  25   0   -0.77    5.27
   0  25   1   70.27   13.50
   0 -25   1   69.70   13.91
   0 -25  -1   89.65   15.77
   0  25  -1   76.63   14.39
   0  25   2    2.60    4.50
   0 -25   2    1.87    5.43
   0 -25  -2    1.26    4.26
   0  25  -2    6.16    4.70
   0  25   3   23.72    7.26
   0 -25   3   22.63    7.87
   0 -25  -3   20.64    6.97
   0  25  -3   10.46    6.33
   0  25   4    4.05    4.34
   0 -25   4   -4.14    4.74
   0 -25  -4   -3.04    3.97
   0  25  -4    0.61    4.74
   0  25   5   43.43    9.81
   0 -25   5   96.34   16.79
   0 -25  -5   50.12   10.70
   0  25  -5   74.04   14.11
   0  25   6   -2.55    3.85
   0  25   7   11.03    5.68
   0 -26   0  141.02   22.14
   0  26   0  180.80   26.56
   0  26   1    4.78    4.91
   0 -26   1   -4.42    4.87
   0 -26  -1   -0.12    4.70
   0  26  -1    5.56    5.07
   0  26   2   -4.46    4.01
   0 -26   2   -0.41    5.15
   0 -26  -2    4.78    4.99
   0  26  -2    2.64    3.97
   0  26   3   -2.27    4.18
   0 -26   3   -1.01    4.50
   0 -26  -3    2.80    4.78
   0  26  -3   -1.46    4.42
   0  26   4   -4.66    4.22
   0 -26   4   -3.89    5.11
   0  26  -4   -0.73    5.15
   0  26   5   -5.39    4.10
   0 -26   5    0.93    5.27
   0  26  -5   -0.28    4.83
   0  27   0   -5.92    4.74
   0  27   1    1.58    4.38
   0  27  -1    4.26    4.74
   0  27   2    4.46    4.22
   0  27  -2   -5.19    3.61
   0  27   3    1.22    4.30
   0  27  -3   -2.43   54.78
   1  -1   0  161.95   20.19
  -1  -1  -1  900.96  108.50
   1   1   1  859.61  103.52
   1   2   0   88.35   14.19
  -1  -2   0   63.09   11.92
  -1   2   1  521.85   63.25
  -1  -2  -1  438.72   53.56
   1   2   1  470.76   57.33
   1  -2  -1  433.05   52.63
  -1  -2  -2  267.57   33.01
   1   2   2  289.51   35.56
   1   3   0   12.69    7.58
  -1  -3   0   22.50    8.51
   1  -3   0   -4.34    4.66
  -1   3   0   -1.50    4.74
  -1   3   1 1476.33  177.84
  -1  -3  -1 1237.51  149.42
   1   3   1 1180.34  142.52
   1  -3  -1 1236.29  149.05
  -1   3   2   98.33   13.58
   1   3   2  156.11   20.07
   1  -3  -2   91.48   12.93
  -1  -3  -3 8300.06  997.06
   1   3   3 9950.34 1194.93
   1   4   0    0.12    8.03
  -1  -4   0   12.98    8.68
   1  -4   0    4.91    5.68
  -1   4   0   10.26    5.51
   1  -4   1  172.41   22.95
  -1   4   1  163.28   21.37
  -1  -4  -1  175.69   23.07
   1   4   1  203.71   26.19
   1  -4  -1  170.14   22.18
  -1   4  -1  191.42   24.98
  -1   4   2  117.14   15.73
  -1  -4  -2  128.37   17.19
   1  -4  -2   91.19   12.73
  -1   4   3   -0.65    4.50
  -1  -4  -3    2.76    4.70
   1   4   3    2.47    4.83
   1  -4  -3    7.14    5.27
  -1  -4  -4    3.32    4.62
   1   4   4    6.04    4.74
   1   5   0   -1.78    7.66
  -1  -5   0  -10.54    7.79
   1  -5   0    8.19    6.65
  -1   5   0    5.43    5.76
   1  -5   1 5384.70  647.14
  -1   5   1 5413.08  650.38
  -1  -5  -1 6361.89  764.72
   1   5   1 5717.19  686.87
   1  -5  -1 5834.78  701.47
  -1   5  -1 5891.54  707.96
  -1   5   2 1156.01  139.69
  -1  -5  -2 1152.76  139.52
   1   5   2 1099.24  133.12
   1  -5  -2  946.78  114.59
  -1   5   3 3514.25  422.91
  -1  -5  -3 3571.01  429.40
   1   5   3 3195.54  384.47
   1  -5  -3 4091.24  492.25
  -1  -5  -4  806.49   97.92
   1   5   4  850.28  103.15
   1  -5  -4  746.88   90.83
  -1  -5  -5  531.98   65.24
   1   6   0   -2.88    7.10
  -1  -6   0   -5.43    6.97
   1  -6   0   12.61    6.89
  -1   6   0   10.66    6.69
   1  -6   1  102.14   15.29
  -1   6   1  107.17   15.16
   1   6  -1  105.55   16.30
  -1  -6  -1  135.55   18.69
   1   6   1  126.35   17.31
   1  -6  -1  111.34   15.69
  -1   6  -1   96.50   14.72
  -1   6   2   53.04    9.29
  -1  -6  -2   25.79    7.22
   1   6   2   31.34    7.58
   1  -6  -2   40.95    7.87
  -1   6   3   26.60    6.49
  -1  -6  -3   47.85    8.60
   1   6   3   35.56    7.18
   1  -6  -3   22.87    6.24
  -1   6   4  147.23   19.30
  -1  -6  -4  225.40   28.63
   1  -6  -4  149.01   19.75
  -1  -6  -5   51.29    8.80
   1   6   5   53.24    9.04
   1   7   0   11.72    6.97
  -1  -7   0    0.36    6.41
   1  -7   0   -0.16    6.08
  -1   7   0   -4.54    6.08
   1  -7   1    7.50    6.57
   1   7  -1    1.58    7.22
  -1  -7  -1   27.98    7.50
   1   7   1   11.31    6.20
  -1  -7   1    3.85    6.93
  -1   7  -1   18.73    6.89
  -1   7   2   22.46    7.50
  -1  -7  -2   26.56    7.70
   1   7   2   32.84    7.62
   1  -7  -2   22.14    7.10
  -1   7   3 1005.98  121.93
  -1  -7  -3 1447.54  175.08
   1   7   3 1233.45  149.34
   1  -7  -3  985.71  119.57
  -1   7   4   58.63    9.41
  -1  -7  -4   55.79    9.53
   1   7   4   43.22    8.27
   1  -7  -4   74.81   11.27
  -1   7   5  108.67   15.08
  -1  -7  -5  165.43   21.65
   1   7   5  184.45   23.96
   1  -7  -5  154.85   20.48
  -1  -7  -6   60.94   10.10
   1   7   6   91.31   13.22
   1   8   0   14.03    7.50
  -1  -8   0   11.31    6.57
   1  -8   0   -1.50    6.33
   1  -8   1  136.16   19.38
  -1   8   1  107.33   15.65
   1   8  -1  146.86   20.64
  -1  -8  -1  142.85   19.75
   1   8   1  110.41   15.98
  -1  -8   1  154.04   21.29
   1  -8  -1  101.00   14.88
  -1   8  -1  145.52   20.19
  -1   8   2  205.37   27.05
  -1  -8  -2  342.06   43.30
   1  -8  -2  204.52   26.64
  -1   8   3   35.32    7.83
  -1  -8  -3   36.94    8.80
   1   8   3   40.06    8.96
   1  -8  -3   28.50    6.61
  -1   8   4 1011.66  122.74
  -1  -8  -4 1295.09  156.88
   1   8   4 1207.91  146.38
   1  -8  -4 1096.81  133.00
  -1   8   5   93.02   13.30
  -1  -8  -5  112.19   15.65
   1   8   5  108.75   15.33
   1  -8  -5   79.88   11.88
  -1   8   6 1729.75  209.10
  -1  -8  -6 1579.73  191.26
   1   8   6 1591.89  192.64
   1  -8  -6 1738.67  210.24
  -1  -8  -7   38.36    7.66
   1   8   7   51.54    8.96
   1   9   0   16.46    7.38
  -1  -9   0   -1.50    6.28
   1  -9   0    1.78    6.73
  -1   9   0    2.72    6.37
   1  -9   1  126.43   18.37
  -1   9   1  190.69   25.22
  -1  -9  -1  133.52   18.98
   1   9   1  133.56   18.85
   1  -9  -1  171.43   23.03
  -1   9  -1  124.12   17.84
   1  -9   2    9.08    7.42
  -1   9   2   11.39    6.41
  -1  -9  -2   13.95    7.26
   1   9   2   28.46    8.11
   1  -9  -2   21.61    6.65
  -1   9  -2   -2.88    7.34
  -1  -9  -3   24.13    6.85
   1   9   3   23.48    7.14
  -1   9   4    1.42    4.99
  -1  -9  -4    1.82    4.70
   1   9   4    4.58    5.60
   1  -9  -4    4.54    4.83
  -1  -9  -5    0.41    4.26
   1   9   5   -0.93    4.74
  -1   9   6   -1.38    4.05
  -1  -9  -6    4.26    4.14
   1   9   6    0.89    3.85
   1  -9  -6    0.28    3.85
  -1   9   7    2.35    4.30
  -1  -9  -7    4.87    4.34
   1   9   7    4.34    4.22
   1  -9  -7    7.22    4.42
  -1  -9  -8    7.30    5.03
   1   9   8    3.00    4.22
   1  10   0   11.60    7.10
  -1 -10   0   22.02    7.50
   1 -10   0    2.51    5.92
  -1  10   0    7.46    6.61
   1 -10   1  304.67   39.29
  -1  10   1  300.78   38.40
   1  10  -1  262.95   34.18
  -1 -10  -1  270.33   34.83
   1  10   1  288.86   37.10
  -1 -10   1  234.85   30.65
   1 -10  -1  246.65   31.87
  -1  10  -1  342.54   43.39
  -1  10   2    9.93    6.16
  -1 -10  -2   34.06    8.51
   1  10   2   26.07    7.66
   1 -10  -2    7.99    5.56
  -1  10  -2   22.95    8.31
  -1  10   3  117.59   17.07
  -1 -10  -3  125.86   17.68
   1  10   3  140.25   19.38
   1 -10  -3  110.17   15.65
  -1  10   4   29.11    6.93
  -1 -10  -4   12.16    5.35
   1  10   4   11.88    5.96
   1 -10  -4   29.32    6.85
  -1 -10  -5   48.78    8.56
   1  10   5   66.62   10.50
  -1  10   6   93.79   13.50
  -1 -10  -6  107.41   15.29
   1  10   6   78.01   11.88
   1 -10  -6   82.39   12.29
  -1  10   7    3.08    4.18
  -1 -10  -7    1.87    4.18
   1  10   7    0.28    3.97
   1 -10  -7    6.28    5.23
  -1  10   8  442.37   55.27
  -1 -10  -8  635.78   78.38
   1  10   8  552.26   68.36
   1 -10  -8  383.78   48.17
  -1 -10  -9   33.37    7.91
   1  10   9   32.56    7.54
   1  11   0   -3.04    6.57
  -1 -11   0    2.92    6.16
   1 -11   0    5.19    5.76
  -1  11   0    7.58    6.65
   1 -11   1    8.72    6.28
  -1  11   1    9.37    5.56
   1  11  -1    8.03    7.34
  -1 -11  -1   22.95    7.06
   1  11   1   43.39    9.85
  -1 -11   1    4.62    6.37
   1 -11  -1   15.00    6.04
  -1  11  -1   10.30    6.69
   1 -11   2   10.83    7.14
  -1  11   2   19.02    6.61
   1  11  -2   22.71    8.35
  -1 -11  -2   22.63    7.06
   1  11   2   26.48    7.38
  -1 -11   2   15.16    7.22
   1 -11  -2   18.41    6.24
  -1  11  -2    5.07    7.18
  -1  11   3   34.30    8.56
  -1 -11  -3   23.40    6.65
   1  11   3   23.60    7.06
   1 -11  -3   27.45    6.69
  -1  11   4   22.67    6.28
  -1 -11  -4   37.75    7.70
   1  11   4   38.28    7.58
   1 -11  -4   20.19    6.04
  -1  11   5   14.03    4.78
  -1 -11  -5   32.28    6.93
   1  11   5   14.03    5.15
   1 -11  -5   23.88    6.12
  -1  11   6    7.62    4.38
  -1 -11  -6    1.62    4.22
   1  11   6    4.30    4.22
   1 -11  -6    1.87    4.26
  -1  11   7   18.04    5.47
  -1 -11  -7   41.97    8.31
   1  11   7   29.15    6.77
   1 -11  -7   24.82    6.04
  -1  11   8   12.89    5.60
  -1 -11  -8    7.83    4.83
   1  11   8    9.37    4.95
   1 -11  -8    5.72    5.03
  -1  11   9   10.02    5.76
  -1 -11  -9   15.41    6.28
   1  11   9   10.75    5.47
   1 -11  -9   30.25    7.66
  -1 -11 -10   11.31    5.76
   1  11  10   -4.58    4.78
  -1 -12   0   31.67    8.39
   1 -12   0   11.27    6.33
  -1  12   0    6.73    6.16
   1 -12   1   17.23    7.01
  -1  12   1   23.60    6.73
   1  12  -1    5.15    6.45
  -1 -12  -1   10.83    6.00
   1  12   1   14.35    6.28
  -1 -12   1   13.06    6.61
   1 -12  -1   12.41    5.88
  -1  12  -1   17.48    7.50
  -1  12   2  361.76   45.58
   1  12  -2  352.28   44.89
  -1 -12  -2  405.88   51.01
   1  12   2  360.79   45.53
  -1 -12   2  315.95   40.87
   1 -12  -2  368.54   46.35
  -1  12  -2  273.29   35.93
  -1  12   3   53.93    9.73
   1  12   3   97.03   14.27
   1 -12  -3   63.66   10.54
  -1  12   4  318.70   40.30
  -1 -12  -4  293.64   37.55
   1  12   4  308.85   39.17
   1 -12  -4  296.60   37.71
  -1  12   5    7.70    4.30
  -1 -12  -5    3.57    4.50
   1  12   5   -1.05    4.38
   1 -12  -5    6.93    4.54
  -1  12   6  620.38   76.31
  -1 -12  -6  378.59   47.52
   1  12   6  426.15   53.32
   1 -12  -6  495.08   61.43
  -1  12   7   -1.38    4.10
  -1 -12  -7    2.47    4.58
   1  12   7    2.47    4.14
   1 -12  -7   -1.42    4.05
  -1  12   8  203.63   27.21
  -1 -12  -8  181.77   24.53
   1  12   8  213.40   28.38
   1 -12  -8  232.82   30.37
  -1  12   9    6.89    5.19
  -1 -12  -9   -3.37    4.54
   1  12   9   -1.09    4.91
   1 -12  -9    1.54    5.11
  -1 -12 -10   18.61    6.37
   1  12  10   23.68    6.97
   1 -12 -10   25.79    7.38
  -1 -12 -11    4.78    4.66
   1  13   0    7.91    5.27
  -1 -13   0   -1.14    5.23
   1 -13   0    1.70    5.31
  -1  13   0    6.20    5.64
   1 -13   1  154.12   21.73
  -1  13   1  220.01   28.79
  -1 -13  -1  152.82   21.13
   1  13   1  172.89   23.56
  -1 -13   1  222.44   29.60
   1 -13  -1  255.94   33.33
  -1  13  -1  143.01   20.31
   1 -13   2   10.95    6.28
  -1  13   2    9.57    5.19
   1  13  -2    1.22    5.76
  -1 -13  -2    3.20    5.11
   1  13   2   -3.28    4.74
  -1 -13   2   -2.19    6.37
   1 -13  -2   10.30    5.19
  -1  13  -2    5.43    6.16
   1 -13   3 2560.98  310.23
  -1  13   3 3265.69  393.96
  -1 -13  -3 3038.63  366.79
   1  13   3 2755.60  332.73
   1 -13  -3 3243.80  391.28
  -1  13  -3 2310.39  279.70
  -1  13   4    6.04    4.95
  -1 -13  -4    1.22    4.91
   1  13   4    1.14    4.66
   1 -13  -4    7.42    4.91
  -1  13   5  360.59   45.37
  -1 -13  -5  369.91   46.75
   1  13   5  355.64   45.13
   1 -13  -5  430.61   53.85
  -1  13   6   55.10    9.41
   1 -13  -6   56.04    9.73
  -1  13   7  111.67   16.06
   1  13   7  117.02   17.07
   1 -13  -7   93.71   14.11
  -1  13   8    4.26    5.15
  -1 -13  -8    5.56    5.27
   1  13   8   18.98    6.61
   1 -13  -8    1.78    4.91
  -1  13   9   53.00   10.30
  -1 -13  -9   76.23   12.85
   1 -13  -9   70.03   11.80
  -1  13  10    7.62    4.87
  -1 -13 -10    9.37    5.03
   1  13  10    7.38    5.19
   1 -13 -10    4.50    4.87
  -1 -13 -11  128.29   18.73
   1  13  11  148.57   21.08
   1 -13 -11  192.56   26.27
  -1 -13 -12   18.69    6.16
   1  14   0    6.37    5.31
  -1 -14   0   -6.20    5.47
   1 -14   0   -0.85    5.72
  -1  14   0    6.28    5.92
   1 -14   1   -6.28    5.60
  -1  14   1    2.31    4.62
   1  14  -1    5.39    6.08
  -1 -14  -1    4.01    5.39
   1  14   1   -0.36    5.60
  -1 -14   1    6.45    6.33
   1 -14  -1    4.87    4.99
  -1  14  -1    1.34    5.11
   1 -14   2   35.20    8.88
  -1  14   2   13.54    5.68
   1  14  -2    5.88    6.69
  -1 -14  -2    2.96    4.95
   1  14   2    2.03    5.31
  -1 -14   2    2.07    6.53
   1 -14  -2    4.50    5.35
  -1  14  -2   20.07    7.79
   1 -14   3   17.96    7.87
  -1  14   3   16.71    6.00
  -1 -14  -3    9.73    6.20
   1  14   3    7.46    5.27
   1 -14  -3   13.83    5.80
  -1  14  -3    9.00    6.73
  -1  14   4    9.45    5.51
  -1 -14  -4    5.47    5.31
   1  14   4   -1.14    4.99
   1 -14  -4    8.07    5.07
  -1  14   5    6.33    5.39
  -1 -14  -5    6.57    5.72
   1  14   5    9.41    5.60
   1 -14  -5    2.07    5.23
  -1  14   6   10.26    4.99
  -1 -14  -6   10.91    5.39
   1  14   6    5.47    5.47
   1 -14  -6    3.61    5.27
  -1  14   7    0.28    4.78
  -1 -14  -7    7.74    5.39
   1  14   7    0.45    5.27
   1 -14  -7    1.74    4.74
  -1  14   8   56.00   10.46
  -1 -14  -8   48.41    9.73
   1  14   8   57.37   10.70
   1 -14  -8   33.33    7.91
  -1  14   9    8.11    5.35
  -1 -14  -9   12.37    5.56
   1  14   9    7.83    5.03
   1 -14  -9    7.74    4.78
  -1  14  10    3.81    4.30
  -1 -14 -10   -2.60    3.89
   1  14  10   -1.22    3.97
   1 -14 -10    3.73    3.97
  -1  14  11    2.51    4.10
  -1 -14 -11   -1.78    3.57
   1  14  11   -1.34    3.73
   1 -14 -11   -0.24    4.01
  -1 -14 -12    5.47    4.58
   1  14  12   -2.15    4.18
   1 -14 -12   -0.89    4.30
  -1 -14 -13    0.81    4.26
   1  15   0   -6.16    5.07
  -1 -15   0    0.81    5.92
   1 -15   0    5.27    5.80
  -1  15   0   -0.28    5.68
   1 -15   1    5.27    6.28
  -1  15   1    8.88    5.31
   1  15  -1    8.76    6.57
  -1 -15  -1   15.16    6.37
   1  15   1   17.35    7.38
  -1 -15   1    0.41    6.08
   1 -15  -1    2.96    5.60
  -1  15  -1   11.03    6.49
   1 -15   2    1.78    6.08
  -1  15   2   -6.41    4.91
   1  15  -2    6.97    6.69
  -1 -15  -2   -5.68    5.51
   1  15   2    3.85    5.92
  -1 -15   2   -1.95    6.85
   1 -15  -2    3.20    5.68
  -1  15  -2   11.07    6.77
   1 -15   3  113.45   17.92
  -1  15   3  111.59   16.46
   1  15  -3  132.06   20.07
  -1 -15  -3  101.29   15.98
   1  15   3   75.62   13.02
   1 -15  -3  100.88   15.33
  -1  15  -3  118.11   18.21
  -1  15   4   11.68    6.53
  -1 -15  -4   10.95    6.28
   1  15   4   12.53    6.00
   1 -15  -4   11.27    6.00
  -1  15   5   34.34    8.31
  -1 -15  -5   37.79    8.72
   1  15   5   32.36    8.11
   1 -15  -5   31.42    7.83
  -1  15   6   10.87    5.68
  -1 -15  -6    2.47    5.15
   1  15   6    5.35    5.72
   1 -15  -6   17.64    6.69
  -1 -15  -7   -1.58    4.95
   1  15   7    2.96    4.99
  -1  15   8   -2.19    4.62
  -1 -15  -8   -0.20    4.87
   1  15   8    3.28    4.62
   1 -15  -8    1.54    4.62
  -1  15   9   -1.26    4.10
  -1 -15  -9    4.87    4.22
   1  15   9    0.97    3.97
   1 -15  -9    9.20    4.62
  -1  15  10    1.99    4.26
  -1 -15 -10   -2.39    3.49
   1  15  10   -2.23    4.26
   1 -15 -10    6.65    4.18
  -1  15  11    4.38    4.38
  -1 -15 -11    9.41    4.87
   1  15  11    3.24    4.30
   1 -15 -11   11.84    5.23
  -1  15  12   -0.73    3.77
  -1 -15 -12    0.20    4.18
   1  15  12    5.15    4.50
   1 -15 -12    3.37    4.26
  -1 -15 -13    4.83    4.54
   1  15  13    1.62    4.14
   1 -15 -13    2.80    4.54
  -1 -15 -14   -0.32    4.42
   1  16   0   25.67    7.70
  -1 -16   0   13.34    7.10
   1 -16   0   30.69    8.39
  -1  16   0    8.35    6.49
   1 -16   1   67.75   12.93
  -1  16   1   69.30   12.20
   1  16  -1   78.22   13.99
  -1 -16  -1   75.09   13.22
   1  16   1   71.85   12.85
  -1 -16   1   83.37   14.52
   1 -16  -1   97.96   15.69
  -1  16  -1   87.46   14.76
   1 -16   2  390.51   50.32
  -1  16   2  366.39   46.83
   1  16  -2  393.72   50.60
  -1 -16  -2  446.43   56.40
   1  16   2  456.97   57.94
  -1 -16   2  357.51   46.47
   1 -16  -2  338.81   43.79
  -1  16  -2  455.75   58.10
   1 -16   3   11.27    7.14
  -1  16   3    1.38    5.19
   1  16  -3   30.45    9.29
  -1 -16  -3   11.31    6.89
   1  16   3    0.20    5.76
  -1 -16   3   26.92    9.20
   1 -16  -3    0.49    5.51
  -1  16  -3    7.83    7.14
  -1  16   4   41.64    9.33
  -1 -16  -4   29.40    8.15
   1  16   4   39.37    8.96
   1 -16  -4   43.55    9.16
  -1  16   5    8.51    5.92
  -1 -16  -5    8.07    5.64
   1  16   5    1.58    5.47
   1 -16  -5    3.49    5.39
  -1  16   6   16.71    6.08
  -1 -16  -6   16.14    6.53
   1  16   6    8.39    5.64
   1 -16  -6   20.27    7.10
  -1  16   7    1.05    4.38
  -1 -16  -7    6.16    4.74
   1  16   7    2.72    4.87
   1 -16  -7   -2.15    4.38
  -1  16   8   24.37    6.45
  -1 -16  -8    3.49    4.22
   1  16   8    4.01    4.22
   1 -16  -8    6.73    4.70
  -1  16   9    6.77    4.42
  -1 -16  -9   11.92    4.99
   1  16   9    9.29    4.58
   1 -16  -9    4.50    3.93
  -1  16  10   -1.66    4.10
  -1 -16 -10    6.24    4.54
   1  16  10    2.35    4.10
   1 -16 -10    8.76    4.42
  -1  16  11    3.45    4.30
  -1 -16 -11    9.45    4.87
   1  16  11   18.29    6.16
   1 -16 -11    2.60    3.81
  -1  16  12    5.19    4.70
  -1 -16 -12   10.42    5.11
   1  16  12    7.14    4.87
   1 -16 -12   -0.73    4.10
  -1  16  13    1.99    3.85
  -1 -16 -13    1.18    3.81
   1  16  13    1.78    4.10
   1 -16 -13    1.14    3.97
  -1 -16 -14    4.01    4.66
   1  16  14   -7.87    4.01
   1 -16 -14    4.99    4.70
  -1 -16 -15    2.11    5.15
   1  17   0    0.57    5.47
  -1 -17   0    0.89    6.37
   1 -17   0    0.49    6.00
  -1  17   0    3.41    6.41
   1 -17   1   33.74    9.16
  -1  17   1   48.13   10.06
   1  17  -1   61.79   11.76
  -1 -17  -1   27.73    8.39
   1  17   1   38.03    9.57
  -1 -17   1   43.26   10.54
   1 -17  -1   70.07   12.89
  -1  17  -1   59.69   11.88
   1 -17   2    3.57    6.61
  -1  17   2   14.64    6.93
   1  17  -2   12.37    7.06
  -1 -17  -2    7.74    5.88
   1  17   2   12.93    6.81
  -1 -17   2    0.45    7.91
   1 -17  -2   28.30    8.51
  -1  17  -2    2.60    6.73
   1 -17   3   42.37   10.58
  -1  17   3   10.79    6.16
  -1 -17  -3   22.14    7.91
   1  17   3   25.22    7.91
   1 -17  -3   13.30    6.41
  -1  17   4   -1.87    5.31
  -1 -17  -4    1.95    6.16
   1  17   4    1.30    4.99
   1 -17  -4    3.45    5.43
  -1  17  -4    4.05    6.37
  -1  17   5    4.18    4.83
  -1 -17  -5    8.23    5.51
   1  17   5    0.24    4.42
   1 -17  -5    0.32    4.50
  -1  17   6    7.46    4.74
  -1 -17  -6    5.31    4.99
   1  17   6   14.64    5.96
   1 -17  -6    8.68    5.31
  -1  17   7    4.50    4.01
  -1 -17  -7    2.55    4.30
   1  17   7   -1.62    4.46
   1 -17  -7   -0.93    3.61
  -1  17   8    3.73    4.18
  -1 -17  -8    5.07    3.97
   1  17   8   -0.28    4.22
   1 -17  -8    6.53    4.14
  -1  17   9    3.08    3.93
  -1 -17  -9    4.78    4.74
   1  17   9    4.95    4.54
   1 -17  -9   -1.54    3.69
  -1  17  10    1.54    3.69
  -1 -17 -10    8.03    4.66
   1  17  10    0.04    3.69
   1 -17 -10   -2.64    3.85
  -1  17  11   13.54    5.56
  -1 -17 -11    2.88    4.26
   1  17  11    8.84    4.91
  -1  17  12    1.54    3.81
  -1 -17 -12    1.46    4.01
   1  17  12    3.20    4.05
   1 -17 -12    6.28    4.58
  -1  17  13    3.00    4.22
  -1 -17 -13    4.87    4.54
   1  17  13    5.56    4.46
   1 -17 -13    3.73    3.93
  -1  17  14    4.62    4.38
  -1 -17 -14   -1.62    3.89
   1  17  14    1.54    4.10
   1 -17 -14   -3.65    4.38
   1  18   0    9.45    5.84
  -1 -18   0    8.19    6.61
   1 -18   0   12.20    6.81
  -1  18   0   -2.23    5.56
   1 -18   1   10.46    6.57
  -1  18   1    9.65    5.72
   1  18  -1    3.32    5.72
  -1 -18  -1   14.80    6.57
   1  18   1   10.06    6.04
  -1 -18   1    8.88    6.77
   1 -18  -1   11.92    6.73
  -1  18  -1   18.04    7.01
   1 -18   2   83.00   14.39
  -1  18   2   52.23   10.26
   1  18  -2   61.51   11.96
  -1 -18  -2   58.02   10.99
   1  18   2   47.64   10.14
  -1 -18   2   37.55    9.61
   1 -18  -2   47.72   10.30
  -1  18  -2   43.39   10.10
   1 -18   3   -2.84    6.41
  -1  18   3   -0.69    4.95
   1  18  -3    0.04    5.96
  -1 -18  -3   -0.53    5.19
   1  18   3    5.92    5.92
  -1 -18   3    6.77    6.73
   1 -18  -3    4.74    5.23
  -1  18  -3   20.03    7.66
  -1  18   4   39.29    8.47
  -1 -18  -4   78.78   13.62
   1  18   4   57.05   10.91
   1 -18  -4   41.20    8.76
  -1  18   5    1.66    4.70
   1 -18  -5    4.99    4.58
  -1  18   6   95.98   15.21
  -1 -18  -6   84.18   13.62
   1  18   6   69.42   11.96
   1 -18  -6  105.63   16.34
  -1  18   7    8.11    4.38
  -1 -18  -7    2.68    4.42
   1  18   7    9.81    4.99
   1 -18  -7    4.01    4.50
  -1  18   8   56.81   10.22
  -1 -18  -8   49.35    9.69
   1  18   8   66.05   11.72
   1 -18  -8   50.20    9.41
  -1  18   9    0.61    3.73
  -1 -18  -9    1.05    3.73
   1  18   9    0.53    3.89
   1 -18  -9   -0.81    3.93
  -1  18  10   11.27    5.15
  -1 -18 -10    6.28    4.42
   1  18  10    8.68    4.78
   1 -18 -10    8.72    4.74
  -1  18  11   -4.22    4.01
  -1 -18 -11    3.24    4.18
   1  18  11    2.07    4.01
   1 -18 -11    2.31    3.93
  -1  18  12   94.15   15.57
  -1 -18 -12   54.90   10.70
   1 -18 -12   70.92   12.57
  -1  18  13   -2.76    3.77
  -1 -18 -13   -1.78    3.53
   1  18  13    0.61    4.14
   1 -18 -13    1.74    3.81
  -1  18  14    1.74    4.91
   1  18  14   -0.73    4.42
   1  19   0   -2.51    4.50
  -1 -19   0    4.91    5.68
   1 -19   0   -0.69    5.56
  -1  19   0    1.82    5.72
   1 -19   1    7.10    6.04
  -1  19   1   -0.73    4.34
   1  19  -1    2.80    5.15
  -1 -19  -1    5.60    5.35
   1  19   1    0.57    5.11
  -1 -19   1    7.42    6.45
   1 -19  -1    2.23    5.80
  -1  19  -1    6.53    5.31
   1 -19   2   -0.93    5.56
  -1  19   2    1.91    4.66
   1  19  -2   -0.20    5.47
  -1 -19  -2    1.66    4.78
   1  19   2   -3.24    4.70
  -1 -19   2   -2.43    6.12
   1 -19  -2    5.15    5.03
  -1  19  -2    2.23    6.08
   1 -19   3    5.27    6.57
  -1  19   3   17.48    6.33
   1  19  -3    8.92    6.37
  -1 -19  -3    0.36    5.15
   1  19   3   12.69    6.41
  -1 -19   3    8.23    6.85
   1 -19  -3   11.03    6.12
  -1  19  -3   -1.74    5.84
   1 -19   4    3.77    6.28
  -1  19   4    4.50    4.54
  -1 -19  -4   -0.16    5.51
   1  19   4    5.11    5.07
   1 -19  -4   11.19    5.51
  -1  19  -4    6.41    6.08
  -1  19   5    3.49    4.58
  -1 -19  -5    0.53    4.70
   1  19   5    0.04    4.22
   1 -19  -5    6.33    5.11
  -1  19   6    3.04    4.26
  -1 -19  -6   -0.69    4.18
   1  19   6    2.11    4.10
   1 -19  -6    2.55    4.87
  -1  19   7   -1.66    3.81
  -1 -19  -7    6.57    4.99
   1  19   7    8.60    4.87
   1 -19  -7    4.22    4.91
  -1  19   8    1.78    3.49
  -1 -19  -8    3.12    3.85
   1  19   8   -0.65    4.05
   1 -19  -8   -0.49    3.61
  -1  19   9    4.74    4.05
  -1 -19  -9   -0.49    3.65
   1  19   9    1.70    3.65
   1 -19  -9    4.22    4.22
  -1  19  10   -2.68    3.61
  -1 -19 -10    4.54    4.66
   1  19  10   -3.73    3.81
   1 -19 -10    1.14    3.81
  -1  19  11    3.12    3.81
  -1 -19 -11   -0.16    3.61
   1  19  11    1.34    3.81
   1 -19 -11    3.37    4.38
  -1  19  12    1.05    4.18
  -1 -19 -12   -0.77    3.89
   1  19  12   -1.14    4.05
   1 -19 -12   -1.58    3.61
  -1  19  13   -0.97    3.85
  -1 -19 -13    2.27    4.05
   1  19  13    1.99    4.05
   1  20   0   -0.65    4.54
  -1 -20   0   -3.16    5.07
   1 -20   0   -3.24    5.03
  -1  20   0    1.74    5.23
   1 -20   1    7.79    6.04
  -1  20   1    0.97    4.58
   1  20  -1    1.09    4.74
  -1 -20  -1    6.41    5.60
   1  20   1   -3.85    4.62
  -1 -20   1    4.22    6.00
   1 -20  -1    2.23    4.95
  -1  20  -1    6.12    5.07
   1 -20   2    4.22    6.00
  -1  20   2    1.87    4.70
   1  20  -2    5.27    5.88
  -1 -20  -2    4.46    5.19
   1  20   2   -2.80    4.58
  -1 -20   2    0.93    5.51
   1 -20  -2    3.04    4.66
   1 -20   3    1.26    6.85
  -1  20   3    1.05    4.42
   1  20  -3    4.95    5.68
  -1 -20  -3   -3.24    4.46
   1  20   3    4.70    5.51
  -1 -20   3    6.89    6.16
   1 -20  -3    0.61    4.66
  -1  20  -3    4.70    5.72
   1 -20   4   11.23    7.22
  -1  20   4   16.18    5.80
   1  20  -4   13.99    6.69
  -1 -20  -4   29.84    8.19
   1  20   4   25.26    7.22
   1 -20  -4   20.19    6.69
  -1  20  -4   11.92    6.49
  -1  20   5   -3.24    4.38
  -1 -20  -5   -1.91    4.38
   1  20   5    2.07    4.22
   1 -20  -5    0.00    4.01
  -1  20   6    5.56    4.74
  -1 -20  -6    1.09    4.14
   1  20   6    0.53    3.61
   1 -20  -6   -3.53    3.97
  -1  20   7    3.49    4.14
  -1 -20  -7    1.87    4.30
   1  20   7    6.04    4.46
   1 -20  -7    5.92    5.03
  -1  20   8    0.32    3.73
  -1 -20  -8    8.27    5.19
   1  20   8    4.62    4.54
   1 -20  -8    7.18    4.66
  -1  20   9   10.95    4.87
  -1 -20  -9   -4.99    3.97
   1  20   9    0.93    4.18
   1 -20  -9    2.43    4.05
  -1  20  10   21.53    6.33
  -1 -20 -10   15.57    5.96
   1  20  10   14.39    5.56
   1 -20 -10   23.88    6.53
  -1  20  11    4.10    4.05
  -1 -20 -11    6.61    4.95
   1  20  11    8.60    5.07
   1 -20 -11    4.26    4.42
  -1  20  12    1.26    4.05
  -1 -20 -12    4.66    4.74
   1  20  12    4.91    4.70
   1  21   0   -1.38    4.26
  -1 -21   0    0.20    5.27
   1 -21   0    7.06    5.27
  -1  21   0    5.11    5.47
   1 -21   1   10.18    6.45
  -1  21   1    4.50    5.27
   1  21  -1   11.92    5.80
  -1 -21  -1   13.87    6.33
   1  21   1    4.30    4.99
  -1 -21   1    8.27    7.50
   1 -21  -1    7.70    5.56
  -1  21  -1   11.15    5.92
   1 -21   2    0.36    5.15
  -1  21   2   -0.12    4.18
   1  21  -2    1.01    5.03
  -1 -21  -2   -0.69    4.26
   1  21   2   -0.77    4.38
  -1 -21   2    0.97    5.31
   1 -21  -2    4.87    4.95
  -1  21  -2    6.57    5.15
   1 -21   3   24.86    8.07
  -1  21   3   27.00    7.38
   1  21  -3   16.38    7.01
  -1 -21  -3   32.52    8.03
   1  21   3   29.52    7.99
  -1 -21   3   21.41    8.03
   1 -21  -3   29.44    7.95
  -1  21  -3   43.67    9.93
   1 -21   4    1.26    5.15
  -1  21   4    2.23    4.74
   1  21  -4    4.78    5.31
  -1 -21  -4   -1.01    4.70
   1  21   4   -1.74    4.46
   1 -21  -4    1.62    5.11
  -1  21  -4    9.61    5.39
  -1  21   5    6.81    4.78
  -1 -21  -5   12.49    6.12
   1  21   5    0.49    4.05
   1 -21  -5    6.65    4.95
  -1  21  -5    9.65    5.92
  -1  21   6   -2.64    3.93
  -1 -21  -6    2.07    3.93
   1  21   6    1.46    3.85
   1 -21  -6    3.20    3.89
  -1  21   7   11.31    5.39
  -1 -21  -7   21.25    6.61
   1  21   7   27.33    7.50
   1 -21  -7   33.53    8.31
  -1  21   8    1.82    4.26
  -1 -21  -8    1.82    3.93
   1  21   8    0.85    3.85
   1 -21  -8    4.54    4.42
  -1  21   9    7.58    4.70
  -1 -21  -9    3.20    4.42
   1  21   9    9.89    5.15
   1 -21  -9    9.24    4.99
  -1  21  10    3.49    4.22
  -1 -21 -10   12.41    5.47
   1  21  10   11.60    5.35
   1 -21 -10    9.37    4.95
  -1  21  11   12.00    5.56
  -1 -21 -11   18.98    6.85
   1  21  11    9.41    5.27
   1  21  12   -0.45    4.26
   1  22   0   -0.08    4.18
  -1 -22   0    7.22    5.19
   1 -22   0    2.19    4.42
  -1  22   0   -0.61    4.54
   1 -22   1   -2.15    4.66
  -1  22   1    3.49    4.74
   1  22  -1   -1.22    4.05
  -1 -22  -1   -0.36    4.54
   1  22   1    5.07    4.66
  -1 -22   1    1.09    4.58
   1 -22  -1    1.74    4.62
  -1  22  -1    2.03    4.18
   1 -22   2   -0.12    4.99
  -1  22   2    2.47    4.91
   1  22  -2   -1.01    5.07
  -1 -22  -2   -0.97    4.46
   1  22   2    0.77    3.85
  -1 -22   2    3.73    5.31
   1 -22  -2    4.87    5.23
  -1  22  -2   -0.69    3.97
   1 -22   3    1.46    5.60
  -1  22   3    4.58    4.42
   1  22  -3    3.24    5.31
  -1 -22  -3    8.11    4.91
   1  22   3    5.88    4.87
  -1 -22   3    8.76    6.53
   1 -22  -3    4.01    5.19
  -1  22  -3    5.27    5.11
   1 -22   4   15.98    7.26
  -1  22   4   -2.15    4.18
   1  22  -4    1.30    5.31
  -1 -22  -4   -0.16    4.54
   1  22   4    4.58    4.87
  -1 -22   4    3.04    5.72
   1 -22  -4    0.16    4.10
  -1  22  -4   -1.01    4.87
  -1  22   5   -1.42    4.18
  -1 -22  -5    6.49    5.80
   1  22   5    0.04    4.05
   1 -22  -5    2.55    4.62
  -1  22  -5    7.42    5.11
  -1  22   6   10.83    5.60
  -1 -22  -6    3.61    4.26
   1  22   6   -1.66    3.93
   1 -22  -6    8.23    4.87
  -1  22   7   -0.69    3.85
  -1 -22  -7    2.43    3.77
   1  22   7    0.32    3.69
   1 -22  -7    1.46    4.50
  -1  22   8   15.98    6.00
  -1 -22  -8   19.22    6.00
   1  22   8   14.03    5.64
   1 -22  -8   14.96    6.12
  -1  22   9    0.61    3.81
  -1 -22  -9   -1.46    3.77
   1  22   9   -0.97    3.69
   1 -22  -9   -1.87    3.49
  -1  22  10    0.57    3.93
  -1 -22 -10    4.70    4.54
   1  22  10    4.01    4.50
  -1  22  11    1.22    4.18
   1  22  11    0.00    3.81
   1  23   0    1.26    4.46
  -1 -23   0    0.65    4.42
   1 -23   0    5.19    4.83
  -1  23   0   -0.93    4.34
   1 -23   1    6.61    5.23
  -1  23   1    3.32    4.74
   1  23  -1   28.63    8.11
  -1 -23  -1   10.50    5.60
   1  23   1    6.73    4.83
  -1 -23   1    5.43    5.72
   1 -23  -1    4.01    4.83
  -1  23  -1   -0.24    3.85
   1 -23   2   -4.22    4.34
  -1  23   2    3.89    4.26
   1  23  -2    5.15    5.35
  -1 -23  -2    2.11    4.54
   1  23   2   -3.45    3.93
  -1 -23   2    3.41    4.99
   1 -23  -2    3.93    4.99
  -1  23  -2    1.01    4.01
   1 -23   3   30.37    8.35
  -1  23   3   77.16   13.58
   1  23  -3   42.74    9.77
  -1 -23  -3   35.64    8.72
   1  23   3   36.65    8.92
  -1 -23   3   48.45   10.79
   1 -23  -3   61.67   11.88
  -1  23  -3   60.62   11.60
   1 -23   4    0.65    5.23
  -1  23   4   -2.55    4.18
   1  23  -4   -0.89    4.14
  -1 -23  -4   -0.08    4.66
   1  23   4   -1.14    4.99
  -1 -23   4    7.54    5.80
   1 -23  -4    1.05    4.62
  -1  23  -4    2.19    4.54
  -1  23   5   10.91    5.15
  -1 -23  -5   12.73    6.20
   1  23   5   15.94    6.45
   1 -23  -5    9.37    5.03
  -1  23  -5   13.71    6.45
  -1  23   6    8.56    4.99
  -1 -23  -6    4.42    4.46
   1  23   6    2.47    3.93
   1 -23  -6   10.18    5.07
  -1  23   7   -1.54    3.97
  -1 -23  -7    7.70    4.42
   1  23   7    4.34    4.22
   1 -23  -7    0.85    4.78
  -1  23   8    3.00    3.61
  -1 -23  -8    7.34    4.54
   1  23   8   10.18    4.99
   1 -23  -8    2.23    4.78
  -1  23   9   -1.22    3.85
   1  23   9    0.69    4.05
  -1  23  10   -1.30    3.49
   1  23  10    1.95    4.22
   1  24   0   -4.50    4.34
  -1 -24   0    6.73    5.35
   1 -24   0    0.89    4.50
  -1  24   0    3.24    4.78
   1 -24   1    2.72    4.74
  -1  24   1    0.00    4.22
   1  24  -1    0.08    3.93
  -1 -24  -1    0.93    4.62
   1  24   1    4.62    4.54
  -1 -24   1    5.92    5.51
   1 -24  -1    4.91    4.66
  -1  24  -1    9.08    4.95
   1 -24   2    4.95    5.72
  -1  24   2   12.16    5.64
   1  24  -2   15.29    6.53
  -1 -24  -2    3.81    4.66
   1  24   2    2.96    4.54
  -1 -24   2   18.57    7.22
   1 -24  -2    5.15    5.43
  -1  24  -2   13.71    5.88
   1 -24   3    0.61    4.95
  -1  24   3   -2.27    4.42
   1  24  -3    4.26    5.19
  -1 -24  -3    6.65    5.03
   1  24   3    1.91    4.01
  -1 -24   3    1.30    5.35
   1 -24  -3    3.20    4.66
  -1  24  -3    6.49    5.23
   1 -24   4   26.68    9.29
  -1  24   4   33.78    8.19
   1  24  -4   16.50    7.14
  -1 -24  -4   22.87    7.10
   1  24   4   26.80    7.91
  -1 -24   4   11.39    7.06
   1 -24  -4   26.44    7.66
  -1  24  -4   17.96    7.30
   1 -24   5   -2.23    5.39
  -1  24   5    3.69    3.89
   1  24  -5    8.92    5.64
  -1 -24  -5    6.16    5.07
   1  24   5    1.74    4.14
   1 -24  -5    4.83    4.50
  -1  24  -5    3.85    5.80
  -1  24   6   10.30    5.51
  -1 -24  -6    3.16    4.42
   1  24   6    5.07    4.87
   1 -24  -6   24.65    7.10
  -1  24   7    1.54    4.22
  -1 -24  -7    4.70    4.26
   1  24   7    2.11    3.77
   1 -24  -7    0.93    4.46
  -1  24   8    0.28    3.81
   1  24   8   -0.61    3.89
  -1  24   9    2.23    4.22
   1  24   9    2.76    4.05
   1  25   0   -4.62    4.58
  -1 -25   0   -2.47    4.87
   1 -25   0    2.55    4.66
  -1  25   0   -4.62    4.26
   1 -25   1   29.64    8.72
  -1  25   1   21.86    7.66
   1  25  -1   19.42    7.46
  -1 -25  -1   27.37    8.35
   1  25   1   37.63    9.29
  -1 -25   1   16.42    7.42
   1 -25  -1   21.81    7.95
  -1  25  -1   21.25    7.26
   1 -25   2    8.11    5.72
  -1  25   2    5.47    4.58
   1  25  -2   10.79    6.49
  -1 -25  -2    3.97    4.99
   1  25   2    1.46    4.26
  -1 -25   2    4.66    5.84
   1 -25  -2    4.62    4.83
  -1  25  -2    1.87    4.78
   1 -25   3    1.66    5.23
  -1  25   3   -0.28    4.30
   1  25  -3    2.55    5.35
  -1 -25  -3    0.53    4.30
   1  25   3    6.28    4.46
  -1 -25   3    8.92    6.41
   1 -25  -3    1.82    4.22
  -1  25  -3    0.57    4.99
   1 -25   4    5.76    5.72
  -1  25   4    6.49    4.99
   1  25  -4    1.62    5.03
  -1 -25  -4    5.60    4.74
   1  25   4    4.26    5.11
  -1 -25   4    5.88    6.45
   1 -25  -4    1.70    4.58
  -1  25  -4    6.65    5.43
   1 -25   5   23.07    8.23
  -1  25   5    6.08    4.54
   1  25  -5    9.53    6.53
  -1 -25  -5    5.80    5.68
   1  25   5    7.10    5.19
   1 -25  -5   15.61    6.24
  -1  25  -5   20.31    7.38
  -1  25   6   -1.95    3.69
   1  25   6   -0.20    3.65
  -1  25  -6   -0.53    4.38
  -1  25   7    4.14    4.62
   1  25   7   -1.18    4.05
   1  26   0    4.54    5.03
  -1 -26   0    3.61    5.19
   1 -26   0    8.15    5.64
  -1  26   0    4.83    5.31
   1 -26   1    5.39    5.64
  -1  26   1    4.91    5.56
   1  26  -1    7.91    5.07
  -1 -26  -1    2.92    5.15
   1  26   1    2.19    4.78
  -1 -26   1    5.07    5.39
   1 -26  -1    4.91    5.19
  -1  26  -1    5.43    5.31
   1 -26   2   13.83    6.73
  -1  26   2    8.60    5.47
   1  26  -2   37.47    9.61
  -1 -26  -2   17.03    6.73
   1  26   2   17.11    6.16
  -1 -26   2   34.63    9.20
   1 -26  -2   15.04    6.49
  -1  26  -2    6.28    5.27
   1 -26   3    3.28    5.60
  -1  26   3    6.37    5.03
   1  26  -3    5.96    5.47
   1  26   3    4.58    4.38
  -1 -26   3    5.80    5.68
   1 -26  -3    3.08    5.07
  -1  26  -3    1.34   34.34
   1 -26   4    0.36    5.07
  -1  26   4    0.57    4.05
   1  26  -4    2.60    5.64
   1  26   4    2.76    5.15
  -1 -26   4    2.92    5.96
  -1  26  -4    6.77    5.27
   1 -26   5   -0.85    5.19
  -1  26   5    6.81    4.91
   1  26  -5    0.04    4.91
   1  26   5    3.37    4.70
  -1  26  -5    2.92    4.70
   1  27   0   -4.10    4.14
  -1  27   0    0.28    4.54
  -1  27   1    4.46    5.11
   1  27  -1    6.49    5.23
   1  27   1   -2.31    3.97
  -1  27  -1   -0.81    4.18
  -1  27   2    1.99    4.14
   1  27   2    3.08    4.38
  -1  27  -2   -2.03    3.41
  -1  27   3    4.58    5.27
   1  27  -3   13.58    6.93
   1  27   3    1.70    4.50
  -1  27  -3    7.18    6.33
  -2  -1  -1   13.18    4.30
   2   1   1   17.03    4.66
   2  -2   0  244.34   29.96
  -2   2   0  238.05   29.28
   2  -2   1   83.04   11.60
  -2   2  -1  131.78   17.15
  -2  -2  -2   37.30    6.61
   2   2   2   26.19    5.72
   2   3   0  207.24   26.88
  -2  -3   0  208.01   26.92
  -2   3   1    6.61    4.18
  -2  -3  -1    2.88    5.35
   2   3   1    8.84    5.56
   2  -3  -1    3.49    4.14
  -2   3  -1   28.63    7.01
  -2  -3  -2  636.19   77.24
   2   3   2  682.41   82.80
  -2  -3  -3  639.84   77.65
   2   3   3  712.42   86.33
   2   4   0  302.57   38.40
  -2  -4   0  293.28   37.43
  -2   4   0  206.26   26.07
   2  -4   1   10.99    6.85
  -2   4   1    3.97    4.54
  -2  -4  -1    0.00    6.00
   2   4   1   10.38    6.57
   2  -4  -1    7.79    5.07
  -2   4  -1   16.62    6.93
  -2   4   2   44.85    7.79
  -2  -4  -2   41.64    8.56
   2   4   2   32.88    8.15
   2  -4  -2   57.17    8.88
  -2  -4  -4   30.86    6.37
   2   4   4   30.49    6.33
   2   5   0 1083.02  131.54
  -2  -5   0 1069.64  130.00
   2  -5   0 1249.27  151.00
  -2   5   0 1149.52  138.96
  -2   5   1   15.12    6.73
  -2  -5  -1    9.77    6.77
   2   5   1    7.87    6.97
   2  -5  -1   -1.18    5.92
  -2   5  -1   -6.12    6.08
  -2   5   2  729.04   88.47
  -2  -5  -2  756.62   92.12
   2   5   2  723.37   88.11
   2  -5  -2  805.68   97.64
  -2   5   3  332.21   41.12
  -2  -5  -3  272.72   34.10
   2   5   3  289.51   36.13
   2  -5  -3  266.23   33.21
  -2  -5  -4  352.15   43.51
   2   5   4  394.69   48.58
   2   6   0   48.01   10.06
  -2  -6   0   34.87    9.53
   2  -6   0   46.14    8.56
  -2   6   0   22.10    6.20
   2  -6   1    6.73    6.37
  -2   6   1    5.56    6.08
  -2  -6  -1   14.03    7.06
   2   6   1    6.97    6.61
   2  -6  -1    7.42    5.72
  -2   6  -1    6.28    5.76
  -2   6   2   53.93    8.72
  -2  -6  -2   86.81   13.22
   2  -6  -2   54.62    8.92
  -2   6   3   11.60    4.95
  -2  -6  -3   21.29    6.81
   2   6   3   11.68    6.49
   2  -6  -3   23.96    5.72
  -2   6   4   14.23    5.56
   2  -6  -4    6.85    5.03
  -2  -6  -5    7.66    4.87
   2   6   5   21.94    5.92
  -2  -6  -6  233.27   29.84
   2   6   6  206.35   26.64
   2   7   0   56.85   10.83
  -2  -7   0   90.83   14.56
   2  -7   0   41.60    8.19
  -2   7   0   40.55    7.95
   2  -7   1    2.03    6.08
  -2   7   1    5.15    5.56
  -2  -7  -1   -0.36    6.97
   2   7   1    8.64    6.61
   2  -7  -1    7.95    5.76
  -2   7  -1    2.96    5.92
   2  -7   2   27.94    8.23
  -2   7   2   21.29    6.04
  -2  -7  -2   63.34   11.23
   2  -7  -2   23.88    6.24
  -2   7  -2   27.09    8.19
  -2   7   3   47.60    8.47
  -2  -7  -3   27.45    8.19
   2  -7  -3   47.12    8.23
  -2   7   4   50.48    8.64
  -2  -7  -4   53.81    9.49
   2   7   4   47.40    8.64
   2  -7  -4   37.55    7.06
  -2   7   5   21.37    5.96
  -2  -7  -5   13.75    5.27
   2   7   5    9.65    5.27
  -2  -7  -6    3.20    4.05
   2   7   6   -2.68    4.54
  -2  -7  -7    7.14    4.54
   2   7   7    4.58    4.30
   2   8   0  282.09   36.25
  -2  -8   0  314.40   40.22
   2  -8   0  405.35   50.48
  -2   8   0  370.32   46.18
   2  -8   1   10.87    6.49
  -2   8   1   -4.74    5.43
  -2  -8  -1    2.39    7.14
   2   8   1   18.69    7.26
   2  -8  -1    1.82    6.08
  -2   8  -1    5.31    5.64
   2  -8   2  175.81   23.76
  -2   8   2  199.62   25.95
  -2  -8  -2  180.68   24.13
   2   8   2  179.95   23.92
   2  -8  -2  203.79   26.64
  -2   8  -2  190.69   25.34
  -2   8   3   12.20    5.64
   2  -8  -3   16.83    5.15
  -2   8   4  558.74   68.53
  -2  -8  -4  569.29   69.98
   2   8   4  612.67   75.17
   2  -8  -4  515.76   63.34
  -2   8   5    2.35    4.54
   2   8   5   12.57    5.43
   2  -8  -5    2.80    4.70
  -2   8   6    6.49    4.54
  -2  -8  -6   24.45    6.08
   2   8   6   11.19    5.15
   2  -8  -6    8.19    5.27
  -2  -8  -7  112.72   15.94
   2   8   7  156.76   20.96
  -2  -8  -8   11.35    5.23
   2   9   0    3.85    6.73
  -2  -9   0   14.23    7.46
   2  -9   0    8.03    6.28
  -2   9   0   -5.43    5.51
   2  -9   1    2.76    6.08
  -2   9   1    2.96    5.76
   2   9  -1   17.72    7.95
  -2  -9  -1   -1.38    6.16
   2   9   1    5.64    6.81
  -2  -9   1   -4.91    6.73
   2  -9  -1    3.65    6.28
  -2   9  -1   -2.47    5.72
   2  -9   2    7.79    6.69
  -2   9   2   10.10    6.77
  -2  -9  -2   12.81    6.12
   2   9   2   17.52    7.10
   2  -9  -2   11.27    5.80
  -2   9  -2   16.42    7.46
  -2   9   3    1.30    5.19
  -2  -9  -3    0.81    5.35
   2   9   3    1.01    5.92
   2  -9  -3    0.93    4.54
  -2   9   4    9.29    5.51
  -2  -9  -4    7.66    5.03
   2   9   4    7.30    6.41
   2  -9  -4    8.96    4.62
  -2   9   5    4.91    4.62
  -2  -9  -5    4.30    4.38
   2   9   5   22.58    6.28
   2  -9  -5    9.08    4.66
  -2   9   6    9.61    4.62
  -2  -9  -6   23.56    5.96
   2   9   6   14.96    5.07
   2  -9  -6    1.70    4.62
  -2  -9  -7    4.83    4.26
   2   9   7    9.45    4.62
   2  -9  -7    7.91    4.78
  -2  -9  -8    3.45    4.50
   2   9   8    5.51    4.54
  -2  -9  -9    4.46    4.99
   2  10   0  364.32   46.10
  -2 -10   0  398.46   50.20
   2 -10   0  349.68   44.16
  -2  10   0  357.39   44.97
   2 -10   1    2.55    5.60
  -2  10   1    3.69    5.92
   2  10  -1    5.80    7.38
  -2 -10  -1    8.80    6.20
   2  10   1    1.01    6.49
  -2 -10   1   -1.18    6.81
   2 -10  -1   15.53    6.53
  -2  10  -1   11.23    6.57
   2 -10   2   71.28   12.53
  -2  10   2   57.17   10.26
  -2 -10  -2   39.33    8.51
   2  10   2   53.00    9.73
   2 -10  -2   51.78    9.49
  -2  10  -2   68.69   12.37
  -2  10   3   28.50    7.42
  -2 -10  -3   23.44    6.45
   2  10   3   28.55    7.38
   2 -10  -3   31.55    6.93
  -2  10   4   76.63   11.96
  -2 -10  -4  108.59   15.65
   2  10   4  123.95   17.76
  -2  10   5   36.05    7.34
   2  10   5   34.87    7.22
   2 -10  -5   29.03    6.57
  -2  10   6   32.72    6.73
  -2 -10  -6   50.48    9.00
   2  10   6   33.41    6.89
   2 -10  -6   33.94    7.10
  -2  10   7   24.53    6.12
   2  10   7   57.05    9.61
   2 -10  -7   33.45    7.30
  -2 -10  -8    1.66    4.26
   2  10   8    1.50    4.46
  -2 -10 -10   98.00   15.12
   2  11   0   -8.47    6.85
  -2 -11   0   -6.49    6.12
   2 -11   0    7.50    5.60
  -2  11   0    4.18    6.04
   2 -11   1   13.66    6.73
  -2  11   1   11.92    5.96
  -2 -11  -1   13.34    6.65
   2  11   1   -1.95    6.00
   2 -11  -1    6.20    5.51
  -2  11  -1    4.83    6.53
   2 -11   2    2.19    6.08
  -2  11   2    5.35    4.99
  -2 -11  -2    1.34    5.19
   2  11   2    4.46    5.15
   2 -11  -2    2.51    4.78
  -2  11  -2    2.60    7.01
  -2  11   3    7.34    5.92
  -2 -11  -3   14.48    6.24
   2  11   3   16.99    6.77
   2 -11  -3    6.73    4.91
  -2  11  -3    1.62    7.10
  -2  11   4   -3.28    3.89
  -2 -11  -4    1.70    4.70
   2  11   4    0.36    4.58
   2 -11  -4    0.04    3.93
  -2  11   5    5.39    4.22
  -2 -11  -5    2.27    4.46
   2  11   5    4.30    4.26
   2 -11  -5    1.18    4.26
  -2  11   6    6.93    4.18
  -2 -11  -6    7.42    4.83
   2  11   6    3.37    3.97
   2 -11  -6   11.11    4.74
  -2  11   7    0.36    3.69
  -2 -11  -7    0.00    4.26
   2  11   7   10.10    4.66
   2 -11  -7    3.85    4.26
  -2  11   8    3.57    4.87
  -2 -11  -8    0.81    4.14
   2  11   8    6.93    4.66
   2 -11  -8    4.30    4.83
  -2 -11  -9    4.46    5.11
   2  11   9    9.89    5.27
   2 -11  -9    5.76    5.43
  -2 -11 -10    4.54    5.43
   2  11  10   22.87    7.54
  -2 -11 -11    1.62    4.58
   2  12   0  124.48   18.41
  -2 -12   0  106.15   16.34
  -2  12   0   87.50   14.03
   2 -12   1   17.35    6.85
  -2  12   1    1.58    5.23
   2  12  -1    1.38    6.73
  -2 -12  -1   13.22    6.49
   2  12   1    8.39    5.56
  -2 -12   1    4.22    6.33
   2 -12  -1    1.78    4.99
  -2  12  -1   -0.20    5.72
   2 -12   2   16.18    6.89
  -2  12   2   27.57    6.57
   2  12  -2   40.67    9.20
  -2 -12  -2   55.43   10.14
   2  12   2   30.49    7.18
   2 -12  -2   41.84    8.27
  -2  12  -2   33.01    9.16
   2 -12   3    5.39    6.97
  -2  12   3   15.77    5.19
  -2 -12  -3   21.29    6.65
   2  12   3   21.81    6.65
   2 -12  -3   10.06    5.11
  -2  12  -3   10.18    7.06
  -2  12   4   41.60    7.91
  -2 -12  -4   44.24    8.51
   2 -12  -4   55.75    9.45
  -2  12   5    8.64    4.42
  -2 -12  -5    8.68    5.19
   2  12   5    1.58    4.54
   2 -12  -5    9.61    4.38
  -2  12   6    1.87    3.97
  -2 -12  -6    5.47    4.58
   2  12   6    1.78    4.26
   2 -12  -6    5.84    4.26
  -2  12   7   24.61    6.37
   2  12   7   42.49    8.31
   2 -12  -7   18.12    5.80
  -2  12   8    8.23    5.07
  -2 -12  -8    8.43    5.27
   2  12   8    3.28    4.62
   2 -12  -8    2.19    4.46
  -2  12   9    5.96    5.31
  -2 -12  -9    7.38    5.47
   2  12   9   15.81    6.53
   2 -12  -9    8.43    5.51
  -2 -12 -10    3.97    4.87
   2  12  10    0.97    4.70
   2 -12 -10    9.41    5.11
  -2 -12 -11   -1.34    4.46
   2  12  11   -2.35    4.01
  -2 -12 -12   10.87    5.19
   2  13   0  134.70   19.50
  -2 -13   0  115.11   17.27
   2 -13   0   81.01   13.14
  -2  13   0  111.42   16.50
   2 -13   1    8.60    6.12
  -2  13   1    4.01    4.74
   2  13  -1   -5.92    5.80
  -2 -13  -1   13.58    6.61
   2  13   1   21.29    7.01
  -2 -13   1    5.35    5.68
   2 -13  -1    6.77    5.15
  -2  13  -1   -0.41    5.31
   2 -13   2  164.14   22.91
  -2  13   2  149.58   20.35
   2  13   2  113.78   16.50
  -2 -13   2   96.06   15.25
   2 -13  -2  119.49   17.19
  -2  13  -2  172.04   23.96
   2 -13   3  103.76   16.30
  -2  13   3  100.03   14.64
  -2 -13  -3  178.98   24.29
   2  13   3  148.69   20.52
  -2  13  -3  157.73   22.30
  -2  13   4   78.18   12.00
  -2 -13  -4   50.16    9.29
   2  13   4   78.74   12.65
   2 -13  -4   81.38   12.61
  -2 -13  -5   63.86   11.15
   2  13   5   85.84   13.54
   2 -13  -5   92.73   13.62
  -2  13   6   52.59    9.33
  -2 -13  -6   30.57    7.50
   2  13   6   30.49    7.30
   2 -13  -6   43.30    8.39
  -2 -13  -7   74.49   12.45
   2  13   7   85.07   13.42
  -2  13   8   30.09    7.50
  -2 -13  -8   31.18    8.07
   2  13   8   20.48    6.73
   2 -13  -8   35.11    7.87
  -2  13   9    3.81    5.35
  -2 -13  -9    8.96    5.35
   2  13   9   12.53    5.68
   2 -13  -9    9.69    5.56
  -2  13  10    1.95    4.74
  -2 -13 -10   18.81    6.00
   2  13  10    8.64    4.74
   2 -13 -10    4.83    4.34
  -2 -13 -11   16.58    5.84
   2  13  11    1.95    4.58
  -2 -13 -12    4.18    4.95
   2  13  12    2.72    4.18
  -2 -13 -13    5.07    4.87
   2  14   0    6.73    5.84
  -2 -14   0    7.58    6.08
   2 -14   0    6.93    5.60
  -2  14   0    2.39    5.72
   2 -14   1    2.76    5.56
  -2  14   1   10.38    5.27
   2  14  -1    7.34    6.45
  -2 -14  -1   -2.23    5.56
   2  14   1   -1.62    5.60
  -2 -14   1   13.06    6.73
   2 -14  -1    1.46    4.95
  -2  14  -1    6.97    5.92
   2 -14   2    4.30    5.80
  -2  14   2    6.53    5.31
   2  14  -2   -1.74    5.76
  -2 -14  -2   10.26    6.00
   2  14   2    7.18    5.43
  -2 -14   2   10.46    7.22
   2 -14  -2   12.00    6.04
  -2  14  -2   -2.11    5.76
   2 -14   3   13.34    7.22
  -2  14   3    3.61    4.46
  -2 -14  -3    4.70    5.35
   2  14   3    3.89    5.19
   2 -14  -3    7.14    5.03
  -2  14  -3    4.18    6.41
  -2  14   4    7.66    4.74
  -2 -14  -4   -3.04    4.66
   2  14   4   10.10    5.84
   2 -14  -4   11.39    5.47
  -2  14   5    9.16    5.11
  -2 -14  -5   13.95    6.20
   2  14   5    8.47    6.24
   2 -14  -5    0.93    4.30
  -2  14   6   -1.99    4.66
  -2 -14  -6    6.53    5.72
   2  14   6    1.01    5.07
   2 -14  -6   -3.24    4.14
  -2  14   7    2.84    4.50
  -2 -14  -7    1.95    5.07
   2  14   7    5.19    5.11
   2 -14  -7    5.39    5.64
  -2  14   8   12.29    5.51
   2  14   8    5.07    4.78
  -2  14   9   -0.57    4.05
  -2 -14  -9    2.47    4.58
   2  14   9    0.04    4.50
   2 -14  -9    2.92    4.46
  -2  14  10    0.45    3.93
  -2 -14 -10   -1.22    3.65
   2  14  10   -0.45    3.81
   2 -14 -10    3.28    4.01
  -2  14  11    3.32    4.10
  -2 -14 -11   -0.73    3.73
   2  14  11   -3.28    3.69
   2 -14 -11    4.87    4.42
  -2 -14 -12   -0.12    4.22
   2  14  12    1.38    4.38
  -2 -14 -13    3.81    4.58
   2  14  13    0.65    4.26
   2  15   0   33.45    8.76
  -2 -15   0   16.87    7.18
   2 -15   0   15.12    6.41
  -2  15   0   23.15    7.50
   2 -15   1   14.80    6.81
  -2  15   1   10.83    5.72
   2  15  -1   13.66    7.18
  -2 -15  -1    1.42    5.76
   2  15   1    8.92    6.61
  -2 -15   1   16.58    7.26
   2 -15  -1    9.12    5.96
  -2  15  -1   26.80    7.83
   2 -15   2    3.12    6.65
  -2  15   2    1.87    5.15
   2  15  -2    9.61    6.69
  -2 -15  -2    9.69    6.41
   2  15   2    8.27    5.88
  -2 -15   2    4.26    6.57
   2 -15  -2    9.53    6.12
  -2  15  -2   15.45    7.54
   2 -15   3    6.41    7.10
  -2  15   3   -0.89    5.03
  -2 -15  -3    1.26    5.76
   2  15   3    7.01    5.76
   2 -15  -3    6.12    5.19
  -2  15  -3    9.53    7.06
  -2  15   4   18.98    6.20
  -2 -15  -4    6.00    5.88
   2  15   4    7.66    6.04
   2 -15  -4    9.00    5.76
  -2  15   5    4.18    5.19
  -2 -15  -5    6.00    5.72
   2  15   5   24.41    7.54
   2 -15  -5   12.73    5.64
  -2  15   6   10.30    5.60
  -2 -15  -6    3.77    5.76
   2  15   6    2.11    5.47
   2 -15  -6   -0.16    4.99
  -2  15   7   15.04    6.00
  -2 -15  -7    6.41    5.60
   2  15   7    5.43    5.35
   2 -15  -7   18.12    6.49
  -2  15   8   13.75    5.51
  -2 -15  -8    6.08    4.74
   2  15   8    3.00    4.62
   2 -15  -8    3.04    5.19
  -2  15   9    8.27    4.54
  -2 -15  -9   13.14    5.51
   2  15   9   14.03    5.27
   2 -15  -9    3.81    3.77
  -2  15  10    0.73    3.77
  -2 -15 -10    6.57    4.46
   2  15  10    2.68    3.93
   2 -15 -10    3.20    3.69
  -2  15  11   21.86    6.41
  -2 -15 -11    6.49    4.42
   2  15  11    4.42    4.22
  -2  15  12   -2.15    3.61
  -2 -15 -12    2.51    4.18
   2  15  12    2.27    4.30
   2 -15 -12    0.20    4.14
  -2 -15 -13    3.12    4.46
   2  15  13    4.62    4.54
  -2 -15 -14    4.10    4.87
   2  16   0   43.22   10.06
  -2 -16   0   54.90   11.35
   2 -16   0   67.39   12.37
  -2  16   0   50.97   10.83
   2 -16   1   -0.24    6.28
  -2  16   1    2.80    5.80
   2  16  -1   -0.53    6.69
  -2 -16  -1   -1.30    5.68
   2  16   1    3.28    7.06
  -2 -16   1   10.10    6.97
   2 -16  -1   -0.73    5.31
  -2  16  -1    8.84    6.37
   2 -16   2    3.28    6.45
  -2  16   2   14.23    6.49
   2  16  -2    9.85    6.97
  -2 -16  -2    7.54    6.77
   2  16   2    6.53    5.88
  -2 -16   2   -1.50    6.57
   2 -16  -2    6.93    6.12
  -2  16  -2    3.24    6.89
   2 -16   3   11.11    7.22
  -2  16   3    8.15    5.76
  -2 -16  -3   18.33    7.22
   2  16   3   20.40    7.26
   2 -16  -3    6.73    6.16
  -2  16  -3   25.71    8.51
  -2  16   4    4.18    5.19
   2 -16  -4    2.03    5.31
  -2  16  -4    4.22    6.65
  -2  16   5    7.38    5.19
  -2 -16  -5   13.50    6.49
   2  16   5   15.85    6.61
   2 -16  -5    2.92    5.03
  -2  16   6    1.42    4.91
  -2 -16  -6    8.56    5.60
   2  16   6    5.96    5.43
   2 -16  -6   10.26    5.11
  -2  16   7    8.11    4.83
  -2 -16  -7    1.78    4.91
   2  16   7   21.77    6.73
   2 -16  -7    5.80    4.83
  -2  16   8    0.57    3.89
  -2 -16  -8    5.64    4.50
   2  16   8    2.15    4.30
   2 -16  -8    2.27    4.22
  -2  16   9    5.47    4.22
  -2 -16  -9    7.10    4.58
   2  16   9   10.26    5.11
   2 -16  -9    0.08    3.61
  -2  16  10    8.03    4.66
  -2 -16 -10   -1.50    3.69
   2  16  10    2.96    3.77
   2 -16 -10    9.69    4.66
  -2  16  11   10.50    4.83
  -2 -16 -11    0.04    3.85
   2  16  11    7.10    4.54
   2 -16 -11    4.62    4.22
  -2  16  12    1.50    3.81
  -2 -16 -12    8.64    5.07
   2  16  12    4.46    4.50
   2 -16 -12    0.12    4.30
  -2 -16 -13    2.03    3.85
   2  16  13   -1.09    4.18
   2 -16 -13    6.24    4.50
  -2 -16 -15    0.45    6.08
   2  17   0   31.22    8.60
  -2 -17   0   37.43    9.33
   2 -17   0   21.86    7.70
  -2  17   0   39.86    9.81
   2 -17   1    9.89    6.93
  -2  17   1    8.47    5.92
   2  17  -1    7.91    7.01
  -2 -17  -1    5.80    6.49
   2  17   1   11.15    7.38
  -2 -17   1   -5.19    6.16
   2 -17  -1    4.58    5.76
  -2  17  -1   12.77    6.73
   2 -17   2    3.37    6.45
  -2  17   2   11.68    6.41
   2  17  -2   11.60    7.01
  -2 -17  -2   17.52    7.58
   2  17   2    7.38    6.45
  -2 -17   2   14.39    7.70
   2 -17  -2    1.22    6.24
  -2  17  -2   13.71    6.57
   2 -17   3    5.72    6.57
  -2  17   3    8.03    5.51
   2  17  -3    0.45    6.12
   2 -17  -3    4.46    5.76
  -2  17  -3    6.57    6.41
   2 -17   4    8.92    7.06
  -2  17   4    4.99    4.91
  -2 -17  -4   -0.77    5.68
   2  17   4   -0.12    5.88
   2 -17  -4   -1.74    5.15
  -2  17  -4   -2.88    6.04
  -2  17   5    6.93    5.03
  -2 -17  -5    3.12    4.70
   2  17   5   -3.04    4.46
   2 -17  -5    0.77    4.46
  -2  17   6    4.50    4.87
  -2 -17  -6    2.03    4.46
   2  17   6    9.24    5.11
   2 -17  -6   -1.91    4.26
  -2  17   7   -0.97    4.42
  -2 -17  -7   -1.38    4.54
   2  17   7    4.66    4.70
   2 -17  -7    4.26    4.66
  -2  17   8   -1.54    3.32
  -2 -17  -8   -0.20    3.77
   2  17   8   -2.35    4.05
   2 -17  -8    0.08    4.01
  -2  17   9    2.51    3.77
  -2 -17  -9    7.50    4.46
   2  17   9    0.85    4.05
   2 -17  -9    2.72    3.69
  -2  17  10    2.23    3.85
  -2 -17 -10    2.07    4.18
   2  17  10   -0.57    3.81
   2 -17 -10    0.85    3.45
  -2  17  11   -0.49    3.89
  -2 -17 -11    1.91    4.50
   2  17  11    2.27    3.85
   2 -17 -11   -0.12    3.37
  -2  17  12    1.38    4.10
  -2 -17 -12   -1.54    3.73
   2  17  12    0.16    3.97
   2 -17 -12    7.50    4.54
  -2  17  13    0.49    3.85
  -2 -17 -13   -0.93    4.14
   2  17  13    4.34    4.46
   2 -17 -13    2.23    4.30
  -2 -17 -14   -3.85    3.69
   2  17  14    3.93    4.26
   2  18   0   27.69    7.66
  -2 -18   0   16.26    7.06
   2 -18   0   25.54    7.91
  -2  18   0   28.75    8.35
   2 -18   1    2.96    5.88
  -2  18   1    2.51    5.39
   2  18  -1    2.72    5.88
  -2 -18  -1    1.70    5.23
   2  18   1    5.35    6.20
  -2 -18   1   -2.92    5.51
   2 -18  -1    2.51    5.56
  -2  18  -1    6.57    5.56
   2 -18   2   -0.89    6.08
  -2  18   2   15.81    6.37
  -2 -18  -2   21.37    7.70
   2  18   2   19.34    7.22
  -2 -18   2   33.90    9.65
   2 -18  -2   12.33    6.65
  -2  18  -2   10.91    5.88
   2 -18   3   -1.46    5.47
   2  18  -3    8.51    6.33
  -2 -18  -3   -3.61    5.88
   2  18   3    6.53    5.35
  -2 -18   3   15.21    7.50
  -2  18  -3   -1.30    5.64
   2 -18   4   11.88    6.89
  -2 -18  -4   16.79    6.33
   2  18   4   29.76    7.83
   2 -18  -4   47.04    9.77
  -2  18  -4   11.23    6.81
  -2  18   5    1.87    4.05
  -2 -18  -5    2.47    4.54
   2  18   5    2.11    4.66
   2 -18  -5    2.96    4.46
  -2  18   6    1.42    4.50
  -2 -18  -6    8.68    5.31
   2  18   6    1.18    4.66
   2 -18  -6    4.66    4.34
  -2  18   7   13.42    5.39
  -2 -18  -7    6.61    4.95
   2  18   7   13.79    6.04
   2 -18  -7   15.16    5.68
  -2  18   8   12.53    4.99
  -2 -18  -8   -1.38    4.01
   2  18   8    4.01    4.42
   2 -18  -8   11.27    5.07
  -2  18   9   18.49    5.72
  -2 -18  -9    4.18    4.30
   2  18   9   12.20    5.31
   2 -18  -9   10.99    5.11
  -2  18  10    9.61    4.91
  -2 -18 -10   -4.22    4.05
   2  18  10   -2.19    3.41
   2 -18 -10    5.23    4.78
  -2  18  11   -0.24    3.81
  -2 -18 -11   10.54    5.11
   2  18  11    0.53    3.97
   2 -18 -11    2.27    3.77
  -2  18  12    3.61    4.42
  -2 -18 -12    4.95    4.50
   2  18  12    5.72    4.62
   2 -18 -12    2.72    3.97
  -2  18  13   -0.04    3.73
  -2 -18 -13    5.92    4.54
   2  18  13    3.24    4.42
   2 -18 -13    5.47    4.95
  -2  18  14    6.61    5.35
  -2 -18 -14    1.30    4.99
   2  19   0   -2.55    4.66
  -2 -19   0    2.27    5.35
   2 -19   0    1.70    5.43
  -2  19   0    6.77    5.80
   2 -19   1    6.28    6.12
  -2  19   1    6.85    5.11
   2  19  -1    1.99    5.88
  -2 -19  -1    1.01    5.15
   2  19   1   -1.82    5.60
  -2 -19   1    1.58    5.80
   2 -19  -1    9.49    5.56
  -2  19  -1    7.14    5.31
   2 -19   2    0.12    5.19
  -2  19   2   -0.24    4.70
   2  19  -2    0.81    5.64
  -2 -19  -2    0.16    4.87
   2  19   2   -0.12    5.35
  -2 -19   2    1.91    6.45
   2 -19  -2   -0.41    4.83
  -2  19  -2    3.12    4.95
   2 -19   3   -4.78    5.64
  -2  19   3    2.15    4.70
   2  19  -3   -1.14    5.35
  -2 -19  -3    1.26    5.60
   2  19   3    5.15    5.03
  -2 -19   3    1.99    6.04
   2 -19  -3   -3.37    4.78
  -2  19  -3   -1.22    5.56
   2 -19   4   -1.05    6.16
  -2  19   4   -0.08    3.97
  -2 -19  -4   -7.10    4.62
   2  19   4    2.76    5.15
   2 -19  -4    0.97    4.87
  -2  19  -4   -3.61    5.60
  -2  19   5    4.14    4.18
  -2 -19  -5    3.53    4.91
   2  19   5   -0.41    4.01
   2 -19  -5   -1.74    4.22
  -2  19   6   -1.82    4.18
  -2 -19  -6   -0.04    3.97
   2  19   6   -2.55    3.77
   2 -19  -6    1.38    4.54
  -2  19   7    3.69    4.54
  -2 -19  -7    3.77    4.58
   2  19   7    0.85    4.01
   2 -19  -7    2.19    3.85
  -2  19   8    3.37    3.81
  -2 -19  -8    3.00    4.14
   2  19   8   -0.08    4.01
   2 -19  -8    1.05    4.46
  -2  19   9    3.08    3.93
  -2 -19  -9    1.18    4.14
   2  19   9    3.89    3.97
   2 -19  -9    1.30    4.42
  -2  19  10    0.12    3.57
  -2 -19 -10    1.34    3.97
   2  19  10   -1.18    3.57
   2 -19 -10    0.12    3.85
  -2  19  11    0.77    3.85
  -2 -19 -11   -1.50    3.77
   2  19  11    1.62    3.77
   2 -19 -11    1.87    3.77
  -2  19  12    0.36    4.10
  -2 -19 -12    1.18    4.30
   2  19  12    0.04    3.97
   2 -19 -12    1.46    3.81
  -2  19  13    1.70    4.14
  -2 -19 -13   -1.26    4.01
   2  19  13   -2.51    4.10
   2  20   0    7.26    4.99
  -2 -20   0    2.11    5.35
   2 -20   0   -1.54    5.03
  -2  20   0    1.46    5.43
   2 -20   1    2.27    5.60
  -2  20   1    1.46    4.66
   2  20  -1    9.29    5.39
  -2 -20  -1    2.07    5.19
   2  20   1   -0.97    5.11
  -2 -20   1    1.50    5.51
   2 -20  -1   -0.12    5.07
  -2  20  -1    1.26    4.46
   2 -20   2   -0.73    5.80
  -2  20   2    8.15    5.64
   2  20  -2   13.46    6.69
  -2 -20  -2    5.72    5.39
   2  20   2    7.99    5.72
  -2 -20   2   27.13    8.43
   2 -20  -2   16.46    6.73
  -2  20  -2    9.61    5.51
   2 -20   3   -1.34    5.51
  -2  20   3    3.04    4.42
   2  20  -3   13.46    6.49
  -2 -20  -3    7.91    5.39
   2  20   3    3.49    4.50
  -2 -20   3    3.85    5.96
   2 -20  -3   -3.57    4.74
  -2  20  -3    2.19    5.11
   2 -20   4    7.10    6.04
  -2  20   4    1.54    4.18
  -2 -20  -4   -0.08    4.95
   2  20   4   -4.30    4.46
   2 -20  -4    4.18    4.78
  -2  20  -4    3.61    5.43
  -2  20   5    0.69    4.58
  -2 -20  -5    5.43    4.87
   2  20   5    0.77    4.34
   2 -20  -5    1.78    4.42
  -2  20  -5    5.72    5.03
  -2  20   6   -1.99    3.85
  -2 -20  -6    0.41    4.10
   2  20   6   12.61    5.68
   2 -20  -6    2.23    3.89
  -2  20   7    6.61    4.74
  -2 -20  -7    7.46    4.74
   2  20   7    4.05    4.46
   2 -20  -7    8.72    4.74
  -2  20   8   -5.15    3.81
  -2 -20  -8    2.23    4.38
   2  20   8    5.47    4.62
   2 -20  -8    0.89    4.10
  -2  20   9   -1.18    3.61
  -2 -20  -9    3.57    4.58
   2  20   9    4.83    4.54
   2 -20  -9   -0.97    3.85
  -2  20  10    7.18    4.46
  -2 -20 -10   11.11    5.31
   2  20  10    7.74    4.83
   2 -20 -10    2.07    4.14
  -2  20  11    0.45    4.30
  -2 -20 -11    2.51    4.54
   2  20  11    3.08    4.22
   2 -20 -11   -0.49    4.05
  -2  20  12    2.51    4.34
  -2 -20 -12    5.19    4.50
   2  20  12    3.12    4.22
   2  21   0    9.04    5.23
  -2 -21   0    0.65    5.11
   2 -21   0    4.10    5.39
  -2  21   0    4.91    5.47
   2 -21   1    9.65    5.80
  -2  21   1    3.28    4.58
   2  21  -1    5.15    4.58
  -2 -21  -1   -1.14    4.74
   2  21   1    5.96    5.43
  -2 -21   1   -1.99    5.39
   2 -21  -1    7.10    5.27
  -2  21  -1    2.11    4.38
   2 -21   2   -3.73    4.95
  -2  21   2    2.23    4.34
   2  21  -2    5.31    5.27
  -2 -21  -2    2.19    4.99
   2  21   2   -2.11    4.91
  -2 -21   2   -1.82    4.91
   2 -21  -2    2.31    4.58
  -2  21  -2    0.97    4.54
   2 -21   3    0.69    4.99
  -2  21   3    3.73    4.83
   2  21  -3    4.66    5.56
  -2 -21  -3    2.92    4.99
   2  21   3    0.89    4.58
  -2 -21   3    1.38    5.88
   2 -21  -3   15.00    6.53
  -2  21  -3    2.15    4.83
   2 -21   4   -3.08    5.23
  -2  21   4    4.74    4.26
   2  21  -4    5.72    5.31
  -2 -21  -4   -1.22    4.42
   2  21   4   -2.03    4.05
   2 -21  -4    2.88    5.07
  -2  21  -4   -4.01    4.50
  -2  21   5    2.15    3.77
  -2 -21  -5    5.88    4.58
   2  21   5    4.18    4.50
   2 -21  -5    2.31    4.42
  -2  21  -5   18.04    7.06
  -2  21   6    2.60    3.97
  -2 -21  -6    3.93    3.97
   2  21   6    2.88    3.97
   2 -21  -6    3.49    4.50
  -2  21   7    4.62    4.83
  -2 -21  -7   -1.70    3.77
   2  21   7   -0.81    3.97
   2 -21  -7    3.49    3.85
  -2  21   8   -1.46    4.22
  -2 -21  -8    4.05    4.42
   2  21   8    1.70    3.81
   2 -21  -8   -0.85    3.97
  -2  21   9    2.84    4.18
  -2 -21  -9    4.74    4.83
   2  21   9    8.23    4.91
   2 -21  -9    8.39    4.70
  -2  21  10    0.85    3.81
  -2 -21 -10    8.19    4.91
   2  21  10    0.77    4.38
   2 -21 -10    1.42    3.89
  -2  21  11   -1.62    3.93
  -2 -21 -11    0.81    4.26
   2  21  11    2.80    4.50
   2  22   0   -0.49    3.89
  -2 -22   0    3.49    5.15
   2 -22   0    4.50    4.95
  -2  22   0    3.45    4.87
   2 -22   1    1.50    5.11
  -2  22   1    1.50    4.38
   2  22  -1    1.22    4.05
  -2 -22  -1    0.81    4.14
   2  22   1   -0.93    4.30
  -2 -22   1   -1.91    5.27
   2 -22  -1    2.64    4.91
  -2  22  -1    3.49    4.62
   2 -22   2    1.91    4.91
  -2  22   2    0.49    4.10
   2  22  -2   -1.74    4.74
  -2 -22  -2    5.23    4.58
   2  22   2    0.73    4.66
  -2 -22   2    2.03    4.95
   2 -22  -2    1.82    4.95
  -2  22  -2   -0.36    3.93
   2 -22   3    2.27    4.99
  -2  22   3    0.73    4.66
   2  22  -3    0.20    5.15
  -2 -22  -3    0.89    4.70
   2  22   3   -4.05    3.97
  -2 -22   3    2.96    6.04
   2 -22  -3    0.45    4.70
  -2  22  -3    1.58    4.78
   2 -22   4   -3.89    5.23
  -2  22   4    3.77    4.62
   2  22  -4    1.05    5.19
  -2 -22  -4    1.62    4.91
   2  22   4    9.37    4.91
   2 -22  -4   12.49    5.84
  -2  22  -4    2.31    4.70
   2 -22   5    5.76    5.68
  -2  22   5    1.95    3.93
  -2 -22  -5    1.99    4.66
   2  22   5    4.74    4.66
   2 -22  -5   -0.97    3.85
  -2  22  -5    5.19    5.03
  -2  22   6    6.73    4.54
  -2 -22  -6   -0.32    3.73
   2  22   6   -1.18    3.77
   2 -22  -6   -0.20    3.97
  -2  22   7    2.47    4.42
  -2 -22  -7   -0.65    3.77
   2  22   7   -1.14    3.65
   2 -22  -7    0.20    3.97
  -2  22   8   -1.26    3.81
  -2 -22  -8    6.04    4.54
   2  22   8    0.41    3.65
   2 -22  -8   -4.70    3.89
  -2  22   9    4.62    4.05
  -2 -22  -9    0.32    4.14
   2  22   9   -1.74    3.89
   2 -22  -9    7.38    4.91
  -2  22  10    4.91    3.93
  -2 -22 -10   -0.12    3.85
   2  22  10    1.46    4.10
  -2  22  11   -1.91    3.89
   2  22  11   -0.24    4.62
   2  23   0   -2.11    3.73
  -2 -23   0    0.89    4.87
   2 -23   0   -2.23    4.30
  -2  23   0   11.03    5.72
   2 -23   1   -2.96    4.30
  -2  23   1   -1.05    4.18
   2  23  -1    3.81    4.18
  -2 -23  -1    6.41    4.70
   2  23   1   -0.77    4.46
  -2 -23   1    3.53    5.03
   2 -23  -1    1.05    4.38
  -2  23  -1   -6.00    4.95
   2 -23   2   22.95    7.66
  -2  23   2    2.11    4.99
   2  23  -2    0.45    4.46
  -2 -23  -2    0.93    3.93
   2  23   2    2.47    4.62
  -2 -23   2    1.22    4.99
   2 -23  -2    0.00    4.38
  -2  23  -2    3.41    3.97
   2 -23   3   -4.10    4.10
  -2  23   3    2.76    4.50
   2  23  -3    3.85    4.50
  -2 -23  -3    2.88    4.74
   2  23   3    5.96    4.91
  -2 -23   3    0.69    5.15
   2 -23  -3   -4.83    4.91
  -2  23  -3   -1.26    4.38
   2 -23   4    2.07    5.31
  -2  23   4    4.83    4.66
   2  23  -4    1.46    4.58
  -2 -23  -4    5.11    4.78
   2  23   4    2.84    4.70
  -2 -23   4   -1.66    5.19
   2 -23  -4    2.80    4.95
  -2  23  -4    4.10    4.95
   2 -23   5   10.22    6.12
  -2  23   5    1.58    3.57
  -2 -23  -5    1.14    4.26
   2  23   5    0.36    4.38
   2 -23  -5    3.57    4.70
  -2  23  -5   10.14    6.41
  -2  23   6    3.20    3.85
  -2 -23  -6    3.00    4.10
   2  23   6    5.27    4.46
   2 -23  -6   -2.35    4.18
  -2  23   7    3.24    4.14
  -2 -23  -7    3.04    3.93
   2  23   7    1.78    3.57
   2 -23  -7    0.61    4.05
  -2  23   8    0.81    4.34
  -2 -23  -8    1.66    3.81
   2  23   8   -3.16    3.57
   2 -23  -8   -1.78    3.89
  -2  23   9    7.95    4.46
  -2 -23  -9    0.04    5.07
   2  23   9   -0.32    3.53
  -2  23  10    0.73    3.97
   2  23  10    1.14    4.42
   2  24   0   -0.53    3.81
  -2 -24   0    2.23    5.07
   2 -24   0    6.04    5.11
  -2  24   0   -1.42    4.58
   2 -24   1    3.00    4.74
  -2  24   1    0.65    4.46
   2  24  -1    0.36    3.57
  -2 -24  -1   -0.93    4.26
   2  24   1    0.28    4.30
  -2 -24   1   -0.49    4.74
   2 -24  -1    0.00    4.22
  -2  24  -1   -0.57    4.70
   2 -24   2    1.30    4.78
  -2  24   2    4.01    4.42
   2  24  -2    3.61    5.03
  -2 -24  -2    5.11    4.62
   2  24   2    2.39    4.74
  -2 -24   2    1.38    4.87
   2 -24  -2    4.46    4.46
  -2  24  -2   -0.77    4.22
   2 -24   3    4.38    5.35
  -2  24   3   -3.04    4.30
   2  24  -3   -1.34    4.87
  -2 -24  -3   -3.24    4.30
   2  24   3    3.97    5.23
  -2 -24   3    1.42    5.15
   2 -24  -3    1.99    4.62
  -2  24  -3    2.03    5.11
   2 -24   4    2.03    5.19
  -2  24   4    2.11    4.42
   2  24  -4    2.80    5.47
  -2 -24  -4    2.31    4.62
   2  24   4    5.43    4.46
  -2 -24   4   -4.95    5.31
   2 -24  -4   13.87    6.12
  -2  24  -4    2.07    5.03
   2 -24   5    1.87    5.80
  -2  24   5   -2.07    3.53
  -2 -24  -5    5.51    4.74
   2  24   5   -4.05    3.97
   2 -24  -5    0.53    4.22
  -2  24  -5    0.36    4.83
  -2  24   6   -1.50    3.73
  -2 -24  -6   -1.70    3.93
   2  24   6    2.27    4.14
   2 -24  -6    1.18    3.97
  -2  24  -6    1.42    4.74
  -2  24   7   -2.96    3.65
  -2 -24  -7    3.69    3.89
   2  24   7   -2.27    3.45
   2 -24  -7    0.20    4.66
  -2  24   8    1.18    4.38
   2  24   8   -2.92    3.69
   2  24   9    0.16    4.34
   2  25   0    6.33    5.23
  -2 -25   0   11.03    6.12
   2 -25   0    2.31    5.31
  -2  25   0    5.68    5.47
   2 -25   1    1.54    5.03
  -2  25   1   -2.55    3.97
   2  25  -1   -0.61    3.93
  -2 -25  -1    2.35    4.87
   2  25   1    4.87    4.91
  -2 -25   1   -1.95    4.78
   2 -25  -1    2.15    4.78
  -2  25  -1    1.09    4.74
   2 -25   2    1.14    5.39
  -2  25   2    5.80    4.78
   2  25  -2    4.42    5.35
  -2 -25  -2    4.62    5.15
   2  25   2    4.74    4.91
  -2 -25   2   -1.42    5.23
   2 -25  -2    6.53    5.39
  -2  25  -2    1.09    4.78
   2 -25   3    9.16    6.28
  -2  25   3   -0.24    4.78
   2  25  -3    3.97    4.95
  -2 -25  -3    3.12    4.66
   2  25   3    9.93    5.56
  -2 -25   3    2.15    6.33
   2 -25  -3    8.68    5.03
  -2  25  -3    8.35    5.76
   2 -25   4    0.77    5.07
  -2  25   4   -1.22    4.01
   2  25  -4    1.99    5.27
  -2 -25  -4    4.74    5.19
   2  25   4    2.60    4.26
  -2 -25   4   -3.97    4.74
   2 -25  -4    1.46    4.78
  -2  25  -4   -2.31    5.23
   2 -25   5    3.20    5.47
  -2  25   5   -1.18    3.77
   2  25  -5   -2.76    4.99
  -2 -25  -5    0.12    4.10
   2  25   5    0.28    3.93
   2 -25  -5    2.64    4.50
  -2  25  -5    2.64    4.78
  -2  25   6    4.30    4.54
   2  25   6    0.65    4.01
  -2  25  -6    9.49    5.64
  -2  25   7    4.14    4.05
   2  25   7    6.41    4.58
   2  26   0   15.00    6.16
  -2 -26   0    4.01    5.07
   2 -26   0    9.24    5.92
  -2  26   0    7.66    5.84
   2 -26   1    1.42    4.95
  -2  26   1   -1.01    4.18
   2  26  -1    6.28    4.66
  -2 -26  -1    0.49    4.30
   2  26   1   -0.53    4.34
  -2 -26   1    1.18    4.66
   2 -26  -1    2.96    4.62
  -2  26  -1    0.97    4.34
   2 -26   2    1.38    4.58
  -2  26   2    5.47    4.91
   2  26  -2    4.66    4.62
  -2 -26  -2   -1.14    4.74
   2  26   2    3.65    4.62
  -2 -26   2    3.81    5.35
   2 -26  -2    0.77    4.58
  -2  26  -2    6.93    4.95
   2 -26   3    2.31    5.27
  -2  26   3    3.73    4.22
   2  26  -3   10.79    6.00
   2  26   3    3.08    4.66
  -2 -26   3   -1.91    5.39
   2 -26  -3   -0.20    4.46
  -2  26  -3    4.18    5.07
   2 -26   4    0.97    5.43
  -2  26   4    7.87    4.87
   2  26  -4   -2.76    4.30
   2  26   4   -2.76    3.69
  -2 -26   4    5.31    5.88
  -2  26  -4   -3.04    4.30
   2 -26   5    7.46    5.76
  -2  26   5    2.96    4.18
   2  26  -5    1.38    4.58
   2  26   5    4.87    4.42
  -2  26  -5   -3.41    4.46
   2  26   6   -4.83    4.83
   2  27   0   -2.72    3.89
  -2  27   0   -1.42    4.42
   2 -27   1    0.57    4.70
  -2  27   1    3.69    4.46
   2  27  -1   -1.30    3.53
   2  27   1    2.76    4.95
  -2  27  -1    0.89    4.62
   2 -27   2    2.23    4.70
  -2  27   2   -2.84   74.36
   2  27  -2    1.66    4.46
   2  27   2    5.47    4.42
  -2  27  -2    0.41    4.05
   2 -27   3   -1.14    5.11
  -2  27   3   -1.66    4.14
   2  27  -3    2.27    5.23
   2  27   3    4.70    5.07
  -3  -1  -1   37.83    6.65
  -3   1  -1   22.10    3.65
  -3  -1  -2 1507.15  181.29
   3   1   2 1719.21  206.71
   3  -2   0    7.54    3.32
  -3   2   0    9.89    3.53
   3  -2   1  652.81   78.86
   3   2   1  924.89  111.87
  -3  -2  -2   71.16   10.34
   3   2   2   63.17    9.29
  -3  -2  -3 1606.08  193.37
   3   2   3 1625.55  195.68
   3  -3   0    3.00    4.14
  -3   3   0    4.22    4.14
   3  -3   1  199.13   25.26
  -3   3   1  265.42   32.68
  -3  -3  -1  222.04   28.42
   3   3   1  217.17   28.02
   3  -3  -1  298.55   36.70
  -3  -3  -2  742.83   90.06
   3   3   2  982.46  118.84
  -3  -3  -3  342.26   42.09
   3   3   3  290.04   35.84
  -3  -3  -4  203.30   25.63
   3   3   4  195.56   24.69
   3  -4   0    3.08    5.27
  -3   4   0    1.26    4.70
  -3   4   1   60.94    9.16
   3  -4  -1   46.75    7.95
  -3   4  -1   73.51   11.39
  -3   4   2    2.76    4.54
  -3  -4  -2   21.33    6.57
   3   4   2    1.14    5.31
   3  -4  -2   -2.76    4.70
  -3  -4  -3  386.26   47.44
   3   4   3  339.63   41.89
  -3  -4  -4   18.81    5.07
   3   4   4   18.81    5.19
  -3  -4  -5   33.45    6.89
   3   5   0    4.83    7.58
  -3  -5   0    6.53    7.83
   3  -5   0   -2.15    4.91
  -3   5   0   -4.91    4.91
  -3   5   1  146.01   18.85
   3  -5  -1  171.64   21.94
  -3   5   2 4752.16  571.31
  -3  -5  -2 3975.27  478.05
   3   5   2 3473.70  418.04
   3  -5  -2 4679.18  562.39
  -3  -5  -3    2.19    5.96
   3   5   3   -4.95    5.92
  -3  -5  -4 1695.69  204.60
   3   5   4 1714.35  206.79
  -3  -5  -5  180.60   23.31
   3   5   5  238.99   30.65
  -3  -5  -6 1254.13  151.85
   3   6   0   -2.55    7.58
  -3  -6   0    5.11    7.34
   3  -6   0   10.18    5.51
  -3   6   0   -1.95    5.03
  -3   6   1  106.03   14.76
   3  -6  -1   92.16   13.46
   3  -6   2    3.53    6.08
  -3   6   2    6.73    4.70
  -3  -6  -2   11.60    6.53
   3   6   2   -1.26    6.28
   3  -6  -2   -0.24    4.66
  -3   6  -2   -2.19    6.28
  -3   6   3  331.23   40.99
  -3  -6  -3  372.23   46.95
   3   6   3  387.35   48.21
   3  -6  -3  321.26   39.78
  -3  -6  -4   -1.05    5.07
   3   6   4    6.77    5.07
  -3  -6  -5   76.07   11.60
   3   6   5   75.99   11.27
  -3  -6  -6    7.01    4.66
   3   6   6    4.34    4.62
   3   7   0   10.14    7.06
  -3  -7   0   10.18    7.83
   3  -7   0    3.73    6.20
  -3   7   0    6.69    5.60
   3  -7   1   86.69   14.43
  -3  -7  -1  103.60   15.65
   3   7   1   84.74   14.03
  -3   7  -1   59.97   10.75
   3  -7   2  154.49   20.92
  -3   7   2  147.03   19.26
  -3  -7  -2  122.45   17.27
   3   7   2  118.32   16.87
   3  -7  -2  179.83   23.19
  -3   7  -2  171.35   22.87
  -3   7   3   70.19   10.42
  -3  -7  -3   50.72    9.77
   3   7   3   50.64    9.69
   3  -7  -3   83.77   11.96
  -3   7   4  213.56   27.21
  -3  -7  -4  200.30   26.23
   3   7   4  208.54   27.00
   3  -7  -4  250.58   31.63
  -3  -7  -5   16.14    5.31
   3   7   5   36.21    7.54
  -3  -7  -7    0.53    4.34
   3   7   7    2.39    3.81
   3   8   0    4.91    6.73
  -3  -8   0   -3.77    6.69
   3  -8   0    2.55    5.72
  -3   8   0    6.08    6.24
  -3   8   1  439.13   54.33
   3   8   1  649.16   79.96
   3  -8  -1  482.51   59.69
   3  -8   2    1.42    6.41
  -3   8   2   -1.01    4.83
  -3  -8  -2    1.46    6.00
   3   8   2    3.73    5.76
   3  -8  -2    8.68    5.51
  -3   8  -2   29.15    7.87
  -3   8   3  192.52   24.77
  -3  -8  -3  174.19   23.40
   3   8   3  234.89   30.49
   3  -8  -3  164.34   21.49
  -3   8   4  667.01   81.46
  -3  -8  -4  819.06  100.07
   3   8   4  769.59   94.07
   3  -8  -4  663.76   81.05
  -3   8   5  313.63   39.33
   3   8   5  217.98   28.02
   3  -8  -5  237.89   30.33
  -3  -8  -6   13.14    4.99
   3   8   6    2.27    4.01
  -3  -8  -7   38.80    7.50
   3   8   7   56.69    9.37
   3   9   0    2.68    6.73
  -3  -9   0   -6.20    6.12
   3  -9   0    2.11    5.60
  -3   9   0    3.69    5.39
   3  -9   1   45.21    9.69
  -3   9   1   13.54    6.65
   3   9  -1   16.75    7.50
  -3  -9  -1   20.72    7.74
   3  -9  -1    6.04    6.08
  -3   9  -1   24.33    7.95
   3  -9   2   10.54    6.24
  -3   9   2   11.03    6.41
  -3  -9  -2   13.06    6.37
   3   9   2    6.93    6.20
   3  -9  -2    6.20    5.07
  -3   9  -2   21.37    7.42
  -3   9   3    6.73    4.70
  -3  -9  -3    3.69    5.80
   3   9   3   15.73    6.89
   3  -9  -3   12.16    4.78
  -3   9   4   16.02    6.04
  -3  -9  -4    4.87    5.19
   3   9   4   21.65    6.93
   3  -9  -4   15.85    5.15
  -3   9   5    7.06    4.66
  -3  -9  -5   13.30    4.99
   3   9   5    6.00    5.35
   3  -9  -5    7.62    4.34
  -3   9   6   27.82    6.57
  -3  -9  -6   31.38    6.81
   3   9   6   29.72    6.53
   3  -9  -6   22.34    5.88
  -3  -9  -7    4.66    4.18
   3   9   7    6.61    4.26
  -3  -9  -8    4.34    4.10
   3   9   8   12.08    4.87
  -3  -9  -9    1.74    4.99
   3   9   9    0.16    4.50
   3  10   0   12.04    7.01
  -3 -10   0    2.31    6.57
   3 -10   0    4.70    5.56
  -3  10   0    1.22    5.47
  -3  10   1  180.56   24.09
  -3 -10  -1  171.39   23.56
  -3 -10   1  106.15   16.58
   3 -10   2    6.04    6.00
  -3  10   2   16.46    6.69
  -3 -10  -2    1.87    5.39
   3  10   2   -7.42    5.39
   3 -10  -2   -0.85    4.87
  -3  10  -2    2.88    6.53
  -3  10   3 1248.46  151.32
  -3 -10  -3  834.87  102.14
   3  10   3 1138.17  138.47
   3 -10  -3 1169.39  141.92
  -3  10  -3  984.49  120.30
  -3  10   4  136.00   18.45
  -3 -10  -4  108.63   15.73
   3  10   4  131.94   18.37
   3 -10  -4  160.45   21.17
  -3  10   5  361.72   45.25
  -3 -10  -5  333.66   42.17
   3  10   5  353.37   44.44
   3 -10  -5  328.03   41.12
  -3  10   6   11.19    4.91
  -3 -10  -6    8.68    4.50
   3  10   6    6.37    4.38
   3 -10  -6    8.39    4.42
  -3  10   7  114.63   16.06
  -3 -10  -7  115.68   16.38
   3  10   7   88.64   13.14
   3 -10  -7  133.93   18.49
  -3 -10  -8    5.31    4.26
   3  10   8    6.85    4.62
  -3 -10  -9   12.00    6.00
   3  10   9   18.94    6.33
  -3 -10 -10    3.97    5.15
   3  10  10    6.81    5.43
   3  11   0    2.31    6.85
  -3 -11   0   -2.27    6.49
   3 -11   0    3.41    5.19
  -3  11   0    1.34    5.19
   3 -11   1   39.61    9.45
  -3 -11  -1   27.49    8.39
   3  11   1   52.95   11.19
   3 -11  -1   54.98   10.02
  -3  11  -1   79.92   13.87
  -3 -11  -2   55.39   10.18
   3  11   2   44.68    9.08
   3 -11  -2   38.40    7.83
  -3  11  -2   68.69   12.49
   3 -11   3    4.42    6.41
  -3  11   3    1.22    4.22
  -3 -11  -3   20.64    6.53
   3  11   3   12.53    6.00
   3 -11  -3    8.88    4.87
  -3  11  -3    0.69    6.12
  -3  11   4   42.09    7.62
   3 -11  -4   38.80    7.38
  -3  11   5    5.03    3.93
  -3 -11  -5    7.46    4.99
   3  11   5   -2.80    4.10
   3 -11  -5    7.34    4.22
  -3  11   6   14.92    5.15
  -3 -11  -6   30.90    6.97
   3  11   6   24.29    6.24
   3 -11  -6   12.12    4.54
  -3  11   7   -0.16    4.30
  -3 -11  -7    4.95    4.38
   3  11   7    5.56    4.54
   3 -11  -7   -1.99    4.30
  -3  11   8   24.77    6.53
  -3 -11  -8   11.47    5.47
   3  11   8    6.85    5.27
   3 -11  -8   18.49    6.28
  -3 -11  -9   -0.81    4.66
   3  11   9    8.19    5.35
  -3 -11 -10    9.69    5.56
   3  11  10    6.12    5.31
  -3 -11 -11    2.15    4.66
   3  11  11   -0.32    4.54
   3  12   0    0.85    6.08
  -3 -12   0    0.12    6.49
   3 -12   0    7.26    5.76
  -3  12   0   -1.99    4.91
   3 -12   1   52.55   10.50
  -3  12   1   52.95    9.81
   3  12  -1   68.44   12.57
  -3 -12  -1   52.71   10.42
   3  12   1   46.55   10.10
  -3 -12   1   56.12   11.52
   3 -12  -1  117.10   16.99
  -3  12  -1   86.16   14.48
   3 -12   2   14.64    6.53
  -3  12   2   24.45    6.33
  -3 -12  -2   12.57    5.92
   3  12   2   16.18    6.16
   3 -12  -2   29.11    7.06
  -3  12  -2   21.37    7.22
   3 -12   3   71.08   12.69
  -3  12   3   79.68   12.12
  -3 -12  -3   87.30   13.66
   3  12   3   69.46   11.64
   3 -12  -3   78.09   12.20
  -3  12  -3   68.28   12.04
  -3  12   4  120.06   16.54
  -3 -12  -4  130.68   18.37
   3  12   4  123.35   17.52
   3 -12  -4  135.06   18.57
  -3  12   5   44.16    7.91
  -3 -12  -5   69.05   11.52
   3  12   5   44.24    8.68
   3 -12  -5   59.04    9.57
  -3  12   6    5.76    4.50
  -3 -12  -6    1.66    4.42
   3  12   6    1.46    4.34
   3 -12  -6    3.57    4.05
  -3  12   7   -5.68    4.70
  -3 -12  -7    3.24    4.42
   3  12   7    4.66    4.87
   3 -12  -7   -1.91    4.22
  -3  12   8   23.19    6.49
  -3 -12  -8   22.87    6.81
   3  12   8   23.84    6.77
   3 -12  -8   19.38    6.53
  -3 -12  -9    1.82    4.99
   3  12   9   -0.61    4.91
   3 -12  -9    2.43    5.15
  -3 -12 -10   20.23    6.49
   3  12  10    6.89    5.51
  -3 -12 -11    1.91    4.38
   3  12  11    3.08    4.38
  -3 -12 -12    3.65    4.50
   3  13   0    0.93    5.23
  -3 -13   0    4.01    6.20
   3 -13   0    0.04    4.91
  -3  13   0   -3.57    4.78
   3 -13   1   71.61   12.77
  -3  13   1   84.66   13.14
   3  13  -1   44.44    9.93
  -3 -13  -1   58.31   11.15
  -3 -13   1   43.10    9.73
   3 -13  -1   54.82   10.10
  -3  13  -1   37.99    9.29
  -3 -13  -2   51.25   10.22
   3  13   2   93.71   14.52
   3 -13  -2   78.58   12.49
  -3  13  -2  100.31   15.98
   3 -13   3  239.92   31.83
  -3  13   3  209.79   27.53
  -3 -13  -3  195.72   26.27
   3  13   3  321.46   41.16
   3 -13  -3  224.75   29.56
  -3  13  -3  281.44   36.78
  -3  13   4    0.89    4.01
  -3 -13  -4    5.27    5.19
   3  13   4    3.65    5.07
   3 -13  -4    2.80    4.62
  -3  13   5  106.60   15.04
  -3 -13  -5   95.45   14.88
   3  13   5  117.83   17.35
   3 -13  -5   94.76   13.79
  -3  13   6    7.99    4.78
  -3 -13  -6    6.61    5.84
   3  13   6    9.37    5.43
   3 -13  -6    9.93    4.83
  -3  13   7   12.45    5.56
  -3 -13  -7   19.75    6.77
   3  13   7   33.98    7.83
   3 -13  -7    7.99    4.78
  -3  13   8    5.80    4.83
  -3 -13  -8   12.41    6.00
   3  13   8    3.93    5.19
   3 -13  -8    5.07    5.56
  -3  13   9   23.03    6.77
  -3 -13  -9   28.50    7.50
   3  13   9   54.90   10.66
   3 -13  -9   33.25    8.11
  -3 -13 -10    3.16    3.93
   3  13  10    1.66    4.10
   3 -13 -10    4.95    4.74
  -3 -13 -11    7.62    4.91
   3  13  11    6.45    4.70
  -3 -13 -12    0.45    4.18
   3  13  12    5.23    4.74
  -3 -13 -13    2.15    4.58
   3  14   0   -2.84    5.07
  -3 -14   0    5.96    6.57
   3 -14   0    0.08    5.07
  -3  14   0   -2.35    5.03
   3 -14   1   31.22    8.68
  -3  14   1    1.38    4.87
   3  14  -1    5.76    7.10
  -3 -14   1   -4.42    6.41
   3 -14  -1    6.16    5.31
   3 -14   2   -3.08    5.51
  -3  14   2   -3.77    4.38
   3  14  -2   -0.65    6.57
  -3 -14  -2    1.82    5.15
   3  14   2    3.77    5.23
  -3 -14   2    4.74    6.28
   3 -14  -2    0.12    4.95
  -3  14  -2   -7.14    5.47
   3 -14   3   14.48    7.26
  -3  14   3   25.50    6.69
  -3 -14  -3   26.76    7.30
   3  14   3   23.56    7.26
   3 -14  -3   26.92    7.14
  -3  14  -3    8.23    6.89
  -3  14   4    3.45    4.38
  -3 -14  -4    0.77    5.51
   3  14   4    7.62    6.20
   3 -14  -4    1.18    4.54
  -3  14   5   65.61   10.66
  -3 -14  -5   39.78    9.08
   3  14   5   58.35   10.91
   3 -14  -5   74.40   11.60
  -3  14   6   -5.88    4.42
  -3 -14  -6    2.88    5.80
   3  14   6   -9.00    5.47
   3 -14  -6   -3.69    4.26
  -3  14   7    3.69    5.35
  -3 -14  -7    4.87    5.35
   3  14   7    1.46    5.39
   3 -14  -7    1.70    4.78
  -3  14   8    3.97    5.07
  -3 -14  -8    9.53    5.56
   3  14   8   12.53    5.72
   3 -14  -8   12.16    5.60
  -3  14   9    7.38    5.03
  -3 -14  -9   24.65    6.73
   3  14   9    2.15    4.05
   3 -14  -9   10.95    5.23
  -3  14  10    4.38    4.22
  -3 -14 -10   -1.05    3.85
   3  14  10    1.70    4.18
   3 -14 -10    0.97    3.97
  -3 -14 -11    3.04    4.14
   3  14  11   11.68    5.07
   3 -14 -11    4.46    4.10
  -3 -14 -12    1.74    5.51
   3  14  12    0.93    4.26
  -3 -14 -13   10.26    5.47
   3  14  13    1.46    4.38
  -3 -14 -14    0.93    4.26
   3  15   0    4.34    6.16
  -3 -15   0    2.35    6.04
   3 -15   0    4.30    5.47
  -3  15   0   -0.16    5.23
   3 -15   1   23.11    8.23
  -3  15   1   14.52    6.33
  -3 -15  -1   16.06    7.95
   3  15   1   19.22    7.95
  -3  15  -1   40.63    9.85
   3 -15   2    0.41    5.88
  -3  15   2   22.18    7.18
   3  15  -2    7.95    7.01
   3  15   2    1.78    5.68
  -3 -15   2   23.03    8.35
  -3  15  -2    5.47    5.68
   3 -15   3   42.41   10.22
  -3  15   3   21.77    6.53
  -3 -15  -3   23.11    7.30
   3  15   3   25.91    7.91
   3 -15  -3   25.30    7.30
  -3  15  -3   30.45    8.84
  -3  15   4   34.47    7.79
   3 -15  -4   45.37    9.08
  -3  15   5   25.06    6.89
  -3 -15  -5   25.91    8.15
   3  15   5    7.14    5.96
   3 -15  -5   19.91    6.45
  -3  15   6    9.85    5.07
  -3 -15  -6   32.84    8.47
   3 -15  -6   16.38    5.84
  -3  15   7   -1.18    4.46
  -3 -15  -7    0.49    5.07
   3  15   7    1.54    5.15
   3 -15  -7   -1.26    4.30
  -3  15   8    9.69    5.19
  -3 -15  -8    5.03    4.62
   3  15   8    8.43    5.23
   3 -15  -8    5.56    4.70
  -3  15   9    0.04    4.05
  -3 -15  -9    0.49    4.14
   3  15   9   -0.24    3.97
   3 -15  -9    3.97    4.14
  -3  15  10    4.54    4.01
  -3 -15 -10   16.83    5.80
   3  15  10   23.36    6.57
   3 -15 -10   10.58    4.70
  -3  15  11    6.37    4.30
  -3 -15 -11    1.82    3.89
   3  15  11    0.36    3.93
   3 -15 -11    0.97    3.81
  -3 -15 -12    7.42    4.87
   3  15  12   27.13    8.03
   3 -15 -12    3.53    4.78
  -3 -15 -13    4.78    4.87
   3  15  13    3.53    4.30
  -3 -15 -14    8.60    4.95
   3  15  14    8.84    4.99
  -3 -15 -15    2.11    4.58
   3  16   0   -2.64    6.20
  -3 -16   0    3.41    6.69
   3 -16   0    1.66    5.47
  -3  16   0    4.18    5.64
  -3  16   1   84.95   14.23
   3  16  -1   97.44   16.50
  -3 -16  -1  106.88   17.52
  -3 -16   1   78.62   13.83
   3 -16  -1   87.83   14.52
  -3  16  -1  125.94   19.26
   3 -16   2   20.15    8.27
  -3  16   2   22.18    7.42
   3  16  -2   41.36   10.06
  -3 -16  -2   19.58    7.46
   3  16   2   28.55    8.23
  -3 -16   2   17.44    7.99
   3 -16  -2   50.89   10.26
  -3  16  -2   41.52    9.61
   3 -16   3   39.37    9.49
  -3 -16  -3   41.36    9.45
   3  16   3   39.17    9.20
   3 -16  -3   19.87    7.26
  -3  16  -3   27.00    8.43
   3 -16   4    3.41    7.42
  -3  16   4   11.60    5.56
  -3 -16  -4    3.37    5.96
   3  16   4    1.18    6.20
   3 -16  -4    8.76    5.92
  -3  16  -4    9.37    7.01
  -3  16   5    5.64    5.11
  -3 -16  -5   12.49    6.57
   3  16   5    1.70    5.39
   3 -16  -5   12.89    5.84
  -3  16   6    0.81    4.42
  -3 -16  -6   -3.85    5.15
   3  16   6   -0.61    5.07
   3 -16  -6    3.89    4.62
  -3  16   7    3.53    4.58
  -3 -16  -7    3.08    5.03
   3  16   7    6.04    5.03
   3 -16  -7    1.82    4.10
  -3  16   8   -4.10    4.38
  -3 -16  -8   -0.81    3.89
   3  16   8    4.83    4.58
   3 -16  -8   -2.07    4.01
  -3  16   9    1.66    3.49
  -3 -16  -9    7.01    4.50
   3  16   9    9.73    4.83
   3 -16  -9    8.60    4.78
  -3  16  10    9.16    4.70
  -3 -16 -10    1.26    3.77
   3  16  10    6.41    4.18
   3 -16 -10   -0.08    3.08
  -3  16  11    4.10    4.18
  -3 -16 -11   25.34    7.18
   3  16  11    4.83    4.42
  -3  16  12    3.04    4.05
  -3 -16 -12    0.49    3.73
   3  16  12   -2.07    3.85
   3 -16 -12   -1.70    3.85
  -3 -16 -13   -2.43    3.73
   3  16  13   -3.28    3.77
   3 -16 -13   -0.85    3.93
  -3 -16 -14    2.39    4.58
   3  16  14    4.38    4.78
   3  17   0    0.77    6.20
  -3 -17   0    1.34    6.69
   3 -17   0    2.55    6.20
  -3  17   0   -2.72    5.68
   3 -17   1   -0.65    6.69
  -3  17   1    6.69    5.76
   3  17  -1    4.91    7.06
  -3 -17  -1   -1.05    7.14
   3  17   1    4.05    6.85
  -3 -17   1   -0.20    6.20
   3 -17  -1    1.30    5.39
  -3  17  -1    1.01    6.77
   3 -17   2   -2.19    5.92
  -3  17   2    8.88    6.37
   3  17  -2    2.43    6.57
  -3 -17  -2    5.15    6.00
   3  17   2    1.99    5.80
  -3 -17   2   -1.95    6.53
   3 -17  -2    1.66    5.88
  -3  17  -2   -0.16    5.31
   3 -17   3   -2.43    5.76
  -3  17   3    4.22    5.03
  -3 -17  -3   -0.89    5.72
   3  17   3   -0.28    5.27
   3 -17  -3    4.87    5.60
  -3  17  -3   -1.42    5.64
   3 -17   4    0.24    6.24
  -3  17   4   11.31    5.92
   3  17   4   27.78    8.27
   3 -17  -4    4.26    5.76
  -3  17  -4   17.11    7.46
  -3  17   5    4.58    4.74
  -3 -17  -5   -2.76    4.74
   3  17   5    7.06    5.51
   3 -17  -5    8.27    5.43
  -3  17   6    1.38    4.38
  -3 -17  -6   26.03    7.46
   3  17   6   15.69    6.41
   3 -17  -6    2.43    3.97
  -3  17   7   -2.19    3.61
  -3 -17  -7    4.83    5.15
   3  17   7    2.43    4.42
   3 -17  -7    0.04    4.01
  -3  17   8    4.30    3.93
  -3 -17  -8    0.61    3.97
   3  17   8    2.47    4.22
   3 -17  -8   -2.23    3.81
  -3  17   9   -0.36    3.53
  -3 -17  -9   -0.65    3.77
   3  17   9    1.62    3.81
   3 -17  -9    5.68    4.62
  -3  17  10    0.61    3.73
  -3 -17 -10   -0.12    3.65
   3  17  10    3.37    3.89
   3 -17 -10    1.14    3.61
  -3  17  11    1.54    3.69
  -3 -17 -11    4.14    4.18
   3  17  11   -0.85    3.49
   3 -17 -11    6.04    4.18
  -3  17  12   -0.04    3.73
  -3 -17 -12    3.04    4.26
   3  17  12    1.87    4.10
   3 -17 -12    8.19    4.66
  -3  17  13   -3.32    3.65
  -3 -17 -13   -1.54    3.89
   3  17  13    2.39    4.18
   3 -17 -13    1.09    4.05
  -3 -17 -14   -2.03    3.53
   3  17  14   -2.84    3.93
   3  18   0   10.58    6.61
  -3 -18   0    9.97    6.45
   3 -18   0   -2.43    5.27
  -3  18   0    4.91    5.56
   3 -18   1   28.87    8.64
  -3  18   1    4.05    5.23
   3  18  -1    1.22    6.37
   3  18   1   25.26    8.35
  -3 -18   1    0.53    5.47
   3 -18  -1   11.76    6.37
   3 -18   2   -4.05    5.60
  -3  18   2    8.23    5.80
   3  18  -2    7.46    6.00
  -3 -18  -2    2.19    5.88
   3  18   2    7.30    5.96
  -3 -18   2    8.96    6.81
   3 -18  -2    8.88    5.84
  -3  18  -2    3.45    5.35
   3 -18   3   10.58    6.04
  -3  18   3    5.19    4.95
   3  18  -3    1.38    6.00
  -3 -18  -3    3.85    5.64
   3  18   3   27.41    7.62
   3 -18  -3    6.04    5.47
  -3  18  -3    2.31    5.47
   3 -18   4   48.62   10.38
  -3  18   4   69.21   11.88
  -3 -18  -4   48.70    9.89
   3  18   4   25.34    7.74
   3 -18  -4   63.70   11.68
  -3  18  -4   42.49   10.02
  -3  18   5    2.19    4.10
  -3 -18  -5    5.64    4.95
   3  18   5    3.65    5.03
   3 -18  -5    2.31    4.62
  -3  18   6    9.57    5.15
  -3 -18  -6    1.46    4.50
   3  18   6   -0.89    4.54
   3 -18  -6   15.53    5.60
  -3  18   7    2.47    4.18
  -3 -18  -7    5.84    4.74
   3  18   7    4.83    4.74
   3 -18  -7    5.19    4.46
  -3  18   8    0.73    3.81
  -3 -18  -8   -1.05    4.14
   3  18   8   -0.65    4.14
   3 -18  -8   -0.97    3.65
  -3  18   9    0.97    3.81
  -3 -18  -9    2.88    4.14
   3  18   9    0.32    3.73
   3 -18  -9    9.33    5.27
  -3  18  10    3.61    4.62
  -3 -18 -10   13.30    5.47
   3  18  10    3.81    3.93
   3 -18 -10   11.88    5.35
  -3  18  11    4.50    4.10
  -3 -18 -11    5.27    4.58
   3  18  11    9.73    4.91
   3 -18 -11    5.47    3.89
  -3  18  12    2.72    4.05
  -3 -18 -12    4.22    4.62
   3  18  12    0.53    3.97
   3 -18 -12    4.99    4.18
  -3  18  13   -1.38    3.89
  -3 -18 -13    7.22    4.95
   3  18  13    4.05    4.50
   3 -18 -13    0.45    4.14
   3  19   0   -0.85    5.35
  -3 -19   0    2.15    5.43
   3 -19   0    3.81    5.31
  -3  19   0    7.10    5.84
   3 -19   1   11.96    6.93
  -3  19   1    3.45    4.70
   3  19  -1    5.72    6.45
  -3 -19  -1    4.14    6.57
   3  19   1   15.49    7.18
  -3 -19   1   10.14    6.49
   3 -19  -1    0.24    5.07
  -3  19  -1    8.60    6.33
   3 -19   2    2.47    5.43
  -3  19   2    3.57    4.99
   3  19  -2    0.16    5.92
  -3 -19  -2    0.93    5.51
   3  19   2    5.51    5.31
  -3 -19   2    5.51    6.24
   3 -19  -2   -0.81    5.11
  -3  19  -2   -1.87    4.46
   3 -19   3    6.69    5.92
  -3  19   3    1.62    4.42
   3  19  -3    1.01    5.68
  -3 -19  -3   -0.77    4.87
   3  19   3   -1.01    4.54
  -3 -19   3   -3.12    5.96
   3 -19  -3    5.60    5.51
  -3  19  -3    3.49    5.47
   3 -19   4   15.00    7.06
  -3  19   4    5.68    4.34
  -3 -19  -4   -1.42    4.83
   3  19   4    4.74    5.07
   3 -19  -4   10.87    5.60
  -3  19  -4   15.37    6.89
  -3  19   5    4.22    4.22
  -3 -19  -5   -1.46    4.42
   3  19   5    1.50    4.87
   3 -19  -5    6.57    4.99
  -3  19  -5    8.56    5.80
  -3  19   6    4.62    4.26
  -3 -19  -6    2.11    4.38
   3  19   6    1.87    4.22
   3 -19  -6    7.42    4.74
  -3  19   7   -1.50    3.77
  -3 -19  -7   -0.57    4.46
   3  19   7    1.18    4.05
   3 -19  -7    0.73    3.89
  -3  19   8    2.03    3.81
  -3 -19  -8    1.82    4.14
   3  19   8   -1.38    3.85
   3 -19  -8    4.87    3.85
  -3  19   9   -0.69    3.69
  -3 -19  -9    2.31    4.30
   3  19   9   -2.51    3.69
   3 -19  -9   -4.83    3.97
  -3  19  10    3.32    4.30
  -3 -19 -10    2.39    4.05
   3  19  10    3.97    4.42
   3 -19 -10   -0.85    4.05
  -3  19  11    2.43    3.69
  -3 -19 -11    2.60    4.01
   3  19  11    3.69    4.14
   3 -19 -11   -0.08    3.65
  -3  19  12    2.51    3.97
  -3 -19 -12    1.22    4.50
   3  19  12    2.03    4.05
   3 -19 -12    3.57    3.97
  -3  19  13   -1.42    3.53
  -3 -19 -13    4.58    4.58
   3  19  13    2.39    4.18
   3  20   0    3.41    5.68
  -3 -20   0   -1.46    5.19
   3 -20   0    2.07    5.27
  -3  20   0   -5.11    4.58
   3 -20   1   21.90    7.70
  -3  20   1    2.23    4.62
   3  20  -1   -1.50    5.11
  -3 -20  -1   14.88    7.22
   3  20   1   13.83    7.42
  -3 -20   1   10.83    6.49
   3 -20  -1   -1.54    4.78
  -3  20  -1    1.30    5.76
   3 -20   2    4.70    5.76
  -3  20   2    6.85    5.07
   3  20  -2    9.29    6.37
  -3 -20  -2   12.53    6.08
   3  20   2    7.79    5.68
  -3 -20   2   13.06    6.97
   3 -20  -2    6.12    5.68
  -3  20  -2   -6.37    4.58
   3 -20   3    6.41    6.08
   3  20  -3   13.34    6.49
  -3 -20  -3   10.99    5.35
   3  20   3    1.58    4.83
  -3 -20   3   11.03    7.06
  -3  20  -3    9.20    6.08
   3 -20   4    9.20    5.84
  -3  20   4    5.43    4.83
  -3 -20  -4    0.65    4.46
   3  20   4   -2.88    4.46
   3 -20  -4    9.69    5.23
  -3  20  -4    2.23    5.11
  -3  20   5   14.80    5.64
  -3 -20  -5   27.69    7.66
   3  20   5   19.14    6.93
   3 -20  -5    2.96    4.74
  -3  20  -5   14.27    6.24
  -3  20   6    5.43    4.05
  -3 -20  -6   -3.81    3.81
   3  20   6    1.30    4.66
   3 -20  -6    1.66    4.01
  -3  20   7    5.03    4.26
  -3 -20  -7    1.82    4.38
   3  20   7   -0.97    3.81
   3 -20  -7    3.85    4.05
  -3  20   8   14.27    5.92
  -3 -20  -8    0.85    4.30
   3  20   8    1.42    4.18
   3 -20  -8    9.12    4.46
  -3  20   9    6.41    5.03
  -3 -20  -9    6.93    4.99
   3  20   9   19.26    6.28
   3 -20  -9    9.12    5.51
  -3  20  10    1.91    3.69
  -3 -20 -10   -2.72    4.18
   3  20  10    3.93    4.46
   3 -20 -10    5.88    4.66
  -3  20  11   13.14    5.64
  -3 -20 -11   12.65    5.76
   3  20  11    9.08    5.15
   3 -20 -11   15.85    5.76
  -3  20  12    0.12    3.61
  -3 -20 -12    0.20    4.10
   3  20  12    0.81    3.89
   3  21   0    1.58    4.99
  -3 -21   0    2.80    5.19
   3 -21   0    1.74    5.07
  -3  21   0    6.77    5.31
   3 -21   1    6.12    5.47
  -3  21   1    8.23    5.47
   3  21  -1   -0.93    4.83
  -3 -21  -1    5.84    5.88
   3  21   1    3.69    5.68
  -3 -21   1    9.20    5.72
   3 -21  -1   -1.09    4.30
  -3  21  -1    1.58    5.23
   3 -21   2    7.95    5.64
  -3  21   2   -0.36    4.18
   3  21  -2   19.67    6.77
   3  21   2   14.11    6.24
  -3 -21   2    8.43    6.16
   3 -21  -2    1.74    4.54
  -3  21  -2    3.32    4.66
   3 -21   3    5.07    5.31
  -3  21   3    2.88    4.50
   3  21  -3    4.62    4.83
  -3 -21  -3    3.77    4.78
   3  21   3    1.95    4.38
  -3 -21   3   -0.04    5.56
   3 -21  -3    8.72    5.68
  -3  21  -3    1.01    5.15
   3 -21   4   13.75    6.85
  -3  21   4    6.81    5.03
  -3 -21  -4   -0.89    4.38
   3  21   4    7.66    5.07
   3 -21  -4    7.46    5.35
  -3  21  -4   16.54    6.49
   3 -21   5    5.60    6.00
  -3  21   5    4.50    4.14
  -3 -21  -5    0.00    3.97
   3  21   5    0.49    3.89
   3 -21  -5    3.32    4.50
  -3  21  -5    1.18    4.83
  -3  21   6    4.83    4.58
  -3 -21  -6    5.03    4.34
   3  21   6    4.91    4.38
   3 -21  -6    3.04    4.95
  -3  21   7   -0.77    3.85
  -3 -21  -7   -2.19    4.26
   3  21   7   -1.78    3.89
   3 -21  -7    1.91    4.22
  -3  21   8    2.07    4.14
  -3 -21  -8    2.03    4.22
   3  21   8    0.12    3.85
   3 -21  -8    0.57    4.05
  -3  21   9   18.33    6.37
  -3 -21  -9    6.04    4.62
   3  21   9    4.10    4.58
   3 -21  -9   15.98    5.76
  -3  21  10   10.26    5.03
  -3 -21 -10    7.06    4.99
   3  21  10   10.91    5.47
   3 -21 -10   20.52    7.01
  -3  21  11    3.04    3.69
  -3 -21 -11    0.97    4.18
   3  21  11   -2.15    3.69
   3  22   0   -0.36    4.30
  -3 -22   0   -3.41    4.87
   3 -22   0    7.99    5.39
  -3  22   0    3.65    4.74
   3 -22   1   -1.46    5.11
  -3  22   1    0.53    4.30
   3  22  -1    3.41    5.15
  -3 -22  -1    4.26    5.47
   3  22   1    5.03    5.35
  -3 -22   1    3.24    5.07
   3 -22  -1    1.01    4.87
  -3  22  -1    8.60    5.43
   3 -22   2    4.10    4.83
  -3  22   2    1.26    4.58
   3  22  -2    3.69    5.15
  -3 -22  -2    3.61    5.11
   3  22   2    1.78    4.78
  -3 -22   2   -3.00    6.24
   3 -22  -2    7.01    5.39
  -3  22  -2    2.31    4.22
   3 -22   3    3.32    5.35
  -3  22   3    4.87    4.62
   3  22  -3    1.18    5.35
  -3 -22  -3   -2.15    4.30
   3  22   3    4.62    4.30
  -3 -22   3   -1.99    5.64
   3 -22  -3    2.39    4.54
  -3  22  -3    0.77    4.70
   3 -22   4   -1.87    5.19
  -3  22   4    4.50    4.70
   3  22  -4   -0.04    4.99
  -3 -22  -4    0.12    4.30
   3  22   4    0.77    4.38
   3 -22  -4    6.20    5.03
  -3  22  -4    1.91    4.74
   3 -22   5    6.33    5.31
  -3  22   5    1.74    4.05
  -3 -22  -5    2.72    4.18
   3  22   5   -3.49    4.18
   3 -22  -5    2.51    4.74
  -3  22  -5    2.39    4.30
  -3  22   6   -2.35    3.89
  -3 -22  -6    2.15    4.70
   3  22   6    0.16    4.10
   3 -22  -6    0.16    3.97
  -3  22   7    0.16    3.81
  -3 -22  -7    1.46    4.62
   3  22   7    3.89    4.78
   3 -22  -7   -1.91    4.01
  -3  22   8   -2.11    3.53
  -3 -22  -8   -1.18    3.89
   3  22   8    1.50    3.77
   3 -22  -8   -1.66    3.89
  -3  22   9    0.53    4.34
  -3 -22  -9    0.08    3.69
   3  22   9    1.54    3.65
   3 -22  -9   -2.19    3.45
  -3  22  10   -0.32    3.93
  -3 -22 -10    4.34    4.22
   3  22  10    1.30    3.81
   3  23   0    1.70    4.18
  -3 -23   0    0.36    4.38
   3 -23   0    1.66    4.38
  -3  23   0   -0.97    4.42
   3 -23   1    7.62    5.35
  -3  23   1    3.12    4.46
   3  23  -1    0.97    4.78
  -3 -23  -1   -2.76    4.22
   3  23   1    4.54    5.23
  -3 -23   1    4.34    4.95
   3 -23  -1    8.47    5.27
  -3  23  -1    4.78    4.91
   3 -23   2    4.42    4.66
  -3  23   2   27.69    7.83
   3  23  -2   13.58    6.12
  -3 -23  -2    0.93    4.34
   3  23   2    0.20    4.46
  -3 -23   2    9.16    5.51
   3 -23  -2    9.57    5.31
  -3  23  -2    1.01    3.89
   3 -23   3    7.54    5.07
  -3  23   3    4.74    4.91
   3  23  -3   13.54    5.72
  -3 -23  -3    5.92    5.43
   3  23   3    9.57    5.39
  -3 -23   3    7.74    6.24
   3 -23  -3    2.92    4.66
  -3  23  -3    1.87    4.66
   3 -23   4    7.58    5.35
  -3  23   4    2.64    4.50
   3  23  -4   -2.11    4.87
  -3 -23  -4   -2.35    4.10
   3  23   4    2.47    3.97
   3 -23  -4    2.88    4.99
  -3  23  -4    2.60    4.99
   3 -23   5   13.79    6.93
  -3  23   5    9.08    5.11
  -3 -23  -5    7.91    4.83
   3  23   5    5.80    4.95
   3 -23  -5    7.83    5.27
  -3  23  -5    7.01    5.07
  -3  23   6    3.45    4.05
  -3 -23  -6    2.03    3.97
   3  23   6    2.84    4.26
   3 -23  -6    1.18    4.14
  -3  23  -6    6.49    5.35
  -3  23   7    4.42    4.26
  -3 -23  -7    6.57    4.62
   3  23   7    2.19    4.14
   3 -23  -7   -0.81    3.77
  -3  23   8   -1.95    3.65
  -3 -23  -8    1.09    4.10
   3  23   8   -1.82    3.20
   3 -23  -8    2.55    4.18
  -3  23   9    7.06    5.15
  -3 -23  -9    5.15    5.39
   3  23   9    0.16    4.22
   3  24   0    1.22    4.01
  -3 -24   0    6.93    5.07
   3 -24   0   -2.72    3.89
  -3  24   0    0.20    4.54
   3 -24   1    0.24    4.95
  -3  24   1    0.65    4.54
   3  24  -1    0.61    3.85
  -3 -24  -1    4.70    5.07
   3  24   1    7.66    5.80
  -3 -24   1    4.74    4.83
   3 -24  -1   -2.11    4.42
  -3  24  -1    9.89    5.88
   3 -24   2   -0.28    4.34
  -3  24   2    2.31    4.14
   3  24  -2   -0.16    4.50
  -3 -24  -2    5.72    4.95
   3  24   2   -2.39    4.66
  -3 -24   2    1.14    4.74
   3 -24  -2    0.45    5.03
  -3  24  -2    3.81    4.54
   3 -24   3    0.97    5.19
  -3  24   3    2.60    4.70
   3  24  -3    9.65    5.72
  -3 -24  -3    2.64    4.62
   3  24   3    2.55    4.38
  -3 -24   3    2.35    5.88
   3 -24  -3    3.89    5.19
  -3  24  -3    3.61    4.74
   3 -24   4   -1.38    4.74
  -3  24   4    4.22    4.26
   3  24  -4   -1.66    5.07
  -3 -24  -4    0.45    4.26
   3  24   4   -0.61    4.18
   3 -24  -4    1.54    4.91
  -3  24  -4    3.45    5.35
   3 -24   5    2.15    5.39
  -3  24   5   -0.73    3.57
  -3 -24  -5   -1.05    4.01
   3  24   5   -1.58    3.97
   3 -24  -5    2.03    4.14
  -3  24  -5   -3.77    4.18
  -3  24   6   -2.03    3.61
  -3 -24  -6   -2.80    4.10
   3  24   6    0.20    4.26
   3 -24  -6   -0.77    4.01
  -3  24  -6    3.37    4.91
  -3  24   7    7.83    4.87
  -3 -24  -7   -0.61    3.65
   3  24   7    4.10    4.54
   3 -24  -7    6.37    4.83
  -3  24   8   -0.53    3.81
   3  24   8   -0.45    3.81
   3  25   0   -2.07    4.10
  -3 -25   0    3.73    5.35
   3 -25   0    1.95    5.07
  -3  25   0   -2.47    4.50
   3 -25   1   -3.00    5.03
  -3  25   1   -1.34    4.38
   3  25  -1    4.38    5.03
  -3 -25  -1   -2.88    4.83
   3  25   1   -3.00    4.91
  -3 -25   1    5.19    5.60
   3 -25  -1   17.07    6.49
  -3  25  -1    4.38    5.56
   3 -25   2    3.57    5.60
  -3  25   2    7.91    4.99
   3  25  -2   16.83    7.06
  -3 -25  -2    8.72    5.51
   3  25   2    7.34    5.72
  -3 -25   2   17.19    7.18
   3 -25  -2    3.77    5.19
  -3  25  -2   25.63    7.70
   3 -25   3    1.62    5.03
  -3  25   3    3.45    4.91
   3  25  -3   -0.77    5.23
  -3 -25  -3   -1.99    4.58
   3  25   3    0.97    4.46
  -3 -25   3    6.12    5.68
   3 -25  -3   -4.74    4.38
  -3  25  -3    7.14    5.07
   3 -25   4   17.64    7.14
  -3  25   4   20.11    6.77
   3  25  -4   16.71    7.01
  -3 -25  -4    8.11    5.27
   3  25   4   11.76    6.04
  -3 -25   4   26.11    8.23
   3 -25  -4   10.87    5.84
  -3  25  -4   18.94    7.01
   3 -25   5    2.96    5.51
  -3  25   5    0.81    3.97
  -3 -25  -5   -0.93    4.42
   3  25   5    4.66    4.62
   3 -25  -5    2.07    4.34
  -3  25  -5    1.78    4.62
  -3  25   6    1.26    4.18
   3  25   6   -1.18    4.42
  -3  25  -6    0.85    4.66
  -3  25   7   -0.12    3.81
   3  25   7   -0.28  114.06
   3  26   0    0.00    4.22
  -3 -26   0    3.97    5.43
   3 -26   0   -1.91    4.34
  -3  26   0   -3.49    4.14
   3 -26   1    4.83    5.07
  -3  26   1    4.30    4.95
   3  26  -1    3.49    4.34
  -3 -26  -1   10.54    6.12
   3  26   1    0.61    4.99
  -3 -26   1    6.65    5.43
   3 -26  -1    8.80    5.47
  -3  26  -1   14.39    6.16
   3 -26   2    0.97    4.30
  -3  26   2    3.73    4.62
   3  26  -2   -2.35    4.30
  -3 -26  -2    2.55    5.15
   3  26   2   -0.08    4.66
  -3 -26   2   -0.97    4.91
   3 -26  -2   -0.69    4.38
  -3  26  -2   -0.16    4.30
   3 -26   3   17.72    7.10
  -3  26   3    8.35    5.39
   3  26  -3    9.45    6.16
   3  26   3   11.96    5.68
  -3 -26   3    7.83    7.10
   3 -26  -3   11.84    7.01
  -3  26  -3   11.52    6.12
   3 -26   4    0.45    4.58
  -3  26   4   -1.95    4.46
   3  26  -4   -0.69    4.62
   3  26   4    3.53    4.30
  -3  26  -4    3.28    4.46
   3 -26   5    6.33    5.80
  -3  26   5    6.28    4.99
   3  26  -5   13.34    6.24
   3  26   5   -1.30    4.38
  -3  26  -5   20.07    7.42
   3  27   0    5.96    4.58
   3 -27   0    3.08    4.50
  -3  27   0    3.41    5.27
   3 -27   1    1.99    4.91
  -3  27   1   -1.01    3.61
   3  27  -1    3.89    4.01
   3  27   1    1.34    4.70
  -3  27  -1    1.70   12.45
   3 -27   2   -0.32    4.83
  -3  27   2   -1.26    3.97
   3  27  -2    2.76    4.91
   3  27   2    5.03    5.23
  -3  27  -2    3.37    4.46
   3 -27   3   -0.49    6.00
  -4  -1  -2  256.83   31.46
   4   1   2  179.30   22.26
   4  -2   1 2204.16  264.90
  -4  -2  -1 2116.98  254.88
   4   2   1 2267.82  272.92
  -4   2  -1 2143.74  257.64
  -4  -2  -2    8.92    4.78
   4   2   2   15.57    4.95
  -4  -2  -3  430.61   52.39
   4   2   3  355.84   43.39
   4  -3   0 1998.99  240.41
  -4   3   0 2256.06  271.26
   4  -3   1   96.71   12.77
  -4  -3  -1   85.35   13.10
   4   3   1   72.94   11.80
  -4   3  -1   86.57   11.60
  -4  -3  -2 3298.13  396.68
   4   3   2 3088.09  371.41
  -4  -3  -3    1.54    4.14
   4   3   3    1.58    4.22
  -4  -3  -4  987.74  119.41
   4   3   4  896.91  108.50
   4  -4   0   24.37    5.47
  -4   4   0   22.58    5.19
   4  -4   1    8.03    4.50
  -4   4   1   14.31    4.54
  -4  -4  -1   16.83    7.38
   4   4   1   27.65    7.74
  -4   4  -1   23.11    5.23
   4  -4   2    3.97    5.72
  -4  -4  -2   -0.81    5.03
  -4   4  -2   18.00    5.60
  -4  -4  -3   44.52    8.31
   4   4   3   81.78   12.20
  -4  -4  -4   20.84    5.56
   4   4   4   20.72    5.51
   4  -5   0  623.62   75.90
  -4   5   0  718.50   87.22
   4  -5   1  254.84   31.87
  -4   5   1  178.98   22.67
  -4  -5  -1  179.63   23.76
  -4   5  -1  274.95   34.18
   4  -5   2  378.75   46.75
  -4   5   2  476.43   58.15
  -4  -5  -2  320.00   39.98
   4   5   2  392.78   48.62
   4  -5  -2  354.26   43.63
  -4   5  -2  430.21   52.83
  -4  -5  -3   65.28   10.50
   4   5   3   53.89    9.45
  -4  -5  -4    6.65    5.03
   4   5   4   14.03    5.11
  -4  -5  -5   59.04    9.24
   4   5   5   59.32    9.33
  -4  -5  -6  342.02   42.57
   4   5   6  385.48   47.68
   4   6   0   40.79    9.69
  -4  -6   0   50.12   10.30
   4  -6   0   30.17    6.85
  -4   6   0   29.11    6.77
   4  -6   1    9.41    5.72
  -4   6   1   26.76    5.96
  -4  -6  -1    8.23    6.41
   4   6   1    3.12    6.49
   4  -6  -1    0.61    4.46
  -4   6  -1   11.80    5.60
   4  -6   2    6.37    5.96
  -4   6   2    1.99    3.77
  -4  -6  -2   11.03    6.00
   4   6   2   -2.11    5.23
   4  -6  -2   -0.32    4.05
  -4   6  -2    3.41    5.60
  -4   6   3   10.14    4.83
  -4  -6  -3   27.53    7.34
   4  -6  -3   11.23    4.91
  -4  -6  -4    6.41    5.84
   4   6   4    5.31    5.35
  -4  -6  -6   13.06    4.66
   4   6   6   14.48    4.62
  -4  -6  -7   68.48   10.66
   4   6   7   42.45    7.58
   4   7   0 1174.25  142.65
  -4  -7   0 1306.44  158.46
   4  -7   0 1162.50  140.86
  -4   7   0 1244.40  150.63
   4  -7   1   25.46    6.97
  -4   7   1   22.02    6.65
  -4  -7  -1   21.73    7.18
   4   7   1   10.99    6.93
   4  -7  -1   21.49    6.97
  -4   7  -1   16.38    6.41
   4  -7   2  883.53  107.49
  -4   7   2 1011.25  122.45
  -4  -7  -2  845.82  103.23
   4   7   2  901.37  109.84
   4  -7  -2  935.02  113.41
  -4   7  -2  830.41  101.13
  -4   7   3    2.96    4.54
  -4  -7  -3    0.20    6.37
   4   7   3    1.58    6.24
   4  -7  -3    4.10    4.54
  -4   7   4   26.15    6.12
  -4  -7  -4   28.99    8.15
   4   7   4    5.56    6.12
   4  -7  -4   23.60    6.08
  -4  -7  -5    1.05    4.30
   4   7   5    5.84    4.83
  -4  -7  -7    8.76    4.38
   4   7   7    2.80    4.10
  -4  -7  -8  259.38   33.17
   4   7   8  231.77   29.68
   4   8   0   48.09   10.10
  -4  -8   0   54.13   10.95
   4  -8   0   47.89    9.37
  -4   8   0   51.90    9.29
   4  -8   1  487.79   60.33
  -4   8   1  655.25   80.20
  -4  -8  -1  597.67   73.76
   4   8   1  633.35   77.97
   4  -8  -1  839.74  102.34
   4  -8   2   29.40    7.30
  -4   8   2   23.03    6.28
  -4  -8  -2   17.19    7.22
   4   8   2   42.41    9.08
   4  -8  -2   25.75    6.53
  -4   8  -2   29.32    7.79
  -4   8   3 2245.11  270.65
  -4  -8  -3 1822.20  220.54
   4   8   3 1448.76  175.61
   4  -8  -3 1807.61  218.23
  -4   8   4   52.91    8.76
  -4  -8  -4   75.46   12.08
   4   8   4   77.73   12.65
   4  -8  -4   55.06    9.00
  -4   8   5  402.60   49.95
  -4  -8  -5  600.10   73.72
   4   8   5  613.08   75.22
   4  -8  -5  510.09   62.77
  -4  -8  -6   21.61    5.84
   4   8   6   18.25    5.19
  -4  -8  -7 2366.75  285.78
   4   8   7 2022.51  244.34
  -4  -8  -8   11.31    4.99
   4   8   8    6.20    4.30
  -4  -8  -9   88.27   13.38
  -4  -9   0   37.99    8.88
   4  -9   0   15.04    6.04
  -4   9   0    7.74    5.96
   4  -9   1    0.49    5.43
  -4   9   1    4.91    5.88
  -4  -9  -1    5.31    6.00
   4   9   1    9.61    6.53
   4  -9  -1    9.20    5.60
  -4   9  -1    6.16    5.88
   4  -9   2    1.18    5.60
  -4   9   2    4.30    5.03
  -4  -9  -2    5.68    5.76
   4   9   2    2.64    6.04
   4  -9  -2    4.38    4.34
   4  -9   3   -0.08    6.45
  -4   9   3   -2.47    4.66
  -4  -9  -3    4.78    5.80
   4   9   3    8.23    6.00
   4  -9  -3    1.50    4.18
  -4   9  -3    8.68    7.18
  -4   9   4   52.47    8.68
  -4  -9  -4   69.50   11.27
   4   9   4   71.69   11.60
   4  -9  -4   47.68    8.23
  -4   9   5   15.16    4.91
  -4  -9  -5   21.00    6.12
   4   9   5   12.61    5.23
   4  -9  -5   16.83    5.19
  -4  -9  -6   11.64    4.78
   4   9   6    7.30    4.30
   4  -9  -6    6.12    4.46
  -4  -9  -7    7.01    4.34
   4   9   7    6.20    4.26
  -4  -9  -8    6.41    4.34
   4   9   8    7.54    4.54
  -4  -9  -9    1.95    5.07
   4   9   9    4.30    5.07
  -4  -9 -10    8.47    5.84
   4  10   0   49.71   10.30
  -4 -10   0   27.05    8.35
   4 -10   0   36.37    7.95
  -4  10   0   44.76    8.84
   4 -10   1   -1.95    5.68
   4  10  -1    3.73    6.89
  -4 -10  -1    6.97    6.53
   4  10   1   -0.20    6.16
   4 -10  -1   18.25    6.16
  -4  10  -1    8.60    6.28
   4 -10   2    4.54    5.92
  -4  10   2   11.11    5.96
  -4 -10  -2    0.85    5.43
   4  10   2    0.24    5.80
   4 -10  -2    8.35    5.11
  -4  10  -2    3.93    5.96
  -4  10   3   46.02    8.31
  -4 -10  -3   60.42   10.66
   4  10   3   90.99   13.87
   4 -10  -3   46.83    8.31
  -4  10   4    5.19    4.10
  -4 -10  -4    8.84    5.15
   4  10   4   22.67    6.24
   4 -10  -4   11.72    4.62
  -4 -10  -5  406.69   50.97
   4  10   5  296.65   37.71
   4 -10  -5  397.41   49.39
  -4  10   6   21.86    5.60
  -4 -10  -6    1.38    4.10
   4  10   6    5.39    4.10
  -4 -10  -7   40.83    7.87
   4  10   7   41.52    7.91
  -4 -10  -8    3.57    4.22
   4  10   8    4.62    4.14
  -4 -10  -9  145.28   20.23
   4  10   9  185.83   25.22
  -4 -10 -10   22.30    7.10
   4  10  10   10.42    6.00
  -4 -10 -11   -0.89    5.07
   4  11   0   16.79    7.99
  -4 -11   0   23.72    7.62
   4 -11   0   12.49    5.76
  -4  11   0   43.30    8.43
   4 -11   1   -0.65    5.68
  -4  11   1   -1.50    5.03
   4  11  -1   12.33    7.58
  -4 -11  -1    6.81    6.12
   4  11   1   -5.39    6.33
  -4 -11   1   -1.46    7.22
   4 -11  -1    3.77    4.91
  -4  11  -1   -0.53    6.08
   4 -11   2   17.96    6.89
  -4  11   2   50.36    9.57
  -4 -11  -2   31.71    7.79
   4  11   2   21.08    7.46
   4 -11  -2   48.98    8.88
  -4  11  -2   26.03    7.87
   4 -11   3   -0.69    6.37
  -4  11   3    3.08    4.18
  -4 -11  -3   -1.18    4.74
   4  11   3   -0.81    5.27
   4 -11  -3    1.91    4.14
  -4  11  -3   -1.70    5.64
  -4  11   4   14.39    4.78
  -4 -11  -4   14.92    5.68
   4 -11  -4   31.55    6.69
  -4  11   5   -0.20    3.77
  -4 -11  -5   11.19    5.31
   4  11   5    6.69    4.70
   4 -11  -5    2.72    3.77
  -4  11   6    0.97    3.81
  -4 -11  -6    2.96    4.46
   4  11   6    6.20    4.50
   4 -11  -6    1.05    3.81
  -4  11   7   21.08    6.08
  -4 -11  -7    8.64    4.78
   4  11   7    5.72    4.54
   4 -11  -7   14.11    5.07
  -4 -11  -8   52.59    9.77
   4  11   8   45.86    8.96
   4 -11  -8   46.79    8.96
  -4 -11  -9    9.12    5.39
   4  11   9    0.28    5.11
  -4 -11 -10    2.60    4.95
   4  11  10    7.26    5.19
  -4 -11 -11    9.81    5.27
   4  11  11   -6.61    4.46
  -4 -11 -12   -0.77    4.34
   4  12   0   33.17    8.60
  -4 -12   0   46.59    9.81
   4 -12   0   16.14    6.16
  -4  12   0   22.22    6.41
   4 -12   1  834.87  102.46
  -4  12   1  686.87   84.50
   4  12  -1  961.79  117.79
  -4 -12  -1  848.25  104.29
   4  12   1  805.68   99.18
  -4 -12   1  951.65  116.74
   4 -12  -1 1015.31  123.83
  -4  12  -1  891.64  109.23
   4 -12   2    3.32    5.80
  -4  12   2   14.23    5.39
  -4 -12  -2    4.22    5.47
   4  12   2   -0.97    5.19
   4 -12  -2    1.22    4.58
  -4  12  -2    1.95    5.27
  -4  12   3  123.18   17.23
  -4 -12  -3  188.63   25.42
   4  12   3  198.60   26.44
   4 -12  -3  134.13   18.49
  -4  12   4    6.28    4.22
  -4 -12  -4   10.66    6.00
   4  12   4   14.56    5.84
   4 -12  -4   13.38    4.87
  -4  12   5  176.10   23.11
  -4 -12  -5  108.06   16.10
   4  12   5  159.88   21.90
   4 -12  -5  164.42   22.02
  -4  12   6    8.27    4.26
  -4 -12  -6   10.54    5.92
   4  12   6    4.42    5.03
   4 -12  -6    4.01    4.30
  -4  12   7  899.75  110.01
  -4 -12  -7  771.21   94.88
   4  12   7  831.22  102.02
   4 -12  -7  800.41   98.04
  -4  12   8    5.64    5.23
  -4 -12  -8    8.19    5.60
   4  12   8   15.12    6.16
   4 -12  -8    1.87    4.87
  -4 -12  -9   42.37    9.00
   4  12   9   66.13   11.68
   4 -12  -9   86.89   14.15
  -4 -12 -10   -2.39    4.26
   4  12  10    2.07    4.66
  -4 -12 -11   22.22    6.45
   4  12  11    3.93    4.54
  -4 -12 -12   -2.11    4.22
   4  12  12    2.96    4.38
  -4 -12 -13   35.28    8.27
   4  13   0 1537.96  187.09
  -4 -13   0 1737.05  210.93
   4 -13   0 1538.78  186.84
  -4  13   0 1524.58  185.06
   4 -13   1   59.89   11.35
  -4  13   1   24.82    6.73
   4  13  -1   58.39   11.11
  -4 -13  -1   41.20    9.37
   4  13   1   64.39   11.88
  -4 -13   1   38.20    9.73
   4 -13  -1   35.68    7.83
  -4  13  -1   40.83    8.92
   4 -13   2 2022.51  245.15
  -4  13   2 1641.77  199.09
  -4 -13  -2 1978.31  239.84
   4  13   2 1762.60  214.09
   4 -13  -2 1537.56  186.64
  -4  13  -2 1714.75  208.29
   4 -13   3   -1.74    6.04
  -4  13   3    5.27    4.58
  -4 -13  -3    1.62    4.99
   4  13   3    0.89    4.99
   4 -13  -3   -0.49    4.42
  -4  13  -3    8.11    6.53
  -4  13   4  293.56   37.34
   4 -13  -4  336.99   42.62
  -4  13  -4  230.71   30.90
  -4  13   5    4.58    4.05
  -4 -13  -5    4.99    5.19
   4  13   5    2.64    5.03
   4 -13  -5    7.10    4.54
  -4  13   7    7.38    5.03
  -4 -13  -7   29.64    7.74
   4  13   7   24.33    7.18
   4 -13  -7   12.25    5.03
  -4  13   8  179.14   24.41
  -4 -13  -8  214.78   28.83
   4  13   8  197.14   26.88
   4 -13  -8  173.34   23.60
  -4  13   9    0.12    4.46
  -4 -13  -9    0.77    4.78
   4  13   9    4.14    5.11
   4 -13  -9   -1.05    5.15
  -4 -13 -11    7.10    4.46
   4  13  11    4.91    4.38
  -4 -13 -12   29.68    7.42
   4  13  12   22.14    6.57
  -4 -13 -13    2.23    4.50
   4  13  13    2.03    4.46
   4  14   0    5.68    6.49
  -4 -14   0    6.85    6.57
   4 -14   0    0.81    4.95
  -4  14   0    9.16    5.35
   4 -14   1    6.89    5.96
  -4  14   1   10.06    5.47
   4  14  -1   -4.46    6.33
  -4 -14  -1    3.28    5.96
   4  14   1    0.04    5.72
  -4 -14   1   13.54    8.03
   4 -14  -1   -2.19    5.19
  -4  14  -1    5.07    5.43
   4 -14   2    4.62    6.24
  -4  14   2    8.07    4.99
  -4 -14  -2    1.70    5.76
   4  14   2    6.24    6.20
   4 -14  -2   11.43    5.43
  -4  14  -2   10.18    6.04
   4 -14   3    9.08    6.41
  -4  14   3    9.45    5.15
  -4 -14  -3    3.24    5.35
   4  14   3   10.79    5.80
   4 -14  -3   11.76    5.56
  -4  14  -3    7.87    6.73
   4 -14   4    2.51    6.61
  -4  14   4    3.28    4.46
  -4 -14  -4   -3.08    5.60
   4  14   4   -1.46    5.47
   4 -14  -4    3.04    4.70
  -4  14  -4    2.11    6.89
  -4  14   5   10.79    4.91
  -4 -14  -5   -0.16    5.27
   4  14   5   17.96    6.77
   4 -14  -5    1.95    4.42
  -4  14   6   11.92    5.31
  -4 -14  -6   18.17    7.30
   4  14   6   15.16    6.57
   4 -14  -6   18.61    5.92
  -4  14   7   39.53    8.31
  -4 -14  -7   25.95    7.74
   4  14   7   23.80    7.34
   4 -14  -7   43.63    8.60
  -4  14   8    1.58    4.91
  -4 -14  -8    0.61    4.46
   4  14   8    7.62    5.27
   4 -14  -8   -4.30    4.34
  -4  14   9    5.80    4.54
  -4 -14  -9    5.47    4.74
   4  14   9    9.81    5.43
   4 -14  -9    1.74    4.54
  -4  14  10    1.30    4.01
  -4 -14 -10    0.16    4.30
   4  14  10    0.12    4.30
   4 -14 -10   -2.72    4.10
  -4 -14 -11    7.87    4.95
   4  14  11    0.77    4.38
  -4 -14 -12   -0.73    3.81
   4  14  12    2.43    4.01
  -4 -14 -13    1.62    4.34
   4  14  13    0.04    3.89
  -4 -14 -14    6.04    4.78
   4  14  14    1.46    4.26
  -4 -14 -15   -1.91    3.81
   4  15   0  322.96   42.17
  -4 -15   0  329.93   43.02
   4 -15   0  277.79   36.33
  -4  15   0  317.65   41.03
   4 -15   1   -4.70    5.96
  -4  15   1    0.45    5.39
   4  15  -1    5.03    6.85
  -4 -15  -1    9.00    6.65
   4  15   1   -3.97    5.56
  -4 -15   1   11.31    7.66
   4 -15  -1   -1.58    5.47
  -4  15  -1   -4.95    5.88
   4 -15   2   21.90    8.35
  -4  15   2   25.18    7.26
   4  15  -2   74.28   14.15
  -4 -15  -2   18.25    7.26
   4  15   2   20.35    7.83
   4 -15  -2   18.12    6.53
  -4  15  -2   38.07    9.33
   4 -15   3   16.06    7.14
  -4  15   3    6.08    5.23
  -4 -15  -3   11.84    6.69
   4  15   3    5.72    6.41
   4 -15  -3   12.25    5.92
  -4  15  -3   19.46    7.91
   4 -15   4    4.01    6.85
  -4  15   4    0.49    4.95
   4  15   4   13.54    6.69
   4 -15  -4    1.42    4.91
  -4  15  -4   20.40    7.83
  -4  15   5   16.38    5.64
  -4 -15  -5    0.69    5.72
   4  15   5    8.11    6.20
   4 -15  -5    3.49    4.95
  -4  15   6   76.23   12.12
  -4 -15  -6   50.24   10.50
   4  15   6   64.67   12.16
   4 -15  -6   75.58   12.53
  -4  15   7   -1.58    4.18
  -4 -15  -7   -0.85    4.83
   4  15   7    4.70    5.31
   4 -15  -7    3.57    4.34
  -4  15   8   26.92    7.06
   4 -15  -8   23.56    6.16
  -4  15   9    1.66    4.14
  -4 -15  -9    1.78    3.89
   4  15   9    9.69    4.91
   4 -15  -9    1.70    3.89
  -4  15  10    3.53    4.14
  -4 -15 -10    9.65    4.95
   4  15  10   -1.30    3.93
   4 -15 -10    7.50    5.03
  -4  15  11    2.64    4.10
  -4 -15 -11    1.66    4.01
   4  15  11    0.65    4.05
   4 -15 -11   -0.04    3.73
  -4 -15 -13    0.45    3.53
   4  15  13    1.91    3.85
  -4 -15 -14   12.98    5.68
   4  15  14    8.80    5.15
  -4 -15 -15    0.89    4.58
   4  16   0   47.04   10.30
  -4 -16   0   64.84   13.06
   4 -16   0   74.40   12.81
  -4  16   0   84.30   13.99
   4 -16   1  193.29   26.76
  -4  16   1  241.58   32.15
   4  16  -1  292.14   38.48
  -4 -16  -1  232.26   31.63
   4  16   1  215.75   29.48
  -4 -16   1  358.97   46.71
   4 -16  -1  284.60   37.30
  -4  16  -1  222.36   30.29
   4 -16   2    8.51    6.85
  -4  16   2    8.88    5.68
   4  16  -2   12.08    7.99
  -4 -16  -2    9.45    6.49
   4  16   2    7.14    7.10
  -4 -16   2   -4.62    6.93
   4 -16  -2   14.35    6.73
  -4  16  -2   20.60    7.46
   4 -16   3  225.93   30.57
  -4  16   3  201.64   27.37
  -4 -16  -3  201.60   27.73
   4  16   3  261.57   34.91
  -4  16  -3  220.21   30.17
   4 -16   4    5.11    6.77
  -4  16   4    6.69    5.15
  -4 -16  -4    4.91    6.24
   4  16   4    3.00    6.61
   4 -16  -4    4.10    5.84
  -4  16  -4   -0.20    6.24
  -4  16   5    6.28    4.78
  -4 -16  -5    3.93    6.24
   4  16   5    1.14    5.07
   4 -16  -5    1.26    4.87
  -4  16   6    3.04    4.22
  -4 -16  -6   -1.58    5.11
   4  16   6    5.92    5.03
   4 -16  -6   -3.32    4.30
  -4  16   7   13.06    5.23
  -4 -16  -7   18.12    6.57
   4  16   7   10.34    5.47
   4 -16  -7   11.27    5.56
  -4  16   8    2.55    4.22
  -4 -16  -8    3.65    5.03
   4  16   8    0.65    4.50
   4 -16  -8    1.66    3.97
  -4  16   9    0.61    4.01
  -4 -16  -9   -1.01    3.73
   4  16   9   -0.57    3.85
   4 -16  -9   -2.31    3.89
  -4  16  10   -1.70    3.49
  -4 -16 -10    1.74    4.22
   4  16  10   -0.16    3.69
   4 -16 -10    1.78    4.42
  -4  16  11    2.92    3.97
  -4 -16 -11    2.72    4.26
   4  16  11   -1.58    4.01
   4 -16 -11    1.42    4.22
  -4 -16 -12   -1.05    4.01
   4  16  12    2.11    4.26
   4 -16 -12    3.57    4.38
  -4 -16 -13    8.60    4.62
   4  16  13    4.38    4.30
  -4 -16 -14    0.73    3.97
   4  16  14    3.85    4.22
   4  17   0   -1.30    5.88
  -4 -17   0    5.27    7.06
   4 -17   0    0.53    6.00
  -4  17   0    1.74    5.60
   4 -17   1    9.16    6.77
  -4  17   1   13.18    6.33
   4  17  -1   14.60    7.50
  -4 -17  -1   25.06    8.27
   4  17   1   20.60    7.30
  -4 -17   1   18.98    7.99
   4 -17  -1   15.16    6.85
  -4  17  -1   15.41    7.18
   4 -17   2   14.52    6.97
   4  17  -2   36.82    9.81
  -4 -17  -2   16.46    7.06
   4  17   2   19.22    7.58
  -4 -17   2   28.87    9.12
  -4  17  -2   13.02    6.69
   4 -17   3    8.88    6.16
  -4  17   3   12.08    6.28
  -4 -17  -3    9.29    6.33
   4  17   3    1.87    5.72
   4 -17  -3   14.43    6.20
  -4  17  -3    1.42    5.96
   4 -17   4   13.83    7.26
  -4  17   4   -0.08    4.70
  -4 -17  -4   10.14    5.88
   4  17   4   -0.49    5.47
   4 -17  -4   -0.97    5.15
  -4  17  -4   -1.91    6.08
  -4  17   5    3.16    4.58
  -4 -17  -5   -0.28    5.07
   4  17   5    5.72    6.00
   4 -17  -5    3.69    4.91
  -4  17  -5    8.64    6.04
  -4  17   6   30.29    6.89
  -4 -17  -6   39.86    8.84
   4  17   6   18.73    6.73
   4 -17  -6   30.61    7.18
  -4  17   7    2.03    3.81
  -4 -17  -7    3.93    4.70
   4  17   7   -0.28    4.62
   4 -17  -7    0.45    3.73
  -4  17   8    1.01    3.85
  -4 -17  -8   -3.61    3.61
   4  17   8   -2.72    4.30
   4 -17  -8    3.24    3.97
  -4  17   9    1.05    4.34
  -4 -17  -9   -0.57    3.73
   4  17   9    2.27    3.77
   4 -17  -9   -2.51    3.37
  -4  17  10    3.04    4.38
  -4 -17 -10    8.92    4.83
   4  17  10    7.10    4.66
   4 -17 -10    3.61    4.05
  -4  17  11    0.65    3.85
  -4 -17 -11    0.08    3.89
   4  17  11    0.08    3.73
   4 -17 -11    1.34    4.26
  -4  17  12    1.91    4.05
  -4 -17 -12    2.92    4.30
   4  17  12   -0.49    3.77
   4 -17 -12   -1.62    3.93
  -4 -17 -13    2.23    4.05
   4  17  13    5.03    4.58
   4 -17 -13    0.04    4.18
  -4 -17 -14    1.87    4.10
   4  17  14    3.08    4.87
   4  18   0   23.68    7.83
  -4 -18   0   32.40    9.61
   4 -18   0   19.75    7.22
  -4  18   0    8.72    5.88
   4 -18   1   85.19   14.35
  -4  18   1  100.40   15.98
   4  18  -1   61.47   12.57
  -4 -18  -1   90.91   15.37
   4  18   1  114.10   17.60
  -4 -18   1   84.05   14.76
   4 -18  -1   59.28   11.31
  -4  18  -1  110.49   17.19
   4 -18   2    1.42    5.31
  -4  18   2    3.24    5.64
   4  18  -2   16.02    7.62
  -4 -18  -2   -0.49    5.35
   4  18   2   -1.87    5.76
  -4 -18   2   12.77    7.14
   4 -18  -2   20.60    6.85
  -4  18  -2    3.28    5.15
  -4  18   3   58.31   10.75
  -4 -18  -3   14.96    6.49
   4  18   3   20.23    7.06
   4 -18  -3   27.05    7.42
  -4  18  -3   30.78    8.51
   4 -18   4    4.62    6.04
  -4  18   4    1.50    4.30
  -4 -18  -4   -0.97    5.03
   4  18   4   -2.27    5.03
   4 -18  -4    0.53    4.78
  -4  18  -4   -0.08    6.28
  -4  18   5   31.71    7.38
  -4 -18  -5   44.08    9.77
   4  18   5   33.94    8.64
   4 -18  -5   34.83    8.23
  -4  18   6   -0.65    3.69
  -4 -18  -6   -0.41    4.50
   4  18   6    1.38    4.22
   4 -18  -6   -1.82    3.85
  -4  18   7  185.26   25.22
  -4 -18  -7  225.93   30.86
   4  18   7  218.79   29.88
   4 -18  -7  191.22   25.91
  -4  18   8    1.34    3.69
  -4 -18  -8   -4.54    4.10
   4  18   8    1.01    3.97
   4 -18  -8    6.00    4.05
  -4  18   9   12.33    5.35
  -4 -18  -9   29.60    7.46
   4  18   9   23.36    7.01
   4 -18  -9    9.53    4.66
  -4  18  10   -2.23    3.93
  -4 -18 -10    4.14    4.30
   4  18  10    0.16    3.85
   4 -18 -10    1.95    4.10
  -4  18  11    1.18    4.18
  -4 -18 -11    0.73    4.26
   4  18  11    0.61    4.05
   4 -18 -11    3.85    4.26
  -4  18  12    2.15    3.85
  -4 -18 -12    1.54    4.18
   4  18  12    1.22    4.14
   4 -18 -12    5.39    4.18
  -4  18  13   37.06    8.68
  -4 -18 -13   32.64    8.35
   4  18  13   37.26    8.80
   4  19   0   -3.73    4.91
  -4 -19   0    0.20    6.49
   4 -19   0    1.30    4.78
  -4  19   0    6.85    5.27
   4 -19   1    1.46    5.23
  -4  19   1   -1.34    4.78
   4  19  -1    0.28    6.45
  -4 -19  -1   -1.70    5.76
   4  19   1   -3.49    4.78
  -4 -19   1    3.20    5.80
   4 -19  -1   -2.51    4.58
  -4  19  -1   -1.46    4.91
   4 -19   2    3.24    5.19
  -4  19   2    4.91    4.91
   4  19  -2   13.42    7.14
  -4 -19  -2    0.73    5.19
   4  19   2    1.42    5.43
  -4 -19   2    7.06    6.53
   4 -19  -2   13.06    6.20
  -4  19  -2    4.66    4.54
   4 -19   3   -2.72    5.23
  -4  19   3   -0.57    4.18
   4  19  -3   -1.34    5.47
  -4 -19  -3    2.96    4.70
   4  19   3   -3.89    4.70
   4 -19  -3   -0.24    4.38
  -4  19  -3   -3.53    5.47
   4 -19   4   13.38    6.69
  -4  19   4   -1.38    4.42
  -4 -19  -4    5.60    5.19
   4  19   4    4.62    5.19
   4 -19  -4    2.27    4.54
  -4  19  -4   14.72    6.37
   4 -19   5    5.07    5.88
  -4  19   5    0.45    4.01
  -4 -19  -5   -1.05    4.54
   4  19   5    1.58    4.87
   4 -19  -5   -2.03    4.14
  -4  19  -5   -3.20    5.15
  -4  19   6    3.81    3.81
  -4 -19  -6   10.10    5.47
   4  19   6    8.11    5.15
   4 -19  -6    8.92    5.07
  -4  19   7    2.07    3.53
  -4 -19  -7    6.81    5.19
   4  19   7    3.93    4.78
   4 -19  -7   -1.50    3.61
  -4  19   8   -0.53    3.57
  -4 -19  -8   -0.04    4.34
   4  19   8    0.85    4.05
   4 -19  -8    1.91    3.85
  -4  19   9    0.45    4.01
  -4 -19  -9   -5.60    3.73
   4  19   9    0.49    3.89
   4 -19  -9    7.42    4.38
  -4  19  10    2.80    4.26
  -4 -19 -10    2.43    3.97
   4  19  10    0.41    4.18
   4 -19 -10    1.87    4.42
  -4  19  11    6.20    4.22
  -4 -19 -11    0.93    4.10
   4  19  11   -0.69    3.81
   4 -19 -11   -1.91    3.77
  -4  19  12    1.22    4.01
  -4 -19 -12    0.16    4.18
   4  19  12   -1.54    3.77
   4 -19 -12    3.73    3.85
  -4  19  13    3.24    4.34
  -4 -19 -13   -3.85    3.97
   4  19  13   -0.73    4.30
   4  20   0   12.25    6.08
  -4 -20   0   25.83    8.72
   4 -20   0   12.73    6.24
  -4  20   0    3.85    5.23
   4 -20   1   10.06    5.96
  -4  20   1    6.04    5.19
   4  20  -1    5.27    6.24
  -4 -20  -1    7.91    5.84
   4  20   1   11.03    6.04
  -4 -20   1    0.45    5.35
   4 -20  -1   12.69    5.96
  -4  20  -1    2.80    5.11
   4 -20   2    4.34    5.15
  -4  20   2   -3.08    4.87
   4  20  -2   -0.28    5.47
  -4 -20  -2    5.07    4.95
   4  20   2    9.29    6.00
  -4 -20   2   -3.32    6.04
   4 -20  -2   -0.41    4.74
  -4  20  -2    3.57    4.42
   4 -20   3   15.29    6.45
  -4  20   3    2.72    4.70
   4  20  -3   23.60    8.11
  -4 -20  -3   16.06    6.41
   4  20   3   14.11    6.12
   4 -20  -3   10.70    5.84
  -4  20  -3   23.52    7.34
   4 -20   4    2.76    5.11
  -4  20   4   -0.61    4.01
  -4 -20  -4    0.89    4.34
   4  20   4    4.46    5.11
   4 -20  -4    4.10    4.66
  -4  20  -4   10.58    5.60
   4 -20   5    5.56    5.64
  -4  20   5    9.41    5.35
  -4 -20  -5   17.72    6.81
   4  20   5   15.37    6.57
   4 -20  -5   39.57    9.16
  -4  20  -5   12.49    6.12
  -4  20   6    0.49    3.77
  -4 -20  -6   -2.47    4.22
   4  20   6    0.53    3.85
   4 -20  -6    5.64    4.58
  -4  20   7    3.89    4.14
  -4 -20  -7    2.03    4.46
   4  20   7    6.41    4.18
   4 -20  -7    5.23    4.38
  -4  20   8    0.16    3.81
  -4 -20  -8    2.51    4.62
   4  20   8   -1.14    3.81
   4 -20  -8    3.00    4.05
  -4  20   9    2.55    4.05
  -4 -20  -9   12.20    5.51
   4  20   9   13.02    5.68
   4 -20  -9   10.79    5.23
  -4  20  10    4.01    4.62
  -4 -20 -10    1.05    4.34
   4  20  10    1.18    3.85
   4 -20 -10   -0.28    3.77
  -4  20  11    5.64    4.46
  -4 -20 -11    3.16    4.66
   4  20  11    7.54    4.70
   4 -20 -11    6.61    5.11
  -4  20  12    1.82    3.85
  -4 -20 -12   -1.38    4.26
   4  20  12    0.61    4.14
   4  21   0    3.04    4.83
  -4 -21   0    1.50    5.35
   4 -21   0    1.05    4.66
  -4  21   0    1.70    4.18
   4 -21   1   -0.85    4.50
  -4  21   1   -0.41    4.54
   4  21  -1    2.88    5.56
  -4 -21  -1   -2.31    5.03
   4  21   1    2.51    4.78
  -4 -21   1    1.30    5.19
   4 -21  -1    4.78    4.83
  -4  21  -1   -1.30    4.91
   4 -21   2   30.05    8.19
  -4  21   2   30.78    8.47
  -4 -21  -2   17.15    6.28
   4  21   2   17.23    6.41
   4 -21  -2   34.47    8.88
  -4  21  -2   11.60    5.39
   4 -21   3    1.54    4.66
  -4  21   3    5.84    4.74
   4  21  -3   -3.85    4.83
  -4 -21  -3    6.20    4.87
   4  21   3    2.15    4.50
  -4 -21   3    0.32    5.07
   4 -21  -3    1.30    4.78
  -4  21  -3    0.73    3.97
   4 -21   4    8.80    5.64
  -4  21   4    5.64    4.91
  -4 -21  -4   12.98    5.56
   4  21   4    6.89    4.99
   4 -21  -4    7.42    4.99
  -4  21  -4    5.07    5.19
   4 -21   5    0.61    5.15
  -4  21   5    2.80    4.42
  -4 -21  -5    2.31    4.42
   4  21   5   -6.45    4.14
   4 -21  -5    1.46    4.18
  -4  21  -5    0.85    4.62
  -4  21   6    6.57    4.58
  -4 -21  -6    7.79    5.19
   4  21   6    5.64    4.58
   4 -21  -6    9.29    5.31
  -4  21   7    1.34    3.77
  -4 -21  -7   -4.22    3.89
   4  21   7    1.50    4.26
   4 -21  -7   -0.97    3.97
  -4  21   8   34.47    8.27
  -4 -21  -8   41.72    9.29
   4  21   8   28.83    7.58
   4 -21  -8   58.10   11.11
  -4  21   9    5.39    4.42
  -4 -21  -9    0.93    4.34
   4  21   9    1.78    3.81
   4 -21  -9    2.15    3.89
  -4  21  10   -1.26    4.14
  -4 -21 -10   -0.73    4.01
   4  21  10    0.65    3.93
   4 -21 -10    0.32    3.77
  -4  21  11    0.20    3.81
  -4 -21 -11    7.70    5.03
   4  21  11    1.50    3.93
   4  22   0    1.18    4.50
  -4 -22   0   -0.81    5.35
   4 -22   0    3.16    5.03
  -4  22   0    3.77    4.34
   4 -22   1    3.89    4.95
  -4  22   1    3.65    4.50
   4  22  -1   -0.45    4.87
  -4 -22  -1    6.12    5.80
   4  22   1    1.66    4.42
  -4 -22   1    1.34    4.95
   4 -22  -1    0.16    4.42
  -4  22  -1    3.97    4.78
   4 -22   2   -2.43    4.78
  -4  22   2    3.57    4.50
   4  22  -2   -0.16    4.95
  -4 -22  -2    6.16    4.70
   4  22   2    4.30    4.87
  -4 -22   2   -1.74    5.07
   4 -22  -2   -3.37    4.26
  -4  22  -2    0.16    3.93
   4 -22   3    2.35    5.23
  -4  22   3    9.65    5.31
   4  22  -3   23.19    7.70
  -4 -22  -3    4.01    4.30
   4  22   3    6.16    4.91
  -4 -22   3   18.33    7.22
   4 -22  -3    9.45    5.68
  -4  22  -3    1.58    4.50
   4 -22   4    1.09    4.66
  -4  22   4    4.70    4.42
  -4 -22  -4    1.42    3.93
   4  22   4    6.69    4.58
   4 -22  -4    0.73    4.30
  -4  22  -4   -0.16    4.05
   4 -22   5    2.60    5.27
  -4  22   5    2.60    4.58
  -4 -22  -5   12.81    5.84
   4  22   5   13.58    6.16
   4 -22  -5    2.27    4.54
  -4  22  -5    4.50    4.78
  -4  22   6    4.26    3.85
  -4 -22  -6   -1.46    3.93
   4  22   6    0.45    4.01
   4 -22  -6   -1.01    4.01
  -4  22  -6   -2.23    4.30
  -4  22   7   20.84    6.00
  -4 -22  -7    9.89    5.43
   4  22   7   11.03    5.35
   4 -22  -7    6.12    4.70
  -4  22   8    0.20    3.69
  -4 -22  -8   -0.93    3.77
   4  22   8   -2.07    3.89
   4 -22  -8   -1.91    3.32
  -4  22   9    4.50    4.26
  -4 -22  -9    9.65    5.15
   4  22   9    6.33    4.50
   4 -22  -9    5.27    4.54
  -4  22  10    0.77    3.93
  -4 -22 -10   -1.74    3.93
   4  22  10    1.70    4.26
   4  23   0   48.78   10.22
  -4 -23   0   52.10   10.34
   4 -23   0   27.33    7.66
  -4  23   0   33.82    8.39
   4 -23   1    4.22    4.78
  -4  23   1    1.70    4.22
   4  23  -1   -1.42    4.54
  -4 -23  -1    1.38    4.70
   4  23   1    3.97    5.47
  -4 -23   1    1.78    4.42
   4 -23  -1   -0.93    4.38
  -4  23  -1    2.31    4.18
   4 -23   2   37.22    9.16
  -4  23   2   27.94    8.15
   4  23  -2   19.71    6.77
  -4 -23  -2   55.35   10.75
   4  23   2   40.59    9.08
  -4 -23   2   36.45    8.92
   4 -23  -2   37.91    9.20
  -4  23  -2   39.86    8.88
   4 -23   3    3.28    4.78
  -4  23   3    5.84    4.99
   4  23  -3    1.09    4.58
  -4 -23  -3    2.96    4.46
   4  23   3    4.38    4.34
  -4 -23   3    5.88    5.19
   4 -23  -3    4.50    4.70
  -4  23  -3   -1.74    3.73
   4 -23   4    5.03    5.07
  -4  23   4    5.47    4.74
   4  23  -4    5.76    5.43
  -4 -23  -4   -0.69    4.34
   4  23   4   20.35    6.61
   4 -23  -4    7.38    4.91
  -4  23  -4    7.26    4.87
   4 -23   5    2.55    5.11
  -4  23   5    0.65    4.14
  -4 -23  -5    1.99    4.01
   4  23   5   -0.97    4.18
   4 -23  -5    1.91    4.26
  -4  23  -5   -2.11    4.58
  -4  23   6   63.01   11.60
   4  23   6  102.71   16.62
   4 -23  -6   80.45   14.07
  -4  23  -6   52.31   11.19
  -4  23   7   -1.38    3.61
  -4 -23  -7    0.36    3.45
   4  23   7   -1.05    3.69
   4 -23  -7    1.99    4.46
  -4  23   8    6.53    4.58
  -4 -23  -8    3.08    4.54
   4  23   8    7.87    5.43
   4 -23  -8    4.46    4.54
  -4  23   9   -3.08    3.41
  -4 -23  -9   -1.05  262.59
   4  23   9   -0.69    4.22
   4  24   0   -0.12    4.87
  -4 -24   0   -1.09    4.34
   4 -24   0    1.99    4.54
  -4  24   0   -0.49    4.26
   4 -24   1    4.22    4.87
  -4  24   1   11.84    5.60
   4  24  -1    0.00    4.66
  -4 -24  -1    3.81    5.07
   4  24   1    2.07    4.50
  -4 -24   1    3.08    4.95
   4 -24  -1    2.96    5.19
  -4  24  -1    4.34    4.62
   4 -24   2    3.28    4.66
  -4  24   2   -0.93    4.46
   4  24  -2   -3.53    4.10
  -4 -24  -2   -0.89    4.66
   4  24   2    1.62    4.46
  -4 -24   2    0.69    4.70
   4 -24  -2   -0.65    4.18
  -4  24  -2    1.50    3.97
   4 -24   3   14.52    6.73
  -4  24   3    8.47    5.31
   4  24  -3   34.71    9.12
  -4 -24  -3   11.15    5.64
   4  24   3   17.76    6.12
   4 -24  -3   23.88    7.46
  -4  24  -3   15.57    6.49
   4 -24   4   -4.78    4.91
  -4  24   4    0.93    3.93
   4  24  -4    0.45    5.07
  -4 -24  -4    2.92    4.14
   4  24   4    3.00    4.38
   4 -24  -4   -0.20    4.05
  -4  24  -4   -1.78    4.95
   4 -24   5    3.16    6.12
  -4  24   5    2.64    3.89
  -4 -24  -5    0.53    4.14
   4  24   5    3.77    4.30
   4 -24  -5    4.38    4.78
  -4  24  -5   12.37    7.30
   4 -24   6   -0.61    4.83
  -4  24   6   -0.41    3.85
  -4 -24  -6    2.43    4.46
   4  24   6   -5.15    4.34
   4 -24  -6    1.91    4.46
  -4  24  -6    0.20    4.70
  -4  24   7    9.89    5.11
  -4 -24  -7    5.27    4.91
   4  24   7   16.62    6.20
   4 -24  -7    5.39    6.16
  -4  24   8   -0.53    3.53
   4  24   8    1.42    3.69
   4  25   0  100.03   16.71
  -4 -25   0   64.51   12.98
   4 -25   0   39.66    9.77
  -4  25   0   64.31   12.37
   4 -25   1   -3.00    4.46
  -4  25   1   -2.96    3.97
   4  25  -1    5.03    5.35
  -4 -25  -1    3.85    5.43
   4  25   1    5.47    5.15
  -4 -25   1   -0.93    4.95
   4 -25  -1    5.43    4.91
  -4  25  -1    1.78    4.62
   4 -25   2    7.46    5.72
  -4  25   2    9.12    5.31
   4  25  -2   10.46    6.12
  -4 -25  -2    8.51    5.92
   4  25   2    3.85    5.07
  -4 -25   2   17.56    7.46
   4 -25  -2    6.20    4.91
  -4  25  -2    2.11    4.50
   4 -25   3    1.78    4.83
  -4  25   3   -2.31    3.77
   4  25  -3    1.70    4.66
  -4 -25  -3   -0.97    3.69
   4  25   3    6.12    4.38
  -4 -25   3    2.23    5.68
   4 -25  -3   -3.69    4.54
  -4  25  -3   -0.85    3.93
   4 -25   4   -1.09    4.58
  -4  25   4    1.30    4.30
   4  25  -4   12.77    6.08
  -4 -25  -4   -3.08    3.97
   4  25   4    2.39    4.01
   4 -25  -4    4.22    5.11
  -4  25  -4    2.72    4.95
   4 -25   5    1.18    5.27
  -4  25   5   -3.89    4.05
  -4 -25  -5    3.08    4.18
   4  25   5    2.07    4.66
   4 -25  -5    0.69    4.34
  -4  25  -5    0.81    4.30
   4 -25   6    2.27    5.47
  -4  25   6    9.65    5.11
   4  25   6   12.89    6.00
  -4  25  -6    3.93    4.87
  -4  25   7   -0.89    3.77
   4  25   7    2.11    4.10
   4  26   0    0.20    4.99
  -4 -26   0    4.05    5.39
   4 -26   0    0.57    4.70
  -4  26   0    6.20    5.15
   4 -26   1    3.45    5.07
  -4  26   1   16.67    6.33
   4  26  -1   18.12    6.77
  -4 -26  -1    3.00    6.00
   4  26   1    0.97    5.23
  -4 -26   1    7.34    7.38
   4 -26  -1   21.00    7.26
  -4  26  -1   13.18    6.04
   4 -26   2   -1.58    4.95
  -4  26   2    3.97    4.70
   4  26  -2    3.85    4.95
   4  26   2    0.69    4.54
  -4 -26   2   -0.53    4.91
   4 -26  -2   -4.78    3.97
  -4  26  -2    3.97    4.50
   4 -26   3    4.95    5.23
  -4  26   3    5.23    4.95
   4  26  -3    1.38    4.70
   4  26   3    4.18    4.62
   4 -26  -3    1.18    5.60
  -4  26  -3    6.37    4.66
   4 -26   4    0.77    4.70
  -4  26   4   -2.84    3.93
   4  26  -4    1.42    4.83
   4  26   4    2.47    4.01
  -4  26  -4   -0.69    4.26
   4 -26   5    1.22    5.15
  -4  26   5    3.73    4.58
   4  26   5    4.54    5.03
  -4  26  -5    1.95    4.83
   4  27   0    9.97    6.12
   4 -27   0   11.76    7.01
  -4  27   0   20.64    8.07
   4 -27   1    5.47    4.83
  -4  27   1    2.27   45.74
   4  27  -1    2.88    4.10
   4  27   1   -4.05    4.66
  -4  27  -1    4.54    4.78
   4 -27   2    5.15    5.60
  -4  27   2    5.92    5.35
   4  27  -2    6.20    6.08
   4  27   2   10.99    6.81
  -4  27  -2    5.72    5.31
   5   0   2    9.24    3.00
  -5   0  -2   15.65    3.28
  -5  -1  -2  771.21   93.06
   5   1   2  494.27   59.85
  -5  -1  -3   -0.04    2.92
   5   1   3    0.89    2.88
   5  -2   1  935.84  112.60
  -5   2  -1  970.30  116.70
  -5  -2  -2   76.63   10.70
   5   2   2   69.17    9.77
  -5  -2  -3  923.27  111.42
   5   2   3  978.00  117.95
  -5  -2  -4  109.56   14.27
   5   2   4   96.79   12.85
   5  -3   0    8.39    3.49
  -5   3   0    1.05    3.08
   5  -3   1   62.24    8.84
  -5  -3  -1   79.11   12.16
   5   3   1   74.40   11.76
  -5   3  -1   49.95    7.34
   5  -3   2  166.61   20.88
  -5  -3  -2  265.59   33.09
   5   3   2  141.47   18.49
  -5   3  -2  164.78   20.64
  -5  -3  -3   65.81   10.06
   5   3   3   55.19    8.92
  -5  -3  -4  643.08   78.05
   5   3   4  721.74   87.46
  -5  -3  -5    3.97    4.26
   5   3   5    1.82    4.26
   5  -4   0    4.54    4.05
  -5   4   0   -1.70    3.45
   5  -4   1  312.62   38.44
  -5   4   1  335.17   41.07
  -5  -4  -1  224.15   28.87
   5   4   1  228.16   29.32
   5  -4  -1  363.71   44.52
  -5   4  -1  332.33   40.67
   5  -4   2    0.77    4.42
  -5  -4  -2    5.03    5.51
   5   4   2   -3.77    5.07
  -5   4  -2    2.47    4.54
  -5  -4  -4    1.78    4.54
   5   4   4    1.91    4.46
  -5  -4  -5  204.76   25.95
   5   4   5  186.15   23.76
  -5  -4  -6   -1.50    3.97
   5  -5   0   18.12    5.03
  -5   5   0    9.57    4.30
   5  -5   1    1.91    4.74
  -5   5   1   -1.26    3.57
  -5  -5  -1    0.61    6.16
   5   5   1   22.95    7.50
   5  -5  -1    6.08    3.93
  -5   5  -1   11.92    4.70
   5  -5   2 2505.02  301.55
  -5  -5  -2 2253.22  271.75
   5   5   2 2591.39  312.30
   5  -5  -2 3764.43  452.51
  -5   5  -2 2443.39  294.21
  -5  -5  -3   11.52    5.88
   5   5   3   18.53    6.41
  -5  -5  -4  253.58   32.15
   5   5   4  191.87   24.69
  -5  -5  -5   18.41    4.99
   5   5   5   20.72    5.84
  -5  -5  -6    3.08    3.97
   5   5   6    8.68    4.05
  -5  -5  -7  110.41   15.29
   5  -6   0    4.78    5.43
  -5   6   0   -0.28    5.23
   5  -6   1  495.08   60.66
  -5   6   1  296.44   36.70
  -5  -6  -1  243.45   31.51
   5   6   1  286.18   36.45
   5  -6  -1  268.38   33.37
  -5   6  -1  312.82   38.84
   5  -6   2    6.57    5.27
  -5   6   2    8.19    4.42
  -5  -6  -2    7.54    6.49
   5   6   2    5.80    6.24
   5  -6  -2    9.04    4.62
  -5   6  -2    7.70    4.99
  -5  -6  -3  103.96   15.33
   5   6   3   92.81   13.91
  -5  -6  -4    5.03    6.12
   5   6   4    7.99    6.16
  -5  -6  -5    3.28    4.18
   5   6   5   15.65    5.51
  -5  -6  -6   15.69    4.74
   5   6   6    1.82    3.69
  -5  -6  -7   56.32    9.16
   5   6   7   54.13    8.72
   5   7   0   12.93    7.50
   5  -7   0   15.21    5.92
   5  -7   1   22.34    6.20
  -5   7   1    5.64    4.54
  -5  -7  -1   13.62    7.22
   5   7   1    7.42    6.77
   5  -7  -1   13.54    5.11
  -5   7  -1    9.29    4.83
   5  -7   2  103.56   14.72
  -5   7   2   93.95   13.10
  -5  -7  -2   74.45   12.57
   5   7   2   64.96   11.56
  -5   7  -2   64.88   10.42
  -5   7   3   59.40    9.77
  -5  -7  -3   49.91    9.97
   5   7   3   51.82    9.89
   5  -7  -3   79.23   11.68
  -5  -7  -4   36.25    7.66
   5   7   4   43.95    9.16
  -5  -7  -5   21.37    5.80
   5   7   5   22.42    5.92
  -5  -7  -6   82.03   12.04
   5   7   6   89.61   12.81
  -5  -7  -7    4.99    4.18
   5   7   7   10.83    4.54
  -5  -7  -8  131.82   18.04
   5   7   8  123.67   16.95
   5   8   0    5.35    7.14
  -5  -8   0   -3.16    7.38
   5  -8   0   -0.28    4.83
  -5   8   0    1.50    5.19
   5  -8   1  114.14   16.02
  -5   8   1   70.88   11.27
  -5  -8  -1   83.97   14.03
   5   8   1   89.81   13.95
   5  -8  -1   68.73   10.62
  -5   8  -1   80.53   12.20
   5  -8   2   23.19    6.49
  -5   8   2   54.25    9.16
  -5  -8  -2   31.46    8.88
   5   8   2   28.46    8.19
   5  -8  -2   23.03    5.72
  -5   8  -2   32.11    7.54
   5  -8   3  201.40   26.40
  -5   8   3  178.90   23.19
  -5  -8  -3  274.30   35.11
   5   8   3  234.61   30.45
   5  -8  -3  226.42   28.75
  -5   8  -3  173.79   23.23
  -5   8   4   16.42    5.31
  -5  -8  -4   29.56    7.01
   5   8   4   22.63    6.61
   5  -8  -4   24.17    6.08
  -5  -8  -5  846.23  103.31
   5   8   5  819.46   99.95
  -5  -8  -6   -2.43    3.93
   5   8   6    5.23    4.18
  -5  -8  -7  345.99   43.43
   5   8   7  335.08   41.97
  -5  -8  -8   12.81    4.78
   5   8   8   10.83    4.83
   5   9   0   16.54    7.83
  -5  -9   0    9.61    6.89
   5  -9   0   35.64    7.99
  -5   9   0    4.50    5.35
   5  -9   1    6.49    5.35
  -5   9   1   -1.54    5.72
  -5  -9  -1   -4.95    7.62
   5   9   1    2.88    6.16
   5  -9  -1    4.38    4.95
  -5   9  -1    1.82    5.07
   5  -9   2    8.92    5.88
  -5   9   2   18.41    5.80
  -5  -9  -2   20.84    7.01
   5   9   2   16.26    6.97
   5  -9  -2   17.56    5.15
  -5   9  -2   17.80    6.77
   5  -9   3    6.49    6.20
  -5   9   3    3.61    4.78
  -5  -9  -3   -1.34    4.74
   5   9   3    0.61    5.88
   5  -9  -3    5.72    4.22
  -5   9  -3   -1.34    6.24
  -5   9   4  132.14   17.80
  -5  -9  -4  119.09   16.91
   5   9   4  146.90   19.95
   5  -9  -4  182.30   23.76
  -5   9   5    2.68    3.65
  -5  -9  -5    7.91    5.19
   5   9   5    2.55    4.26
   5  -9  -5    2.60    4.18
  -5  -9  -6    3.93    4.30
   5   9   6    5.80    4.05
  -5  -9  -7    5.27    4.22
   5   9   7    5.03    4.14
  -5  -9  -8    4.62    4.46
   5   9   8    3.97    4.34
  -5  -9  -9   -2.31    4.46
   5   9   9    1.18    4.50
  -5  -9 -10   49.39    9.69
   5   9  10   59.16   10.75
   5  10   0    0.65    6.69
  -5 -10   0   -0.36    6.69
   5 -10   0    3.28    5.03
  -5  10   0   -0.73    5.23
   5 -10   1  820.68  100.35
  -5  10   1  998.68  121.60
  -5 -10  -1  819.87  100.96
   5  10   1  847.04  103.96
   5 -10  -1  937.46  114.18
  -5  10  -1  720.53   88.27
   5 -10   2    1.50    5.60
  -5  10   2    0.04    4.78
  -5 -10  -2    4.78    5.76
   5  10   2    0.65    6.20
   5 -10  -2    6.77    4.54
  -5  10  -2    4.74    5.92
   5 -10   3  157.41   21.81
  -5 -10  -3  134.37   18.81
   5  10   3  157.36   21.37
   5 -10  -3   96.58   13.83
  -5  10  -3  106.64   15.98
  -5  10   4    1.01    3.73
  -5 -10  -4   11.31    5.64
   5  10   4    0.73    4.30
   5 -10  -4    7.01    4.05
  -5  10   5    4.10    4.05
  -5 -10  -5    0.81    4.54
   5  10   5   -1.42    4.05
   5 -10  -5    1.58    4.01
  -5  10   6    5.76    4.10
  -5 -10  -6   18.21    6.04
   5  10   6   13.46    5.07
   5 -10  -6    8.72    4.74
  -5 -10  -7   74.69   11.72
   5  10   7   45.01    8.31
  -5 -10  -8    3.49    4.70
   5  10   8    3.16    4.54
  -5 -10  -9 1062.34  129.79
   5  10   9 1214.40  148.04
  -5 -10 -10    4.50    5.35
   5  10  10    2.64    5.39
   5  11   0   12.85    7.46
  -5 -11   0   19.91    7.91
   5 -11   0    9.20    5.43
  -5  11   0   18.85    6.33
   5 -11   1    6.81    5.47
  -5  11   1    9.37    5.23
  -5 -11  -1   -3.32    6.16
   5  11   1   -1.34    6.20
   5 -11  -1    8.39    4.91
  -5  11  -1    0.85    4.70
   5 -11   2   26.60    7.62
  -5  11   2   29.84    7.46
  -5 -11  -2   28.55    7.74
   5  11   2   18.69    7.34
   5 -11  -2   51.33    9.08
  -5  11  -2   29.68    7.30
   5 -11   3    2.68    5.47
  -5  11   3   -0.49    3.97
  -5 -11  -3   -5.68    4.99
   5  11   3    0.53    4.62
   5 -11  -3   -0.57    3.89
  -5  11  -3    6.81    5.72
  -5  11   4   17.35    5.27
  -5 -11  -4   48.21    9.29
   5 -11  -4   18.81    5.47
  -5  11   5    4.78    4.14
  -5 -11  -5    1.01    4.78
   5  11   5    7.87    5.03
   5 -11  -5    0.89    3.89
  -5  11   6    7.34    4.30
  -5 -11  -6    2.96    4.74
   5  11   6   14.68    5.68
   5 -11  -6   17.15    5.43
  -5  11   7    0.16    3.85
  -5 -11  -7    2.27    4.78
   5  11   7    1.91    4.58
   5 -11  -7    0.24    4.01
  -5 -11  -8   55.27   10.02
   5  11   8   37.47    8.27
  -5 -11  -9    3.61    5.51
   5  11   9    4.30    5.15
  -5 -11 -10    8.64    5.19
   5  11  10   12.81    5.92
  -5 -11 -11    2.51    4.46
   5  11  11    1.38    4.34
  -5 -11 -12   13.79    5.68
   5  12   0    6.53    6.41
  -5 -12   0   24.61    7.70
   5 -12   0   -0.24    5.03
  -5  12   0    1.66    4.58
  -5  12   1   35.03    7.50
   5  12  -1   58.27   11.03
  -5 -12  -1   21.29    7.46
   5  12   1   37.91    8.68
  -5 -12   1   61.51   11.80
   5 -12  -1   36.01    7.83
  -5  12  -1   23.03    6.65
   5 -12   2   20.19    6.89
  -5  12   2   19.75    5.92
  -5 -12  -2   18.29    6.73
   5  12   2   28.50    7.62
   5 -12  -2   23.23    6.20
  -5  12  -2   26.76    7.22
   5 -12   3  226.21   29.88
  -5  12   3  331.39   41.76
  -5 -12  -3  316.96   40.75
   5  12   3  395.34   49.87
   5 -12  -3  356.41   44.76
  -5  12  -3  344.41   44.08
  -5  12   4   59.36    9.69
   5  12   4   40.95    8.47
   5 -12  -4   73.51   11.39
  -5  12  -4   51.54   10.42
  -5  12   5    4.50    4.26
  -5 -12  -5    4.30    5.47
   5  12   5   19.91    6.61
  -5  12   6    4.54    4.34
  -5 -12  -6   10.14    5.80
   5  12   6    1.26    5.19
   5 -12  -6   12.00    4.87
  -5  12   7   12.69    5.56
  -5 -12  -7   19.54    6.73
   5  12   7   26.80    7.34
   5 -12  -7   41.24    8.19
  -5  12   8    4.18    4.87
  -5 -12  -8   13.91    6.33
   5  12   8   10.87    5.76
   5 -12  -8    3.81    5.11
  -5 -12  -9    1.82    4.95
   5  12   9    6.61    5.27
  -5 -12 -10    5.35    4.74
   5  12  10    4.34    4.62
  -5 -12 -11   33.94    7.70
   5  12  11   28.63    7.22
  -5 -12 -12   -0.28    3.93
   5  12  12    2.72    3.81
  -5 -12 -13    1.95    4.34
   5  13   0   -1.74    6.28
  -5 -13   0    8.23    6.08
  -5  13   0   15.49    5.96
   5 -13   1   20.31    6.93
  -5  13   1   26.36    6.69
   5  13  -1   29.60    8.27
  -5 -13  -1   19.42    7.18
   5  13   1   16.95    7.10
  -5 -13   1   10.26    7.22
   5 -13  -1   21.49    6.45
  -5  13  -1   21.73    6.73
   5 -13   2    9.53    6.49
  -5  13   2    5.11    4.70
  -5 -13  -2    6.85    6.08
   5  13   2   33.57    8.88
   5 -13  -2    5.31    4.95
  -5  13  -2    9.73    5.96
   5 -13   3   94.92   15.16
  -5  13   3   70.43   11.39
  -5 -13  -3  117.14   17.60
   5  13   3   86.65   13.79
   5 -13  -3   94.84   13.99
  -5  13  -3  105.67   16.58
   5 -13   4   50.08   10.70
  -5  13   4  104.86   15.00
   5  13   4   80.16   13.26
   5 -13  -4  100.68   14.60
  -5  13  -4   66.21   12.29
  -5  13   5   14.76    4.95
  -5 -13  -5   34.63    8.35
   5  13   5   29.44    7.91
   5 -13  -5   28.50    6.57
  -5  13   6  634.97   78.26
  -5 -13  -6  825.14  101.73
   5  13   6  711.20   88.07
   5 -13  -6  589.97   72.94
  -5  13   7    7.38    5.43
  -5 -13  -7    8.11    5.47
   5  13   7    2.84    5.47
   5 -13  -7    6.73    4.78
  -5  13   8   18.73    6.08
  -5 -13  -8   25.46    7.14
   5  13   8   16.14    6.33
   5 -13  -8   24.13    6.93
  -5 -13  -9   10.14    5.72
   5  13   9    3.69    4.95
  -5 -13 -11    5.96    4.50
   5  13  11   18.12    6.20
  -5 -13 -12    9.16    4.95
   5  13  12   30.61    7.42
  -5 -13 -13    8.23    5.03
   5  13  13    6.89    4.87
  -5 -13 -14    5.15    4.99
   5  14   0    2.43    6.53
  -5 -14   0    4.46    6.41
   5 -14   0    2.60    4.78
  -5  14   0   -0.41    4.38
   5 -14   1    9.81    6.00
  -5  14   1    8.43    5.56
   5  14  -1    9.37    6.89
  -5 -14  -1   14.35    7.10
   5  14   1   -4.91    5.39
  -5 -14   1    3.08    6.65
   5 -14  -1   14.60    6.12
  -5  14  -1    0.45    5.39
   5 -14   2    1.99    5.88
  -5  14   2   12.20    5.72
  -5 -14  -2    6.00    6.28
   5  14   2    0.77    5.96
   5 -14  -2    4.46    5.27
  -5  14  -2    4.34    5.84
   5 -14   3   40.87    9.49
  -5  14   3   53.81    9.53
  -5 -14  -3   54.62   11.07
   5  14   3   35.56    8.80
   5 -14  -3   41.48    8.39
  -5  14  -3   50.60   10.79
   5 -14   4    6.49    7.01
  -5  14   4   -1.58    4.42
  -5 -14  -4    1.95    5.51
   5  14   4   -0.73    5.68
   5 -14  -4    2.92    4.26
  -5  14  -4   -4.18    6.49
  -5  14   5  384.15   48.33
  -5 -14  -5  407.91   52.10
   5  14   5  311.73   40.55
   5 -14  -5  357.47   45.25
  -5  14   6    4.91    4.95
  -5 -14  -6    6.73    5.84
   5  14   6    3.20    5.88
   5 -14  -6   -1.50    4.74
  -5  14   7    8.68    4.95
  -5 -14  -7   14.88    6.24
   5  14   7   13.58    6.73
   5 -14  -7   -1.09    4.83
  -5  14   8    8.56    4.99
  -5 -14  -8    8.27    5.15
   5  14   8   -0.73    4.99
   5 -14  -8    8.56    5.03
  -5  14   9    4.26    4.87
  -5 -14  -9    9.89    5.27
   5  14   9   19.95    6.24
   5 -14  -9   16.83    5.51
  -5 -14 -10   -1.38    3.73
   5  14  10   -2.35    3.93
   5 -14 -10   -2.07    4.14
  -5 -14 -11   -0.61    3.57
   5  14  11   -2.88    3.85
  -5 -14 -12    3.85    4.26
   5  14  12    2.76    4.26
  -5 -14 -13   11.84    5.80
   5  14  13   13.06    5.68
  -5 -14 -14    3.61    4.54
   5  14  14   -3.32    4.01
  -5 -14 -15   -0.49    3.97
   5  15   0    8.15    7.38
  -5 -15   0   -0.65    6.85
   5 -15   0    0.28    5.23
  -5  15   0    3.04    5.07
   5 -15   1    5.43    6.37
  -5  15   1    7.22    5.72
   5  15  -1    6.81    6.93
  -5 -15  -1   11.35    7.46
   5  15   1    2.43    6.00
  -5 -15   1   10.95    7.70
   5 -15  -1    2.11    5.47
  -5  15  -1   12.81    6.65
   5 -15   2   24.77    8.03
  -5 -15  -2   13.71    7.01
   5  15   2   10.91    7.54
  -5  15  -2   13.50    6.41
   5 -15   3    8.76    6.37
  -5  15   3   11.27    5.56
  -5 -15  -3    7.46    6.53
   5  15   3   19.67    7.14
   5 -15  -3    4.18    5.31
  -5  15  -3   11.39    7.14
   5 -15   4  660.92   82.15
  -5  15   4  551.85   68.69
  -5 -15  -4  685.66   85.31
   5  15   4  613.89   76.76
   5 -15  -4  698.63   86.20
  -5  15  -4  691.33   86.00
  -5  15   5    2.19    4.83
  -5 -15  -5    3.97    6.45
   5  15   5   -1.22    5.64
   5 -15  -5    0.85    4.58
  -5  15   6   30.86    7.22
  -5 -15  -6   12.00    6.61
   5  15   6   20.15    7.14
   5 -15  -6   22.67    6.85
  -5  15   7   -5.35    4.18
  -5 -15  -7   -0.65    4.42
   5  15   7    3.20    5.43
   5 -15  -7   -1.82    4.34
  -5  15   8   15.53    5.43
  -5 -15  -8   35.60    8.19
   5  15   8   35.68    8.31
   5 -15  -8   12.89    5.03
  -5  15   9    1.62    4.22
  -5 -15  -9    2.11    4.18
   5  15   9   -2.51    4.01
   5 -15  -9    4.01    4.38
  -5  15  10   10.02    5.27
  -5 -15 -10    2.39    4.22
   5  15  10   -1.34    4.18
   5 -15 -10    3.57    4.18
  -5 -15 -11    2.60    4.05
   5  15  11    4.46    4.58
   5 -15 -11    2.88    4.74
  -5 -15 -12    1.46    4.01
   5  15  12    3.00    4.46
  -5 -15 -13    2.76    3.85
   5  15  13    1.42    4.10
  -5 -15 -14    0.32    4.10
   5  15  14    3.49    4.46
  -5 -15 -15    3.20    4.78
   5  15  15   -0.36    3.81
   5  16   0    8.76    7.18
  -5 -16   0   -0.73    6.61
   5 -16   0    0.57    5.51
  -5  16   0    1.22    5.68
   5 -16   1  894.88  110.21
  -5  16   1  861.23  106.07
   5  16  -1  937.46  115.60
  -5 -16  -1  767.16   95.25
   5  16   1  799.60   99.30
  -5 -16   1 1055.86  129.83
   5 -16  -1  801.62   98.90
  -5  16  -1  713.23   88.56
   5 -16   2    7.46    6.69
  -5  16   2    3.20    5.23
   5  16  -2    8.47    7.10
  -5 -16  -2    0.61    6.28
   5  16   2    9.41    7.10
   5 -16  -2    6.97    5.96
  -5  16  -2    4.78    5.92
   5 -16   3   81.82   14.03
  -5  16   3   47.85    9.73
   5  16   3   42.13    9.77
   5 -16  -3   74.24   12.65
  -5  16  -3   32.92    9.20
   5 -16   4    1.70    6.04
  -5  16   4    9.29    5.56
  -5 -16  -4    4.05    6.20
   5  16   4    3.89    6.57
   5 -16  -4    1.05    4.99
  -5  16  -4   -3.57    6.81
  -5  16   5   10.62    5.47
  -5 -16  -5   13.26    6.93
   5  16   5   20.92    7.42
   5 -16  -5    3.61    5.11
  -5  16  -5    9.29    6.24
  -5  16   6   -3.20    4.30
  -5 -16  -6   -0.69    4.58
   5  16   6    9.16    5.39
   5 -16  -6   -3.89    4.50
  -5  16   7    5.27    4.26
  -5 -16  -7    1.14    4.54
   5  16   7   11.76    5.80
   5 -16  -7   17.27    5.88
  -5  16   8    2.84    4.01
  -5 -16  -8    3.77    4.95
   5  16   8    2.43    4.50
   5 -16  -8   -0.20    3.49
  -5  16   9   24.21    6.45
  -5 -16  -9    4.34    4.42
   5  16   9    8.03    4.78
   5 -16  -9   16.50    5.31
  -5  16  10    5.31    4.38
  -5 -16 -10   -4.30    3.93
   5  16  10    0.08    4.01
   5 -16 -10    3.41    3.97
  -5  16  11    3.77    4.50
  -5 -16 -11    3.16    4.58
   5  16  11    0.45    4.34
   5 -16 -11    5.56    5.11
  -5 -16 -12   -0.04    3.69
   5  16  12    5.72    4.26
   5 -16 -12    6.16    4.70
  -5 -16 -13   -0.41    4.22
   5  16  13   -1.05    3.85
  -5 -16 -14   -2.07    3.77
   5  16  14   -0.24    4.14
   5  17   0    1.38    6.45
  -5 -17   0    7.99    6.45
   5 -17   0   -0.16    5.56
  -5  17   0    2.47    5.11
   5 -17   1    5.76    6.24
  -5  17   1    5.27    5.60
   5  17  -1   -6.89    6.16
  -5 -17  -1   -4.30    6.20
   5  17   1   -1.42    5.84
  -5 -17   1  -11.19    6.69
   5 -17  -1    3.89    5.88
  -5  17  -1   -2.76    5.64
   5 -17   2    4.01    5.51
  -5  17   2    8.31    5.88
   5  17  -2   31.42    8.84
  -5 -17  -2    1.42    5.96
   5  17   2    5.80    6.73
   5 -17  -2   11.19    6.28
  -5  17  -2    1.34    4.99
   5 -17   3    6.61    5.68
  -5  17   3    4.83    4.91
  -5 -17  -3   -1.14    5.31
   5  17   3    6.12    6.08
   5 -17  -3    1.09    4.95
  -5  17  -3   -2.31    4.99
   5 -17   4   34.71    9.04
  -5  17   4    4.83    4.87
  -5 -17  -4    3.45    5.43
   5  17   4    3.24    5.60
   5 -17  -4    2.76    4.83
  -5  17   5    7.70    4.99
  -5 -17  -5    2.23    5.19
   5  17   5    5.72    5.84
   5 -17  -5    3.81    4.87
  -5  17  -5   13.30    6.81
  -5  17   6    3.69    3.81
  -5 -17  -6    6.93    4.99
   5  17   6   10.38    5.43
   5 -17  -6   10.87    5.03
  -5  17   7    1.87    3.57
  -5 -17  -7    1.87    4.18
   5  17   7    4.10    4.66
   5 -17  -7    4.30    4.18
  -5  17   8   18.21    5.84
  -5 -17  -8   10.54    5.39
   5  17   8   11.68    5.47
   5 -17  -8   28.67    7.01
  -5  17   9    2.31    3.69
  -5 -17  -9    5.31    4.46
   5  17   9   -1.54    4.26
   5 -17  -9    0.65    3.32
  -5  17  10    2.03    4.22
  -5 -17 -10    6.28    4.91
   5  17  10    0.81    3.77
   5 -17 -10    0.16    3.57
  -5  17  11    0.04    4.26
  -5 -17 -11    0.28    4.18
   5  17  11    4.30    4.58
   5 -17 -11   -3.41    4.18
  -5  17  12    4.26    4.10
  -5 -17 -12   -0.16    3.73
   5  17  12    1.14    4.05
   5 -17 -12    2.39    4.50
  -5 -17 -13    1.54    3.93
   5  17  13    6.37    4.42
   5 -17 -13    5.39    4.78
  -5 -17 -14   -0.77    3.97
   5  17  14    0.85    4.22
   5  18   0   -0.08    5.96
  -5 -18   0   -2.27    5.76
   5 -18   0    1.62    4.91
  -5  18   0    1.01    4.74
   5 -18   1   43.14    9.53
  -5  18   1   52.55   10.42
   5  18  -1   35.80    9.49
  -5 -18  -1   52.47   10.91
   5  18   1   45.78   10.10
  -5 -18   1   24.73    9.04
   5 -18  -1   37.83    8.76
  -5  18  -1   51.09   10.58
   5 -18   2    5.43    5.60
  -5  18   2    5.27    4.62
   5  18  -2    1.66    6.33
  -5 -18  -2   12.33    6.16
   5  18   2    6.24    6.41
  -5 -18   2    5.19    6.85
   5 -18  -2    2.23    4.78
  -5  18  -2    9.89    5.64
   5 -18   3    7.50    5.76
  -5  18   3   14.07    5.84
  -5 -18  -3    4.87    5.27
   5  18   3    6.28    5.76
   5 -18  -3   25.22    7.18
  -5  18  -3   11.72    5.96
   5 -18   4    0.53    5.56
  -5  18   4    9.37    5.07
  -5 -18  -4    3.49    5.07
   5  18   4   10.95    5.92
   5 -18  -4    9.73    5.23
  -5  18  -4    5.96    5.80
   5 -18   5    7.01    6.08
  -5  18   5    5.47    4.42
  -5 -18  -5   -2.64    4.78
   5  18   5   -4.22    5.07
   5 -18  -5    2.84    4.38
  -5  18   6    2.43    3.77
  -5 -18  -6    1.62    4.83
   5  18   6   11.76    5.51
   5 -18  -6    0.77    3.85
  -5 -18  -7   11.35    6.00
   5 -18  -7    7.99    4.83
  -5  18   8    1.50    3.57
  -5 -18  -8   17.52    6.28
   5  18   8   12.25    5.92
   5 -18  -8    2.19    3.97
  -5  18   9    9.49    4.62
  -5 -18  -9    1.99    4.30
   5  18   9    2.39    4.01
   5 -18  -9    5.43    4.05
  -5  18  10    1.09    4.30
  -5 -18 -10    4.58    4.50
   5  18  10   -4.70    3.93
   5 -18 -10    7.01    4.50
  -5  18  11    8.19    4.99
  -5 -18 -11   -0.12    3.89
   5  18  11    9.65    5.19
   5 -18 -11    7.83    4.70
  -5  18  12    1.99    3.85
  -5 -18 -12    0.93    3.77
   5  18  12    5.43    4.70
   5 -18 -12    1.50    4.74
  -5  18  13    3.49    4.26
  -5 -18 -13    1.54    4.18
   5  18  13   -1.01    4.14
   5  19   0    9.24    6.33
  -5 -19   0    4.83    6.00
   5 -19   0   -1.78    4.78
  -5  19   0   -0.77    4.42
   5 -19   1   -2.27    5.15
  -5  19   1    7.01    5.19
   5  19  -1    5.31    6.04
  -5 -19  -1    1.91    5.72
   5  19   1    2.76    5.39
  -5 -19   1    5.96    7.95
   5 -19  -1    1.95    4.74
  -5  19  -1    4.42    5.43
   5 -19   2   29.96    8.19
  -5  19   2    5.80    5.31
   5  19  -2   -1.22    6.24
  -5 -19  -2    4.14    5.19
   5  19   2   -7.06    5.15
  -5 -19   2    2.07    6.28
   5 -19  -2    8.72    5.88
  -5  19  -2    1.22    4.42
   5 -19   3    3.41    5.31
  -5  19   3   -0.20    4.30
  -5 -19  -3    0.57    5.07
   5  19   3   -3.81    4.74
   5 -19  -3   -3.89    4.58
  -5  19  -3    2.55    4.54
   5 -19   4    8.64    5.92
  -5  19   4   14.48    5.76
  -5 -19  -4    7.66    5.47
   5  19   4    7.99    5.68
   5 -19  -4   12.98    5.72
  -5  19  -4    6.16    5.51
   5 -19   5   -3.85    5.03
  -5  19   5   -1.42    3.89
  -5 -19  -5    4.95    5.03
   5  19   5    0.49    4.66
   5 -19  -5    2.80    4.34
  -5  19  -5   -3.49    4.95
  -5  19   6    4.62    4.42
  -5 -19  -6   12.85    6.04
   5  19   6   19.62    6.97
   5 -19  -6    4.50    4.34
  -5  19   7    1.74    3.85
  -5 -19  -7    1.26    4.34
   5  19   7    7.34    5.07
   5 -19  -7   -0.61    3.65
  -5  19   8    6.49    4.18
  -5 -19  -8    0.36    4.66
   5  19   8    1.78    4.14
   5 -19  -8    8.47    5.19
  -5  19   9    0.00    3.77
  -5 -19  -9   -1.78    3.97
   5  19   9   -3.77    3.93
   5 -19  -9    0.73    4.22
  -5  19  10   -2.11    3.77
  -5 -19 -10   -0.20    4.10
   5  19  10    3.32    4.22
   5 -19 -10    4.95    4.22
  -5  19  11   -1.91    4.26
  -5 -19 -11   -4.34    3.61
   5  19  11    5.43    4.42
   5 -19 -11   -2.60    3.53
  -5  19  12    2.07    3.81
  -5 -19 -12    3.77    4.74
   5  19  12    7.30    4.91
  -5  19  13    0.32    4.30
  -5 -19 -13    2.80    5.19
   5  19  13   -1.42    4.38
   5  20   0    3.85    4.70
  -5 -20   0   -3.28    5.47
   5 -20   0    2.84    4.83
  -5  20   0    2.60    4.38
   5 -20   1   31.55    8.23
  -5  20   1   46.10    9.85
   5  20  -1   36.49    9.20
  -5 -20  -1   26.52    7.87
   5  20   1   58.43   11.52
  -5 -20   1   37.26    9.81
   5 -20  -1   46.35    9.81
  -5  20  -1   36.78    8.80
   5 -20   2    3.12    5.23
  -5  20   2    8.15    5.15
   5  20  -2    4.26    5.56
  -5 -20  -2   -0.85    4.26
   5  20   2   -2.23    4.62
  -5 -20   2   -0.32    5.72
   5 -20  -2    2.72    4.66
  -5  20  -2   -0.49    4.50
   5 -20   3   17.31    6.53
  -5  20   3    1.78    4.58
   5  20  -3    2.68    6.33
  -5 -20  -3   11.27    5.76
   5  20   3    7.79    5.15
   5 -20  -3   17.80    6.20
  -5  20  -3   10.95    5.51
   5 -20   4   -2.64    4.54
  -5  20   4    0.97    4.05
  -5 -20  -4    1.66    4.22
   5  20   4    2.07    4.26
   5 -20  -4   -1.01    4.22
  -5  20  -4   -2.11    4.46
   5 -20   5  108.30   17.07
  -5  20   5   58.39   10.79
  -5 -20  -5   58.02   11.68
   5  20   5   76.35   13.71
   5 -20  -5   74.36   13.14
  -5  20   6    0.57    3.81
  -5 -20  -6    3.20    4.78
   5  20   6    0.32    4.14
   5 -20  -6   -0.85    3.81
  -5  20  -6    1.50    4.42
  -5  20   7    5.88    4.62
  -5 -20  -7    7.50    4.91
   5  20   7    7.34    4.95
   5 -20  -7    4.70    4.58
  -5  20   8   -1.05    3.57
  -5 -20  -8   -1.14    4.01
   5  20   8   -1.99    3.73
   5 -20  -8    5.03    4.54
  -5  20   9    1.09    3.49
  -5 -20  -9    2.72    4.58
   5  20   9    5.27    4.46
   5 -20  -9    9.16    5.27
  -5  20  10   -1.18    3.77
  -5 -20 -10   -0.61    4.62
   5  20  10    4.78    4.58
   5 -20 -10    1.78    4.38
  -5  20  11   10.10    5.31
  -5 -20 -11   14.23    5.88
   5  20  11    3.53    4.42
   5 -20 -11    9.73    4.91
  -5  20  12   -2.31    3.69
  -5 -20 -12    1.42    4.62
   5  20  12    3.12    4.50
   5  21   0   -1.26    4.30
  -5 -21   0    0.73    5.15
   5 -21   0    2.27    4.46
  -5  21   0   -3.77    4.05
   5 -21   1   -2.96    4.46
  -5  21   1   20.07    7.26
   5  21  -1   -2.64    4.26
  -5 -21  -1    1.91    4.62
   5  21   1   -0.16    4.46
  -5 -21   1    7.62    6.00
   5 -21  -1    0.85    4.38
  -5  21  -1    3.20    4.38
   5 -21   2    6.69    5.19
  -5  21   2   18.12    6.73
   5  21  -2   13.46    6.41
  -5 -21  -2    0.16    4.22
   5  21   2    4.58    5.07
  -5 -21   2    7.42    6.00
   5 -21  -2   10.58    5.92
  -5  21  -2    3.12    4.74
   5 -21   3    5.60    4.95
  -5  21   3   -2.60    3.89
   5  21  -3   -2.76    4.99
  -5 -21  -3   -1.42    4.01
   5  21   3   -2.03    4.26
   5 -21  -3    6.49    5.07
  -5  21  -3    2.07    3.97
   5 -21   4   25.54    7.62
  -5  21   4   11.03    5.31
   5  21   4   12.81    6.04
   5 -21  -4   18.69    6.24
  -5  21  -4   19.22    6.73
   5 -21   5   -2.07    5.07
  -5  21   5    0.89    4.10
  -5 -21  -5    0.53    4.42
   5  21   5   -1.62    4.10
   5 -21  -5    8.35    5.03
  -5  21  -5    3.53    4.78
  -5  21   6   -2.64    4.01
   5 -21  -6    5.19    4.78
  -5  21   7    3.04    4.05
  -5 -21  -7    4.18    4.58
   5  21   7   -0.04    4.18
   5 -21  -7   -3.24    3.73
  -5  21   8   17.44    5.96
  -5 -21  -8   27.78    7.54
   5  21   8   22.06    6.89
   5 -21  -8   14.35    5.80
  -5  21   9    6.12    4.01
  -5 -21  -9    2.23    4.18
   5  21   9    4.22    4.50
   5 -21  -9    2.39    3.93
  -5  21  10   86.12   14.43
  -5 -21 -10   90.87   15.45
   5  21  10   91.27   15.37
   5 -21 -10   74.04   13.66
  -5  21  11   -2.27    4.22
  -5 -21 -11   -0.32    4.14
   5  21  11    0.00    4.34
   5  22   0   -1.82    4.05
  -5 -22   0   -0.89    4.83
   5 -22   0    0.36    4.38
  -5  22   0   -2.72    3.97
   5 -22   1    0.32    4.34
  -5  22   1    3.65    4.38
   5  22  -1    3.00    4.78
  -5 -22  -1    4.91    4.70
   5  22   1    3.45    4.26
  -5 -22   1    3.65    5.51
   5 -22  -1    3.49    4.83
  -5  22  -1    3.57    4.58
   5 -22   2   -1.34    4.26
  -5  22   2   -3.24    3.89
   5  22  -2    4.46    5.68
  -5 -22  -2    2.07    4.42
   5  22   2   -4.34    4.62
  -5 -22   2    3.97    5.35
   5 -22  -2   -2.76    4.42
  -5  22  -2   -3.00    4.26
   5 -22   3    4.62    5.23
  -5  22   3    8.60    4.74
   5  22  -3    4.34    5.27
  -5 -22  -3    2.84    4.66
   5  22   3    4.91    4.78
   5 -22  -3    3.81    4.70
  -5  22  -3    0.73    4.01
   5 -22   4   -3.32    4.50
  -5  22   4    8.23    4.91
  -5 -22  -4    0.57    4.22
   5  22   4    0.16    4.05
   5 -22  -4    0.73    4.14
  -5  22  -4   -2.64    3.85
   5 -22   5    0.77    4.50
  -5  22   5    3.16    4.10
  -5 -22  -5   -2.03    3.85
   5  22   5   -0.57    4.38
   5 -22  -5   -1.46    3.97
  -5  22  -5    2.03    4.99
  -5  22   6   -2.03    3.97
  -5 -22  -6   -1.14    4.42
   5  22   6    3.28    4.50
   5 -22  -6    4.22    4.42
  -5  22  -6    4.38    4.87
  -5  22   7    0.93    3.69
  -5 -22  -7    2.72    3.93
   5  22   7    3.12    4.34
   5 -22  -7    0.65    3.89
  -5  22   8   -1.01    3.61
  -5 -22  -8   -3.49    3.77
   5  22   8    0.61    4.05
   5 -22  -8    0.16    3.65
  -5  22   9   -0.36    3.69
  -5 -22  -9   10.38    5.19
   5  22   9    5.19    4.46
   5 -22  -9   -0.12    4.01
  -5  22  10   -1.38    3.81
  -5 -22 -10    1.46    4.18
   5  22  10    0.08    4.10
   5  23   0   -1.38    3.73
  -5 -23   0    1.46    5.19
   5 -23   0    1.05    4.01
  -5  23   0    2.51    4.50
   5 -23   1   -2.19    4.18
  -5  23   1    7.50    4.70
   5  23  -1   -1.99    4.38
  -5 -23  -1   -3.45    3.93
   5  23   1   -1.91    3.93
  -5 -23   1   -2.60    4.91
   5 -23  -1    1.05    4.42
  -5  23  -1    0.77    3.97
   5 -23   2    5.03    4.95
  -5  23   2    0.28    4.70
   5  23  -2    0.93    5.72
  -5 -23  -2   -1.34    3.73
   5  23   2   -1.50    4.01
  -5 -23   2   10.34    5.76
   5 -23  -2   -1.58    4.50
  -5  23  -2    3.73    4.38
   5 -23   3   28.67    8.27
  -5  23   3   12.20    5.51
   5  23  -3   -0.65    4.18
  -5 -23  -3    6.24    4.91
   5  23   3   12.69    6.37
  -5 -23   3    5.80    5.35
   5 -23  -3    6.73    5.47
  -5  23  -3   15.49    5.56
   5 -23   4    7.18    5.47
  -5  23   4    3.97    4.26
  -5 -23  -4    5.39    4.87
   5  23   4    0.24    4.34
   5 -23  -4   15.98    5.92
  -5  23  -4    8.76    5.31
   5 -23   5    2.92    5.15
  -5  23   5    2.96    4.10
  -5 -23  -5    0.77    4.22
   5  23   5   -1.01    4.05
   5 -23  -5    3.89    4.22
  -5  23  -5    5.03    5.07
   5 -23   6    8.72    6.12
  -5  23   6   14.43    5.96
  -5 -23  -6   11.27    5.51
   5  23   6    9.89    5.43
   5 -23  -6    5.47    4.95
  -5  23  -6    9.37    6.16
  -5  23   7    0.32    3.69
  -5 -23  -7   -1.54    3.89
   5  23   7   -1.74    3.61
   5 -23  -7    1.05    4.46
  -5  23   8    4.18    4.22
  -5 -23  -8   -0.81    3.53
   5  23   8    8.03    5.15
   5 -23  -8    1.50    4.62
  -5  23   9    1.95    3.57
  -5 -23  -9    0.53    4.38
   5  23   9    2.92    4.66
   5  24   0   -0.57    3.97
  -5 -24   0    1.82    5.35
   5 -24   0   -2.03    3.73
  -5  24   0    2.43    4.26
   5 -24   1   21.21    7.01
  -5  24   1    4.58    4.78
   5  24  -1   18.12    7.30
  -5 -24  -1   19.30    6.69
   5  24   1   13.95    5.92
  -5 -24   1   18.12    7.18
   5 -24  -1   11.19    5.64
  -5  24  -1   13.26    6.16
   5 -24   2    1.50    4.91
  -5  24   2   -2.68    4.01
   5  24  -2   -1.18    5.15
  -5 -24  -2    4.42    5.03
   5  24   2   -3.12    4.30
  -5 -24   2   -0.65    5.27
   5 -24  -2   -0.65    4.34
  -5  24  -2   -0.41    4.30
   5 -24   3   14.11    6.81
  -5  24   3    8.84    5.07
   5  24  -3   -1.82    4.95
  -5 -24  -3    9.45    5.43
   5  24   3   11.88    6.08
  -5 -24   3    8.35    6.28
   5 -24  -3    2.27    4.91
  -5  24  -3   13.83    6.08
   5 -24   4    5.92    5.11
  -5  24   4    4.95    4.10
  -5 -24  -4    2.19    4.50
   5  24   4    2.07    4.38
   5 -24  -4   -0.57    4.42
  -5  24  -4   -1.14    4.50
   5 -24   5    2.23    5.60
  -5  24   5    1.91    4.58
  -5 -24  -5    8.39    5.07
   5  24   5   -5.07    4.18
   5 -24  -5    3.53    4.83
  -5  24  -5    3.12    4.74
   5 -24   6   -0.65    5.35
  -5  24   6    0.65    4.05
  -5 -24  -6    1.34    4.46
   5  24   6   -1.82    4.18
   5 -24  -6    0.73    4.14
  -5  24  -6   -1.87    4.66
  -5  24   7   -0.41    3.77
  -5 -24  -7    2.72    4.34
   5  24   7    4.50    4.46
  -5  24   8    2.39    4.01
   5  24   8    2.11    4.54
   5  25   0    5.03    4.38
  -5 -25   0    7.18    5.84
   5 -25   0   -3.73    4.54
  -5  25   0    0.32    4.01
   5 -25   1    1.42    4.54
  -5  25   1    3.41    4.46
   5  25  -1    3.24    5.60
  -5 -25  -1   -1.26    4.99
   5  25   1    0.69    4.34
  -5 -25   1    7.87    5.56
   5 -25  -1    1.01    4.38
  -5  25  -1    0.41    5.15
   5 -25   2   19.30    6.97
  -5  25   2   17.60    7.01
   5  25  -2   31.06    8.60
  -5 -25  -2    6.41    5.51
   5  25   2   10.22    6.28
  -5 -25   2   29.76    8.84
   5 -25  -2   33.25    8.56
  -5  25  -2   11.80    5.80
   5 -25   3   -0.20    4.70
  -5  25   3   -0.89    4.34
   5  25  -3   -4.22    4.66
  -5 -25  -3    2.19    4.10
   5  25   3   -0.16    4.58
  -5 -25   3    4.83    5.39
   5 -25  -3    6.57    5.31
  -5  25  -3    2.35    4.34
   5 -25   4   71.73   13.83
  -5  25   4   79.51   14.15
   5  25  -4   70.31   13.22
  -5 -25  -4   89.00   15.12
   5  25   4   70.55   13.46
   5 -25  -4   90.58   15.53
  -5  25  -4  106.76   17.80
   5 -25   5   -1.05    4.78
  -5  25   5    2.72    3.81
  -5 -25  -5   -2.43    4.18
   5  25   5   -2.19    4.30
   5 -25  -5   -2.35    4.26
  -5  25  -5    3.32    5.07
   5 -25   6   -0.89    5.15
  -5  25   6    0.41    4.10
   5  25   6    7.26    5.03
  -5  25  -6    1.87    4.70
   5  26   0    2.19    4.10
   5 -26   0   -5.23    4.22
  -5  26   0   -6.49    4.01
   5 -26   1   51.82   11.15
  -5  26   1   67.35   12.93
   5  26  -1   90.22   16.02
   5  26   1   62.16   11.80
   5 -26  -1   84.62   15.29
  -5  26  -1   66.13   12.69
   5 -26   2   -3.37    4.83
  -5  26   2    0.53    4.18
   5  26  -2    6.97    5.19
   5  26   2    5.88    4.87
   5 -26  -2    3.12    4.95
  -5  26  -2   -0.36    4.38
   5 -26   3   12.20    6.12
  -5  26   3   32.52    8.51
   5  26  -3   10.26    5.96
   5  26   3    4.38    4.91
   5 -26  -3    0.04    4.22
  -5  26  -3   12.00    5.92
   5 -26   4   -0.85    4.46
  -5  26   4    2.31    4.14
   5  26  -4   -2.31    4.38
   5  26   4    4.05    4.70
  -5  26  -4    3.08    4.70
   5 -26   5   15.69    8.43
  -5  26   5    8.39    6.16
   5  26   5   13.95    7.14
   5 -27   0   -0.04    4.34
  -5  27   0    2.72    4.58
   5 -27   1   -3.49   11.11
  -5  27   1   -0.73    4.38
  -5  27  -1   -2.19    4.78
   6   0   2   84.05   10.75
  -6   0  -2   58.59    7.74
  -6   0  -3 1210.75  145.65
  -6  -1  -3   60.98    8.27
   6   1   3   70.19    9.29
   6  -2   2   56.56    7.42
  -6  -2  -2   55.96    8.76
   6   2   2   36.45    7.10
  -6   2  -2   33.53    4.83
  -6  -2  -3    4.70    4.38
   6   2   3   12.93    4.78
  -6  -2  -4    5.27    3.32
   6   2   4    7.95    3.73
   6  -3   2 1246.02  150.03
  -6  -3  -2 1316.58  158.99
  -6   3  -2 1724.48  207.40
  -6  -3  -4  191.14   24.09
   6   3   4  234.24   29.23
  -6  -3  -5   53.28    8.35
   6   3   5   39.94    6.97
   6  -4   1    4.70    4.46
  -6  -4  -1   12.89    6.57
   6   4   1    4.30    6.57
  -6   4  -1    2.88    3.97
   6  -4   2    6.12    4.78
  -6  -4  -2    3.45    6.04
   6   4   2   23.15    7.42
  -6   4  -2    0.04    4.42
  -6  -4  -4    6.77    5.64
   6   4   4   10.95    5.23
  -6  -4  -5   14.15    4.50
   6   4   5   19.54    5.39
  -6  -4  -6   21.94    5.35
   6   4   6   19.95    5.07
   6  -5   0 1142.22  137.82
  -6   5   0 1025.04  123.75
  -6   5   1  167.22   21.21
  -6  -5  -1  221.71   28.71
   6   5   1  215.02   28.02
   6  -5  -1  157.16   20.07
  -6   5  -1  256.10   31.79
   6  -5   2  542.12   66.09
  -6  -5  -2  488.19   60.21
  -6   5  -2  799.19   96.79
  -6  -5  -3   43.79    8.76
   6   5   3   29.07    7.38
  -6  -5  -4   99.75   14.68
   6   5   4   78.09   12.16
  -6  -5  -6   39.17    7.10
   6   5   6   33.57    6.45
   6  -6   0   49.63    8.23
  -6   6   0   53.36    8.23
  -6   6   1    7.06    3.97
  -6  -6  -1   16.02    7.26
   6   6   1   14.23    6.89
   6  -6  -1    7.06    4.54
  -6   6  -1   13.79    4.91
   6  -6   2   16.50    6.20
  -6   6   2    7.99    4.22
  -6  -6  -2    5.96    6.85
   6   6   2   28.55    8.43
   6  -6  -2    7.83    4.66
  -6   6  -2    1.26    5.23
   6  -6   3   14.11    5.72
  -6  -6  -3   21.25    6.65
  -6   6  -3   16.30    5.72
  -6  -6  -5    6.69    4.42
   6   6   5    0.36    3.89
  -6  -6  -6    1.38    3.85
   6   6   6    4.26    3.69
  -6  -6  -7   63.05    9.73
   6   6   7   38.28    7.06
  -6  -6  -8    4.58    4.14
   6   6   8    0.57    3.77
   6  -7   0   13.50    5.23
  -6   7   0   16.75    6.16
   6  -7   1    5.23    4.95
  -6   7   1    9.61    4.66
   6  -7  -1    7.30    4.26
  -6   7  -1   17.07    5.60
  -6   7   2  132.71   17.56
   6  -7  -2  161.78   20.92
  -6   7  -2  113.21   15.77
   6  -7   3   11.68    5.80
  -6   7   3   10.62    4.74
  -6  -7  -3   35.76    7.83
   6   7   3    7.18    5.56
   6  -7  -3    3.41    4.30
  -6   7  -3    5.39    5.51
  -6  -7  -4   26.03    6.77
   6   7   4   28.22    7.10
  -6  -7  -5   -1.30    4.70
   6   7   5    4.14    4.26
  -6  -7  -7    8.15    4.22
   6   7   7   19.91    5.39
  -6  -7  -8   38.28    7.42
   6   7   8   31.42    6.45
  -6  -7  -9   18.85    6.08
   6   7   9   12.93    4.91
   6  -8   1   25.22    6.57
  -6   8   1   13.58    5.11
  -6  -8  -1    6.53    7.42
   6   8   1   30.45    8.11
   6  -8  -1   15.94    5.27
  -6   8  -1   23.36    6.41
   6  -8   2   30.33    7.62
  -6   8   2    7.34    4.87
  -6  -8  -2   34.34    8.27
   6   8   2   16.46    7.58
  -6   8  -2   13.75    6.12
   6  -8   3  235.34   30.33
  -6   8   3  258.45   32.68
  -6  -8  -3  180.31   23.96
   6   8   3  218.35   28.38
   6  -8  -3  209.71   26.80
  -6   8   4   67.27   10.62
  -6  -8  -4   48.09    8.76
   6   8   4   52.39    9.04
   6  -8  -4   49.47    8.64
  -6  -8  -5   67.31   10.83
   6   8   5   91.15   13.22
  -6  -8  -6   26.96    6.24
   6   8   6   22.63    5.56
  -6  -8  -7  842.58  102.87
   6   8   7 1284.14  155.66
  -6  -8  -8   15.65    5.23
   6   8   8   19.58    5.35
  -6  -8  -9  236.11   30.69
   6   8   9  268.55   34.42
  -6  -8 -10   44.93    9.12
   6   9   0   -1.46    7.26
  -6  -9   0   10.46    7.42
   6  -9   0   16.95    5.68
  -6   9   0    7.62    5.27
   6  -9   1    5.64    4.74
  -6   9   1    2.35    5.47
  -6  -9  -1   -0.77    6.20
   6   9   1    1.14    6.12
   6  -9  -1   -1.78    4.62
  -6   9  -1   -1.22    4.70
   6  -9   3   -2.11    5.11
  -6  -9  -3    8.76    5.23
   6   9   3    1.18    4.54
   6  -9  -3   -5.15    3.65
  -6   9  -3   -2.07    5.51
  -6   9   4   10.91    4.91
  -6  -9  -4   -0.24    4.66
   6   9   4    7.10    4.87
   6  -9  -4    9.65    4.74
  -6  -9  -5    9.20    4.87
   6   9   5    6.61    4.62
   6  -9  -5    7.01    4.70
  -6  -9  -6    6.04    4.78
   6   9   6    6.12    3.93
  -6  -9  -7   17.11    5.51
   6   9   7    3.69    3.97
  -6  -9  -8    3.73    4.66
   6   9   8   19.95    5.47
  -6  -9  -9    3.16    5.03
   6   9   9    8.23    5.03
  -6  -9 -10    8.23    5.68
   6   9  10    3.93    5.07
  -6  -9 -11    2.80    4.83
   6  10   0  100.80   15.94
  -6 -10   0  162.27   22.99
   6 -10   0  122.29   16.99
  -6  10   0  107.73   15.29
   6 -10   1    5.72    4.99
  -6  10   1   23.31    6.81
  -6 -10  -1   10.54    6.20
   6  10   1   11.19    7.38
   6 -10  -1    5.47    4.74
  -6  10  -1   -0.65    4.83
  -6  10   2    1.38    4.62
   6  10   2   23.40    7.62
   6 -10  -2    4.34    3.93
  -6  10  -2   12.20    6.37
   6 -10   3   12.04    5.80
  -6  10   3    1.78    4.50
  -6 -10  -3    5.35    5.31
   6  10   3    8.03    4.99
   6 -10  -3    5.88    4.34
  -6  10  -3    5.27    5.64
  -6  10   4   23.92    5.92
  -6 -10  -4   19.38    6.20
   6  10   4   12.65    5.23
   6 -10  -4   19.62    5.35
  -6  10  -4   39.90    8.35
  -6  10   5   10.46    4.58
  -6 -10  -5   17.31    5.92
   6  10   5    7.14    4.66
   6 -10  -5    9.53    4.50
  -6 -10  -6    3.32    5.07
   6  10   6   -1.42    4.10
  -6 -10  -8    2.80    4.70
   6  10   8    2.60    4.74
  -6 -10  -9  111.18   16.46
   6  10   9   87.01   13.71
  -6 -10 -10   45.62    9.08
   6  10  10   33.57    7.91
  -6 -10 -11    3.28    4.74
   6  10  11   11.35    5.39
  -6 -10 -12   11.15    5.15
   6  11   0   10.10    6.73
  -6 -11   0   12.49    7.30
   6 -11   0   17.35    5.92
  -6  11   0    9.93    4.91
   6 -11   1   14.92    5.27
  -6  11   1   10.34    4.99
  -6 -11  -1   23.80    7.66
   6  11   1    4.83    5.84
   6 -11  -1    2.03    4.58
  -6  11  -1    0.24    4.38
  -6  11   2   20.44    5.64
   6 -11  -2   31.46    6.81
   6 -11   3    7.99    5.60
  -6  11   3   -2.31    3.45
  -6 -11  -3    0.20    4.99
   6  11   3   -0.65    4.26
   6 -11  -3   -0.24    3.89
  -6  11  -3   -3.20    5.19
   6 -11   4   17.07    6.61
  -6  11   4    4.99    4.01
  -6 -11  -4    9.41    5.72
   6  11   4   27.49    6.85
   6 -11  -4    4.74    3.93
  -6  11  -4   11.11    6.08
  -6  11   5    3.85    4.22
  -6 -11  -5    2.92    4.99
   6  11   5   20.64    6.53
   6 -11  -5    5.76    4.01
  -6  11   6    5.51    4.34
  -6 -11  -6   12.00    6.08
   6  11   6   11.03    5.56
   6 -11  -6   10.99    5.07
  -6 -11  -7    3.24    4.91
   6  11   7    6.61    4.91
   6 -11  -7    5.64    4.46
  -6 -11  -8   27.09    7.34
   6  11   8    8.43    5.23
  -6 -11  -9    1.30    4.95
   6  11   9   -7.10    4.91
  -6 -11 -10    4.26    4.78
   6  11  10    0.73    4.70
  -6 -11 -11    0.65    4.05
   6  11  11   -2.15    4.01
  -6 -11 -12    3.89    4.54
   6  11  12   -0.85    4.18
  -6 -11 -13    1.42    4.42
   6  12   0   49.02   10.10
  -6 -12   0   48.01   10.14
   6 -12   0   18.00    6.12
  -6  12   0   32.48    7.10
   6 -12   1   53.52    9.73
  -6 -12  -1   28.95    8.43
   6  12   1   33.82    8.15
   6 -12  -1   49.59    9.08
  -6  12  -1   60.62   10.30
   6 -12   2   19.54    7.83
  -6  12   2   26.07    6.37
  -6 -12  -2   10.18    7.42
   6  12   2    2.31    6.41
   6 -12  -2   35.40    7.66
  -6  12  -2   16.95    6.93
   6 -12   3    6.20    5.92
  -6  12   3    2.11    3.81
  -6 -12  -3    8.80    5.76
   6  12   3    2.35    4.83
   6 -12  -3    8.07    4.46
  -6  12  -3   19.87    7.22
   6 -12   4   13.18    6.97
  -6  12   4    4.01    4.01
  -6 -12  -4    5.23    5.76
   6  12   4    9.08    5.68
   6 -12  -4   10.26    4.54
  -6  12  -4   20.64    7.58
  -6  12   5   21.04    5.68
  -6 -12  -5   23.96    7.14
   6  12   5   32.80    7.99
   6 -12  -5   30.61    6.45
  -6  12   6    4.30    4.34
  -6 -12  -6    5.64    5.76
   6  12   6    6.85    5.60
   6 -12  -6    0.65    4.22
  -6  12   7  160.32   21.69
  -6 -12  -7  241.38   32.03
   6  12   7  238.70   31.51
   6 -12  -7  219.81   28.91
  -6 -12  -8    2.35    5.43
   6  12   8    2.51    5.07
   6 -12  -8    3.49    4.91
  -6 -12  -9    0.93    4.74
   6  12   9   22.10    6.89
  -6 -12 -10    1.74    4.30
   6  12  10   -2.96    4.18
  -6 -12 -11   21.17    6.45
   6  12  11   25.14    6.77
  -6 -12 -12    7.79    4.62
   6  12  12   -0.04    3.97
  -6 -12 -13    3.28    4.50
   6  12  13   -2.92    3.49
  -6 -12 -14    2.72    4.38
   6  13   0  388.00   49.79
  -6 -13   0  398.91   51.01
   6 -13   0  299.16   38.32
  -6  13   0  305.32   38.97
   6 -13   1    7.58    5.35
  -6  13   1    0.53    4.66
   6  13  -1    5.64    6.33
  -6 -13  -1   -1.74    6.20
   6  13   1   -2.76    5.60
   6 -13  -1   -0.28    4.54
  -6  13  -1    0.36    4.62
   6 -13   2  660.92   81.95
  -6  13   2  898.53  109.92
   6 -13  -2  864.88  105.91
  -6  13  -2  599.29   74.57
   6 -13   3   29.60    8.07
  -6  13   3   15.61    5.31
  -6 -13  -3   36.13    8.72
   6  13   3   16.30    6.49
   6 -13  -3    8.03    4.70
   6 -13   4   85.72   14.39
  -6 -13  -4  121.44   18.12
   6  13   4   93.99   14.96
   6 -13  -4   70.35   11.11
  -6  13  -4  129.31   19.22
  -6  13   5   20.48    6.00
  -6 -13  -5   11.31    6.73
   6  13   5   35.28    8.51
   6 -13  -5   20.23    5.76
  -6  13   6  158.86   21.77
  -6 -13  -6  171.31   24.00
   6 -13  -6  159.11   21.69
  -6  13   7   77.04   12.41
  -6 -13  -7   93.99   15.49
   6  13   7   94.03   15.04
   6 -13  -7  103.92   15.61
  -6  13   8    0.81    4.38
  -6 -13  -8   10.10    5.88
   6  13   8    5.19    5.96
   6 -13  -8    2.55    4.91
  -6 -13  -9    6.97    5.03
   6  13   9   11.64    5.68
  -6 -13 -10   27.65    7.22
   6  13  10   13.26    5.68
  -6 -13 -11   15.49    5.56
   6  13  11   20.11    6.16
  -6 -13 -12    1.14    3.65
   6  13  12    6.97    4.78
  -6 -13 -13    1.50    4.01
   6  13  13   -1.26    4.14
  -6 -13 -14    9.57    4.95
   6  13  14   14.92    5.51
  -6 -13 -15    1.50    4.42
   6  14   0   53.08   11.31
  -6 -14   0   20.80    7.91
   6 -14   0   20.07    6.73
  -6  14   0   14.80    6.12
   6 -14   1   -2.80    5.07
  -6  14   1   -0.16    4.74
   6  14  -1    3.69    6.73
  -6 -14  -1    4.58    6.45
   6  14   1   -3.24    5.51
  -6 -14   1   19.30    7.87
   6 -14  -1    2.51    5.03
  -6  14  -1   -0.85    5.07
   6 -14   2   16.46    7.66
  -6  14   2    3.32    5.03
  -6 -14  -2   -0.81    7.06
   6  14   2    4.70    7.10
   6 -14  -2    2.88    5.19
  -6  14  -2   -3.73    6.41
   6 -14   3   16.10    7.10
  -6  14   3   -0.89    4.38
  -6 -14  -3    6.61    6.24
   6  14   3    2.80    5.64
   6 -14  -3    1.78    4.70
  -6  14  -3    0.81    5.60
   6 -14   4   -1.30    6.49
  -6  14   4    4.18    4.30
  -6 -14  -4    5.11    6.41
   6  14   4   -3.49    5.72
   6 -14  -4    5.11    4.54
  -6  14  -4    1.18    8.15
  -6  14   5    8.72    5.23
  -6 -14  -5   20.35    7.99
   6  14   5   22.10    7.62
   6 -14  -5   25.71    6.65
  -6  14   6   12.57    5.76
  -6 -14  -6    8.11    5.92
   6  14   6   17.56    6.97
   6 -14  -6   13.46    5.51
  -6  14   7   14.23    5.72
  -6 -14  -7   29.11    7.83
   6  14   7   31.59    8.60
   6 -14  -7   15.53    5.88
  -6  14   8    1.82    4.50
  -6 -14  -8    2.15    4.87
   6  14   8    8.76    5.35
   6 -14  -8   -1.70    4.66
  -6  14   9    6.97    4.62
  -6 -14  -9   17.31    6.12
   6  14   9   -0.89    4.22
   6 -14  -9    4.87    4.46
  -6 -14 -10   -0.45    4.10
   6  14  10    3.16    4.38
  -6 -14 -11    2.03    3.85
   6  14  11    0.77    3.93
  -6 -14 -12    3.32    4.05
   6  14  12    4.18    4.22
  -6 -14 -13    8.23    4.58
   6  14  13   -0.73    4.05
  -6 -14 -14    4.83    4.50
   6  14  14    0.73    4.22
  -6 -14 -15    1.26    4.01
   6  15   0   40.14   10.38
  -6 -15   0   43.63   10.42
   6 -15   0   42.94    9.04
  -6  15   0   48.82    9.77
   6 -15   1    5.39    5.92
  -6  15   1    0.08    5.19
   6  15  -1    1.18    6.93
  -6 -15  -1   -3.61    6.57
   6  15   1    1.38    6.41
  -6 -15   1    5.84    7.06
   6 -15  -1    1.95    5.31
  -6  15  -1   -2.68    4.99
  -6  15   2   19.18    7.01
   6 -15  -2    9.93    5.68
   6 -15   3   13.62    7.06
  -6  15   3   13.58    5.56
  -6 -15  -3   11.72    7.01
   6 -15  -3   15.12    6.12
  -6  15  -3    1.58    5.92
   6 -15   4   44.28   10.14
  -6  15   4    9.53    5.19
  -6 -15  -4   25.34    8.19
   6  15   4    7.38    6.37
   6 -15  -4    9.57    5.11
  -6  15  -4   17.68    7.58
  -6  15   5   21.17    6.37
   6 -15  -5   14.31    5.88
  -6  15  -5   27.61    8.39
  -6  15   6    8.80    5.03
  -6 -15  -6    4.42    5.07
   6  15   6   14.39    6.65
   6 -15  -6    8.68    5.27
  -6  15   7    5.84    4.91
  -6 -15  -7    0.85    4.78
   6  15   7   -3.16    5.11
   6 -15  -7    5.72    4.70
  -6  15   8    3.53    3.81
  -6 -15  -8   -2.68    4.10
   6  15   8   -0.89    5.03
   6 -15  -8    3.28    4.10
  -6  15   9    4.87    4.10
  -6 -15  -9   22.10    6.49
   6  15   9    6.85    5.15
   6 -15  -9   18.29    5.68
  -6  15  10    4.99    4.26
  -6 -15 -10   -0.49    3.69
   6  15  10    1.05    3.93
   6 -15 -10    1.46    3.93
  -6 -15 -11    0.93    4.05
   6  15  11    3.12    4.22
  -6 -15 -12    3.37    4.30
   6  15  12   -1.34    4.26
  -6 -15 -13    1.70    3.85
   6  15  13    3.85    4.18
  -6 -15 -14    5.51    4.38
   6  15  14    4.99    4.70
  -6 -15 -15   -0.16    4.46
   6  15  15    2.27    4.46
   6  16   0   84.70   15.29
  -6 -16   0   84.83   14.76
   6 -16   0   67.35   11.96
  -6  16   0   64.23   11.60
   6 -16   1   55.75   11.07
  -6  16   1   62.61   11.31
   6  16  -1   48.45   11.43
  -6 -16  -1   78.78   14.07
   6  16   1   63.98   12.53
  -6 -16   1   57.05   12.16
   6 -16  -1   80.53   13.58
  -6  16  -1   67.96   12.25
   6 -16   2    5.84    6.24
  -6  16   2   34.18    8.15
  -6 -16  -2    8.23    7.46
   6 -16  -2   26.84    7.46
  -6  16  -2    7.42    6.57
   6 -16   3  117.43   17.52
  -6  16   3  165.80   22.99
  -6 -16  -3   87.95   15.00
   6  16   3  127.89   19.91
  -6  16  -3  100.19   15.81
   6 -16   4    1.46    6.00
  -6  16   4   -3.81    4.66
  -6 -16  -4    7.34    6.04
   6  16   4    2.43    5.56
   6 -16  -4    7.34    5.47
  -6  16  -4    3.32    5.51
   6 -16   5   49.47   10.34
  -6  16   5   33.41    7.91
  -6 -16  -5   26.68    7.79
   6  16   5   25.63    7.79
   6 -16  -5   25.79    6.89
  -6  16  -5   54.94   11.07
  -6  16   6    7.54    4.78
  -6 -16  -6    1.22    4.46
   6  16   6   -1.05    4.50
   6 -16  -6   -0.08    4.50
  -6  16   7   71.20   11.52
  -6 -16  -7   47.72    9.85
   6  16   7   47.24    9.97
   6 -16  -7   89.69   13.95
  -6  16   8   -0.69    3.53
  -6 -16  -8   -0.53    4.58
   6  16   8    1.62    4.34
   6 -16  -8   -0.28    3.73
  -6  16   9    8.51    4.34
  -6 -16  -9    0.89    4.34
   6  16   9   13.10    5.35
   6 -16  -9   10.22    4.78
  -6  16  10    1.34    3.57
  -6 -16 -10   -1.46    3.93
   6  16  10   -2.19    3.69
   6 -16 -10    0.36    3.93
  -6 -16 -11    7.87    4.74
   6  16  11   21.73    6.81
   6 -16 -11    8.92    5.03
  -6 -16 -12    2.07    4.30
   6  16  12    4.50    4.38
  -6 -16 -13    3.53    4.18
   6  16  13    2.84    4.01
  -6 -16 -14    0.28    3.77
   6  16  14    0.32    4.70
   6  17   0   25.10    8.31
  -6 -17   0   19.26    7.54
   6 -17   0   14.76    6.24
  -6  17   0   20.64    6.65
   6 -17   1   -4.46    5.27
  -6  17   1    5.88    5.84
   6  17  -1    4.26    6.65
  -6 -17  -1    2.80    5.92
   6  17   1   -1.42    5.80
  -6 -17   1   -1.01    6.57
   6 -17  -1    3.37    5.43
  -6  17  -1    0.41    4.91
   6 -17   2   16.02    6.85
  -6  17   2   21.13    6.85
   6  17  -2   29.52    8.51
  -6 -17  -2   20.23    8.19
   6  17   2   18.81    8.27
   6 -17  -2   20.07    6.69
  -6  17  -2    6.65    6.41
   6 -17   3   10.10    6.04
  -6  17   3    0.73    4.30
  -6 -17  -3   -0.41    5.39
   6  17   3   10.83    6.69
   6 -17  -3    1.42    5.03
  -6  17  -3    3.93    5.31
   6 -17   4    6.16    5.64
  -6  17   4    9.89    5.11
  -6 -17  -4   -3.12    5.03
   6  17   4    5.92    5.56
   6 -17  -4    6.04    4.78
  -6  17  -4    9.16    6.24
   6 -17   5    1.58    6.04
  -6  17   5    1.46    4.30
  -6 -17  -5    0.65    5.11
   6  17   5   -1.91    5.19
   6 -17  -5   -0.45    4.34
  -6  17  -5   -2.27    5.39
  -6  17   6    5.39    4.26
  -6 -17  -6   18.94    6.73
   6  17   6    2.51    4.70
   6 -17  -6    9.85    4.62
  -6  17   7    5.03    4.26
  -6 -17  -7    1.05    4.74
   6  17   7   -2.76    4.26
   6 -17  -7   13.22    5.39
  -6  17   8    7.91    4.38
  -6 -17  -8   -1.09    4.26
   6  17   8   -0.45    4.46
   6 -17  -8    4.50    3.93
  -6  17   9    6.37    4.38
  -6 -17  -9   -1.70    4.01
   6  17   9    9.41    5.11
   6 -17  -9    3.28    4.14
  -6  17  10    1.22    3.85
  -6 -17 -10   -2.64    3.97
   6  17  10   -1.14    3.85
   6 -17 -10    1.09    4.10
  -6  17  11    2.51    4.18
  -6 -17 -11    0.41    3.77
   6  17  11   -2.07    3.69
   6 -17 -11    0.08    4.10
  -6 -17 -12    0.77    3.85
   6  17  12    5.23    4.42
   6 -17 -12   -1.82    3.81
  -6 -17 -13   -0.57    3.89
   6  17  13    0.97    4.01
  -6 -17 -14    1.66    4.87
   6  17  14    8.60    5.23
   6  18   0   19.58    7.62
  -6 -18   0   24.17    8.19
   6 -18   0   19.14    6.16
   6 -18   1    1.78    5.19
  -6  18   1   23.92    6.89
   6  18  -1   12.29    7.18
  -6 -18  -1    8.60    6.08
   6  18   1    4.62    5.84
  -6 -18   1   11.27    6.97
   6 -18  -1    7.01    5.19
  -6  18  -1    5.43    4.95
   6 -18   2    8.11    6.12
  -6  18   2    0.81    4.18
   6  18  -2    2.84    6.20
  -6 -18  -2   12.41    7.30
   6  18   2    8.56    7.14
   6 -18  -2   -0.36    4.14
  -6  18  -2    4.87    5.31
   6 -18   3   -0.81    5.43
  -6  18   3    3.32    4.78
  -6 -18  -3    8.56    5.92
   6  18   3    2.72    5.96
   6 -18  -3   -3.12    4.58
  -6  18  -3    2.47    5.07
   6 -18   4    6.45    5.11
  -6  18   4    1.50    3.89
  -6 -18  -4    2.64    5.07
   6  18   4    0.12    4.83
   6 -18  -4   -1.34    4.10
  -6  18  -4    1.14    5.07
   6 -18   5   10.83    5.80
  -6  18   5    4.99    4.18
  -6 -18  -5    5.23    5.51
   6  18   5   11.60    5.72
   6 -18  -5    9.65    4.95
  -6  18  -5    4.46    5.43
  -6  18   6    8.68    4.58
  -6 -18  -6   10.91    6.08
   6  18   6    2.19    4.70
   6 -18  -6    3.28    3.97
  -6  18   7   96.67   15.04
  -6 -18  -7  103.11   16.38
   6 -18  -7   59.60   10.95
  -6  18   8    4.50    4.18
  -6 -18  -8    0.69    4.38
   6  18   8   -2.03    4.30
   6 -18  -8    3.20    4.34
  -6  18   9    6.20    4.54
  -6 -18  -9   12.08    5.60
   6  18   9   17.19    6.28
   6 -18  -9   14.76    5.68
  -6  18  10   14.07    5.51
  -6 -18 -10    0.73    3.65
   6  18  10    9.24    4.83
   6 -18 -10    4.10    4.18
  -6  18  11   36.21    8.19
  -6 -18 -11   21.81    6.45
   6  18  11   12.89    5.96
   6 -18 -11   36.94    8.43
  -6  18  12    0.97    4.34
  -6 -18 -12    0.93    4.10
   6  18  12   -1.70    3.97
   6 -18 -12   -1.58    3.93
  -6 -18 -13   13.75    5.68
   6  18  13    3.97    4.87
   6  19   0    6.45    6.37
  -6 -19   0    4.14    5.51
   6 -19   0   -0.53    4.54
  -6  19   0    3.00    4.38
   6 -19   1    2.88    5.03
  -6  19   1    1.05    4.58
   6  19  -1    6.57    5.84
  -6 -19  -1   -5.35    5.07
   6  19   1   -2.43    5.19
  -6 -19   1   -3.89    5.88
   6 -19  -1    5.47    5.11
  -6  19  -1    4.78    4.58
  -6  19   2    3.24    4.62
   6  19  -2    6.00    6.53
   6  19   2   14.43    7.10
  -6 -19   2    3.00    6.33
   6 -19  -2    7.06    5.03
  -6  19  -2   26.23    7.58
   6 -19   3    1.09    4.99
  -6  19   3    1.58    4.42
  -6 -19  -3    4.14    5.31
   6  19   3    1.74    5.64
   6 -19  -3   -1.09    4.30
  -6  19  -3    1.62    4.38
   6 -19   4   -1.95    4.58
  -6  19   4    4.14    4.38
  -6 -19  -4    0.20    4.95
   6  19   4    1.54    4.70
   6 -19  -4   -1.46    4.05
  -6  19  -4    2.07    5.07
   6 -19   5    0.12    5.19
  -6  19   5   -0.53    3.77
  -6 -19  -5    4.34    5.15
   6  19   5    6.08    5.39
   6 -19  -5   -3.12    3.97
  -6  19  -5   -1.30    4.42
  -6  19   6    5.51    4.26
  -6 -19  -6    8.27    5.60
   6  19   6    8.60    5.56
   6 -19  -6    3.89    4.26
  -6  19  -6    2.15    4.74
  -6  19   7    1.38    3.93
  -6 -19  -7    1.87    4.42
   6  19   7   -0.16    4.05
   6 -19  -7    2.80    4.22
  -6  19   8    1.14    3.61
  -6 -19  -8    0.89    4.78
   6  19   8    1.70    4.38
   6 -19  -8   -0.08    3.89
  -6  19   9    2.92    4.26
  -6 -19  -9    2.39    4.14
   6  19   9    1.50    4.10
   6 -19  -9    2.76    4.05
  -6  19  10    2.15    3.65
  -6 -19 -10    1.26    3.77
   6  19  10    1.62    4.05
   6 -19 -10    7.38    4.50
  -6  19  11   -2.92    3.69
  -6 -19 -11    0.85    3.85
   6  19  11    0.00    3.89
   6 -19 -11    5.76    4.54
  -6  19  12    0.28    4.42
  -6 -19 -12   -0.08    3.89
   6  19  12    5.92    4.66
   6  20   0   19.71    7.30
  -6 -20   0   14.23    6.57
   6 -20   0   21.41    7.01
  -6  20   0   14.19    5.80
   6 -20   1   -0.65    4.54
  -6  20   1    6.37    4.95
   6  20  -1    4.05    5.47
  -6 -20  -1    3.04    5.15
   6  20   1    3.85    5.19
  -6 -20   1    5.11    5.84
   6 -20  -1   -0.36    4.66
  -6  20  -1    3.28    4.74
   6 -20   2   -4.66    5.07
  -6  20   2    1.42    4.05
   6  20  -2   -2.64    5.39
  -6 -20  -2    6.53    5.68
   6  20   2   19.06    7.06
  -6 -20   2    2.15    5.84
   6 -20  -2   -3.16    4.70
  -6  20  -2   -4.26    4.66
   6 -20   3    5.60    4.99
  -6  20   3    6.16    4.87
  -6 -20  -3   13.75    6.00
   6  20   3   -1.62    4.91
   6 -20  -3    5.84    5.07
  -6  20  -3    0.49    4.10
   6 -20   4    0.16    4.22
  -6  20   4   -1.05    3.89
  -6 -20  -4    0.57    4.34
   6  20   4    0.04    4.22
   6 -20  -4   10.79    5.76
  -6  20  -4    6.85    4.91
   6 -20   5    7.10    5.39
  -6  20   5    6.20    4.70
  -6 -20  -5   19.30    6.89
   6  20   5   15.89    6.53
   6 -20  -5    7.30    5.47
  -6  20  -5    4.70    5.03
  -6  20   6    0.57    4.05
  -6 -20  -6   10.66    5.76
   6  20   6   24.13    7.58
   6 -20  -6    3.93    4.46
  -6  20  -6   13.83    6.28
  -6  20   7   22.71    6.77
  -6 -20  -7   18.04    6.24
   6  20   7    9.12    5.56
   6 -20  -7   20.80    6.49
  -6  20   8    1.46    3.93
  -6 -20  -8    0.00    4.18
   6  20   8   -1.14    3.89
   6 -20  -8    0.97    4.34
  -6  20   9   25.34    6.97
  -6 -20  -9   14.27    5.64
   6  20   9   13.22    5.56
   6 -20  -9   19.99    6.61
  -6  20  10   -0.97    3.85
  -6 -20 -10    6.97    4.83
   6  20  10    0.73    4.38
   6 -20 -10   -1.82    3.57
  -6  20  11   16.75    5.92
  -6 -20 -11   20.84    6.65
   6  20  11    7.06    5.03
  -6  20  12    1.18   16.22
  -6 -20 -12   -1.62    3.61
   6  20  12    5.27    4.99
   6  21   0   16.50    6.61
  -6 -21   0    7.66    5.39
   6 -21   0   17.84    6.41
  -6  21   0   12.00    5.64
   6 -21   1    3.28    4.66
  -6  21   1    6.93    5.11
   6  21  -1    1.42    5.19
  -6 -21  -1    1.22    4.38
   6  21   1   -0.73    3.81
  -6 -21   1    3.73    4.99
   6 -21  -1   11.72    5.84
  -6  21  -1    2.68    4.66
   6 -21   2   11.15    5.72
  -6  21   2   15.98    6.08
  -6 -21  -2   15.81    6.08
   6  21   2    5.76    5.56
   6 -21  -2    9.29    5.60
   6 -21   3   -1.54    4.38
  -6  21   3   -0.24    3.93
  -6 -21  -3    3.77    4.66
   6  21   3    0.12    5.03
   6 -21  -3   -1.22    4.46
  -6  21  -3   -0.32    4.05
   6 -21   4   20.15    6.97
  -6  21   4   10.02    5.11
  -6 -21  -4   15.37    6.20
   6  21   4   12.65    5.64
   6 -21  -4   18.53    6.28
  -6  21  -4   41.68    9.33
   6 -21   5    6.81    5.56
  -6  21   5    0.45    3.89
  -6 -21  -5    6.04    4.70
   6  21   5   -1.14    4.10
   6 -21  -5    2.23    4.38
  -6  21  -5    4.05    4.87
   6 -21   6   13.54    5.64
  -6  21   6    4.87    4.91
   6  21   6   16.58    6.65
   6 -21  -6   15.69    6.04
  -6  21  -6    0.69    4.34
  -6  21   7   -0.28    3.89
  -6 -21  -7    5.72    5.15
   6  21   7    2.60    4.26
   6 -21  -7    3.85    4.18
  -6  21   8   13.26    5.39
  -6 -21  -8    8.27    4.95
   6  21   8    4.10    4.62
   6 -21  -8   24.57    7.18
  -6  21   9    4.34    3.97
  -6 -21  -9    4.46    4.99
   6  21   9    3.49    4.34
   6 -21  -9    6.57    4.66
  -6  21  10    1.01    3.57
  -6 -21 -10   12.77    6.24
   6  21  10   11.88    5.43
   6 -21 -10   -1.70    4.42
  -6  21  11    2.88    4.42
  -6 -21 -11   10.83    5.35
   6  21  11    3.20    4.58
   6  22   0   -1.18    4.34
  -6 -22   0   -2.84    4.70
   6 -22   0    0.69    4.14
  -6  22   0    7.22    4.54
   6 -22   1    6.81    5.47
  -6  22   1    1.38    4.18
   6  22  -1    2.15    4.87
  -6 -22  -1    1.34    4.26
   6  22   1   -2.31    3.85
  -6 -22   1    3.37    5.03
   6 -22  -1    2.55    4.18
  -6  22  -1    0.49    4.18
   6 -22   2   -3.00    4.70
  -6  22   2    2.76    4.50
   6  22  -2    1.82    4.78
  -6 -22  -2    3.12    4.46
   6  22   2    0.53    4.74
  -6 -22   2    6.12    6.08
   6 -22  -2    2.96    4.91
  -6  22  -2    5.47    4.91
   6 -22   3    1.42    4.05
  -6  22   3    0.28    3.93
   6  22  -3   13.30    6.20
  -6 -22  -3    0.24    4.10
   6  22   3    3.45    4.38
   6 -22  -3    2.03    4.38
  -6  22  -3    1.18    3.65
   6 -22   4    0.45    4.58
  -6  22   4    3.37    4.62
  -6 -22  -4    2.88    4.38
   6  22   4    1.01    4.46
   6 -22  -4   -1.58    4.34
  -6  22  -4    0.08    4.38
   6 -22   5    4.42    5.47
  -6  22   5   -0.73    3.97
  -6 -22  -5    1.74    4.38
   6  22   5    2.15    4.66
   6 -22  -5    3.69    4.42
  -6  22  -5    2.15    4.78
   6 -22   6    1.38    4.87
  -6  22   6   -0.32    3.93
  -6 -22  -6    2.92    4.70
   6  22   6    2.03    4.54
   6 -22  -6    0.85    4.18
  -6  22  -6    3.32    4.70
  -6  22   7    7.70    5.07
  -6 -22  -7   12.08    5.64
   6  22   7    7.18    4.66
   6 -22  -7   18.90    6.69
  -6  22   8   -0.77    3.53
  -6 -22  -8    3.20    4.38
   6  22   8    1.66    3.89
   6 -22  -8    0.00    4.01
  -6  22   9    1.62    4.22
  -6 -22  -9    8.23    5.27
   6  22   9    1.46    4.05
   6 -22  -9    7.38    5.19
  -6  22  10   -3.20    3.69
  -6 -22 -10   -1.42    4.26
   6  22  10    0.20    4.01
   6  23   0   -1.18    3.81
  -6 -23   0    1.22    4.95
   6 -23   0   -0.16    4.14
  -6  23   0    1.66    3.93
   6 -23   1    1.99    4.66
  -6  23   1    4.30    4.46
   6  23  -1   -4.38    4.22
  -6 -23  -1    0.89    3.97
   6  23   1    3.97    4.05
  -6 -23   1   -0.73    4.26
   6 -23  -1    2.35    4.30
  -6  23  -1   -0.89    4.30
   6 -23   2   17.03    6.57
  -6  23   2    6.53    5.11
   6  23  -2   18.57    6.85
  -6 -23  -2   11.60    5.64
   6  23   2   10.91    5.96
  -6 -23   2    8.35    6.20
   6 -23  -2   10.10    5.56
  -6  23  -2   17.35    6.16
   6 -23   3    2.07    4.50
  -6  23   3    0.77    3.65
   6  23  -3   12.41    6.37
  -6 -23  -3    3.89    4.58
   6  23   3    3.16    4.70
   6 -23  -3    2.39    4.50
  -6  23  -3    1.30    3.89
   6 -23   4    0.28    4.46
  -6  23   4    0.16    3.85
  -6 -23  -4   -0.85    4.34
   6  23   4   -4.10    3.73
   6 -23  -4    0.00    3.61
  -6  23  -4    1.91    4.58
   6 -23   5    1.87    5.76
  -6  23   5    2.11    3.97
  -6 -23  -5    1.54    4.05
   6  23   5   -0.65    4.34
   6 -23  -5    2.72    4.42
  -6  23  -5    9.53    5.76
   6 -23   6    8.60    5.68
  -6  23   6    0.69    4.10
  -6 -23  -6    1.05    4.54
   6  23   6    1.42    4.74
   6 -23  -6    2.03    4.26
  -6  23  -6    4.99    5.03
  -6  23   7   -1.58    3.97
  -6 -23  -7   -2.51    4.05
   6  23   7   -3.49    3.81
   6 -23  -7    1.74    3.93
  -6  23  -7    5.72    4.99
  -6  23   8    1.42    3.89
  -6 -23  -8    2.51    4.26
   6  23   8    6.04    5.03
   6 -23  -8   -0.49    4.18
  -6  23   9   -0.32    4.10
  -6 -23  -9    1.62    3.97
   6  23   9    2.19    4.70
   6  24   0    0.77    4.66
  -6 -24   0    7.22    5.64
   6 -24   0    1.42    4.14
  -6  24   0    0.36    4.14
   6 -24   1    3.57    5.19
  -6  24   1    2.88    4.58
   6  24  -1    3.00    5.07
  -6 -24  -1    8.64    5.19
   6  24   1    5.68    4.62
  -6 -24   1    2.27    5.39
   6 -24  -1    4.05    4.91
  -6  24  -1   -1.09    4.66
   6 -24   2   -1.22    4.78
  -6  24   2    2.07    4.22
   6  24  -2   -1.70    4.99
  -6 -24  -2   -1.91    4.54
   6  24   2    8.64    5.35
  -6 -24   2   -1.74    5.11
   6 -24  -2    1.87    4.38
  -6  24  -2   -0.69    4.58
   6 -24   3   10.95    6.37
  -6  24   3    7.26    4.99
   6  24  -3   13.50    7.30
  -6 -24  -3    8.03    5.43
   6  24   3    7.18    5.31
  -6 -24   3   27.78    8.39
   6 -24  -3    9.53    5.23
  -6  24  -3    8.15    5.27
   6 -24   4   -2.72    4.38
  -6  24   4    1.09    3.69
  -6 -24  -4    0.12    4.87
   6  24   4   -2.60    3.97
   6 -24  -4   -3.08    3.81
   6 -24   5    2.43    5.64
  -6  24   5    0.97    4.01
  -6 -24  -5    6.41    4.83
   6  24   5   -0.24    3.69
   6 -24  -5    1.99    4.34
  -6  24  -5   -1.70    4.05
   6 -24   6    4.70    5.31
  -6  24   6   -3.20    3.85
  -6 -24  -6   -1.05    4.01
   6  24   6    0.45    4.01
   6 -24  -6   -1.22    4.14
  -6  24  -6    4.26    4.70
  -6  24   7    6.37    4.58
  -6 -24  -7    5.47    5.07
   6  24   7   -2.84    4.05
  -6  24  -7    1.70    4.70
  -6  24   8    3.20    3.85
   6  24   8   -1.09    4.10
   6  25   0   17.44    6.41
  -6 -25   0   23.52    7.38
   6 -25   0   30.37    8.23
  -6  25   0   17.52    6.57
   6 -25   1    0.73    4.95
  -6  25   1    3.08    4.66
   6  25  -1   10.62    5.68
  -6 -25  -1    5.60    5.19
   6  25   1    1.38    4.05
  -6 -25   1    1.38    5.11
   6 -25  -1    2.11    4.62
  -6  25  -1    4.42    4.83
   6 -25   2    8.88    6.04
  -6  25   2   15.65    6.69
   6  25  -2   11.92    6.65
  -6 -25  -2    6.57    5.27
   6  25   2   10.02    5.92
  -6 -25   2   18.45    7.38
   6 -25  -2   20.48    7.10
  -6  25  -2    7.62    5.56
   6 -25   3   -0.61    5.15
  -6  25   3    0.04    3.65
   6  25  -3    0.32    5.19
  -6 -25  -3    1.74    4.50
   6  25   3    0.77    4.62
  -6 -25   3    7.50    5.92
   6 -25  -3    0.32    4.42
  -6  25  -3    1.62    4.22
   6 -25   4    2.80    4.99
  -6  25   4    5.39    4.46
  -6 -25  -4    0.00    4.46
   6  25   4    7.38    4.91
   6 -25  -4    0.41    4.95
  -6  25  -4    3.00    4.46
   6 -25   5    1.22    4.83
  -6  25   5    1.78    4.46
  -6 -25  -5    2.15    5.27
   6  25   5    1.18    4.66
   6 -25  -5    2.76    4.18
  -6  25  -5    4.70    4.74
   6 -25   6    6.28    5.51
  -6  25   6    2.03    4.30
   6  25   6    4.30    4.70
  -6  25  -6    4.62    4.66
   6  26   0   12.29    5.76
   6 -26   0   21.04    7.10
  -6  26   0   15.08    6.57
   6 -26   1    7.10    5.31
  -6  26   1   -1.18    4.18
   6  26  -1    0.57    4.50
   6  26   1    6.57    4.87
   6 -26  -1    8.15    5.23
  -6  26  -1   -0.53    4.74
   6 -26   2    4.78    4.74
  -6  26   2   -3.53    4.05
   6  26  -2   12.29    6.37
   6  26   2    0.41    5.03
   6 -26  -2    0.89    4.34
  -6  26  -2   -1.38    3.89
   6 -26   3   12.85    5.96
  -6  26   3   10.10    6.08
   6  26  -3   15.29    6.41
   6  26   3    8.68    5.60
   6 -26  -3   15.25    6.57
  -6  26  -3    5.07    4.58
   6 -26   4   -1.95    4.62
  -6  26   4   -3.53    3.97
   6  26  -4   -3.81    4.38
   6  26   4   -0.04    4.42
  -6  26  -4   -1.70    3.77
   7   0   3 3606.29  433.05
  -7   0  -3 2837.10  340.88
  -7  -1  -2  167.66   21.04
   7   1   2  127.20   16.30
  -7  -1  -4    7.87    3.16
   7   1   4    4.38    2.96
   7  -2   2   57.86    7.30
  -7  -2  -2   51.45    8.43
   7   2   2   50.85    8.27
  -7   2  -2   44.76    5.76
  -7  -2  -4  190.13   23.84
   7   2   4  261.81   32.28
   7  -3   1  824.33   99.34
  -7   3  -1  886.77  106.80
   7  -3   2  277.91   33.86
  -7  -3  -2  283.67   35.40
   7   3   2  396.35   48.94
  -7   3  -2  369.23   44.80
  -7  -3  -3    8.03    4.87
   7   3   3    4.95    4.70
  -7  -3  -4  253.66   31.75
   7   3   4  237.77   29.72
  -7  -3  -5   71.81   10.14
   7   3   5   62.40    9.20
   7  -4   0   13.50    3.97
  -7   4   0    2.68    3.16
   7  -4   1    3.32    3.41
  -7   4  -1    6.28    3.04
   7  -4   2    3.69    3.37
  -7  -4  -2    0.65    6.04
   7   4   2   -4.26    5.39
  -7   4  -2    4.99    3.41
  -7  -4  -4    6.12    5.92
   7   4   4   25.02    7.10
  -7  -4  -6    2.64    3.37
   7   4   6    7.70    3.81
  -7  -4  -7    6.49    4.22
   7  -5   0   11.15    4.05
  -7   5   0   -0.61    3.00
   7  -5   1  135.47   17.64
   7   5   1  136.04   18.94
  -7   5  -1  112.32   14.76
   7  -5   2  243.81   30.33
  -7  -5  -2  260.31   33.09
   7   5   2  264.09   33.49
  -7   5  -2  213.56   26.52
   7  -5   3   95.21   13.14
  -7  -5  -3   84.74   12.73
   7   5   3   79.51   12.12
  -7   5  -3   84.66   11.68
  -7  -5  -4   21.81    6.04
   7   5   4    9.69    5.43
  -7  -5  -5  109.52   14.88
   7   5   5  120.34   16.02
  -7  -5  -6   95.89   13.30
   7   5   6  124.24   16.50
  -7  -5  -7   31.59    6.12
   7   5   7   15.04    4.66
  -7  -5  -8  543.34   66.78
   7  -6   0    0.73    4.10
  -7   6   0   10.26    4.38
  -7   6   1   14.11    4.54
  -7  -6  -1   18.49    7.66
   7   6   1   11.07    6.81
   7  -6  -1    6.04    3.81
  -7   6  -1   25.30    5.76
   7  -6   2   13.30    4.99
  -7  -6  -2    6.97    6.24
   7   6   2   -0.12    5.60
  -7   6  -2   15.61    4.70
   7  -6   3   11.80    5.11
  -7  -6  -3   11.19    5.60
   7   6   3   12.61    5.64
  -7   6  -3   -1.22    4.46
  -7  -6  -4    5.11    4.46
   7   6   4    1.50    4.87
  -7  -6  -5   17.19    5.92
   7   6   5   30.17    6.45
  -7  -6  -6    2.43    3.81
   7   6   6   12.93    4.34
  -7  -6  -7   15.65    4.70
   7   6   7    4.91    3.81
  -7  -6  -8   19.99    5.35
   7   6   8   11.88    4.42
  -7  -6  -9   51.21    8.92
   7  -7   0    7.30    4.22
  -7   7   0   -4.01    4.22
   7  -7   1  137.90   18.33
  -7   7   1  108.22   14.76
   7   7   1  203.95   26.92
   7  -7  -1  114.10   15.29
  -7   7  -1  135.79   18.04
   7  -7   2   14.80    5.43
  -7   7   2    3.37    4.05
  -7  -7  -2    1.95    5.23
   7   7   2    6.41    5.68
   7  -7  -2   -1.42    3.89
  -7   7  -2    3.45    4.91
   7  -7   3   37.67    7.42
  -7  -7  -3   51.78    9.41
   7   7   3   30.49    7.22
  -7   7  -3   51.98    9.12
  -7  -7  -4   48.37    8.68
   7   7   4   39.17    7.62
  -7  -7  -5  217.70   28.18
   7   7   5  197.06   25.46
  -7  -7  -6   27.29    6.04
   7   7   6   52.47    8.51
  -7  -7  -7    6.37    4.01
   7   7   7   13.87    4.54
  -7  -7  -8    5.84    4.10
   7   7   8   13.14    4.54
  -7  -7  -9   12.85    5.64
   7   7   9   31.42    6.85
   7  -8   0   -0.97    4.34
  -7   8   0   -1.09    4.95
   7  -8   1   98.12   13.99
  -7  -8  -1  166.04   22.75
  -7   8  -1  112.56   15.53
   7  -8   2   81.22   12.20
  -7   8   2   53.36    8.72
  -7  -8  -2   61.47   10.79
   7   8   2   51.78    9.89
   7  -8  -2   84.14   12.12
  -7   8  -2   75.58   11.60
   7  -8   3  359.45   44.85
  -7   8   3  387.35   48.01
  -7  -8  -3  382.28   47.93
   7   8   3  345.71   43.47
   7  -8  -3  407.10   50.40
  -7   8  -3  357.95   44.72
  -7  -8  -4  121.89   17.11
   7   8   4   78.95   12.08
  -7  -8  -5   68.69   10.91
   7   8   5   94.48   13.66
  -7  -8  -6    0.53    4.46
   7   8   6    3.61    4.10
  -7  -8  -9    2.88    4.54
   7   8   9    3.65    4.74
  -7  -8 -10  207.16   27.69
   7   8  10  207.28   27.45
   7  -9   0    1.58    4.38
  -7   9   0    2.35    5.31
   7  -9   1    1.50    4.38
  -7   9   1   16.75    5.43
  -7  -9  -1   12.69    6.93
   7   9   1    6.93    6.73
   7  -9  -1   11.19    4.66
  -7   9  -1   29.72    6.69
   7  -9   2   12.69    5.60
  -7   9   2    1.87    4.58
  -7  -9  -2    8.31    5.72
   7   9   2    2.64    4.91
   7  -9  -2    8.56    4.30
  -7   9  -2    8.15    5.31
   7  -9   3    7.34    5.31
  -7   9   3    9.53    4.54
  -7  -9  -3    4.91    5.23
   7   9   3    6.41    4.87
   7  -9  -3   -0.73    3.69
  -7   9  -3    3.65    5.11
  -7   9   4   22.75    6.00
  -7  -9  -4    0.53    4.46
   7   9   4    0.49    4.10
   7  -9  -4    4.70    4.22
  -7   9  -4    5.43    5.39
  -7  -9  -5    0.16    4.46
   7   9   5    8.23    4.46
  -7  -9  -6    9.69    5.56
   7   9   6   -2.19    4.18
  -7  -9  -7    0.89    4.22
   7   9   7    3.24    3.81
  -7  -9  -8   44.44    8.51
   7   9   8   50.16    8.92
  -7  -9  -9   19.67    6.12
   7   9   9   15.04    5.64
  -7  -9 -10    4.91    4.78
   7   9  10    6.41    5.11
  -7  -9 -11   -1.30    4.14
   7   9  11   -0.57    4.22
   7  10   0   35.32    8.60
  -7  10   0   22.22    5.68
   7 -10   1    7.01    4.95
  -7  10   1   19.83    5.39
   7  10   1    0.81    5.47
   7 -10  -1   20.19    5.76
  -7  10  -1   16.62    5.31
   7 -10   2    2.27    4.99
  -7  10   2   12.98    4.58
  -7 -10  -2    3.69    5.64
   7  10   2    8.07    5.15
   7 -10  -2    1.70    3.93
  -7  10  -2    7.83    5.15
   7 -10   3   96.46   14.27
  -7  10   3   81.26   11.88
  -7 -10  -3   94.15   14.56
   7  10   3   80.61   12.69
   7 -10  -3  122.62   16.83
  -7  10  -3   87.58   13.26
   7 -10   4   56.16   10.34
  -7  10   4   78.91   11.84
  -7 -10  -4   42.17    8.60
   7  10   4   66.74   10.99
   7 -10  -4   82.43   12.20
  -7  10  -4   64.88   10.95
  -7  10   5    4.50    4.14
  -7 -10  -5    7.01    4.87
   7  10   5    7.46    4.66
   7 -10  -5    6.08    4.18
  -7 -10  -6   58.96   10.66
   7  10   6   26.96    6.81
  -7 -10  -7   48.33    9.16
   7  10   7   53.12    9.33
  -7 -10  -8    6.93    5.31
   7  10   8   -2.15    4.54
  -7 -10  -9    0.36    4.91
   7  10   9    2.60    4.78
  -7 -10 -10    0.85    4.34
   7  10  10   20.72    6.57
  -7 -10 -11    4.26    4.38
   7  10  11    2.03    4.10
  -7 -10 -12   10.02    5.19
   7  10  12    0.24    3.89
   7  11   0   10.22    6.16
  -7 -11   0   20.84    7.83
   7 -11   0   -0.04    4.50
  -7  11   0   -1.54    4.14
   7 -11   1   24.00    6.28
  -7  11   1   10.66    4.95
  -7 -11  -1    6.81    6.20
   7  11   1    2.84    5.80
   7 -11  -1    2.68    4.46
  -7  11  -1    7.38    4.70
   7 -11   2   15.25    6.08
  -7  11   2   13.50    4.78
  -7 -11  -2   20.72    7.01
   7  11   2   14.39    5.76
   7 -11  -2    4.95    4.34
  -7  11  -2    3.20    4.95
   7 -11   3    6.53    5.31
  -7  11   3    1.09    3.53
  -7 -11  -3    3.93    4.95
   7  11   3   -1.70    4.95
   7 -11  -3    5.43    4.05
  -7  11  -3    5.88    5.07
   7 -11   4   10.26    6.57
  -7  11   4    9.12    4.30
  -7 -11  -4    7.74    5.56
   7  11   4   18.77    6.20
   7 -11  -4   13.02    4.58
  -7  11  -4   15.41    6.57
  -7  11   5    6.61    4.26
  -7 -11  -5   17.35    6.33
   7  11   5   20.96    6.53
   7 -11  -5   16.99    5.23
  -7  11   6    0.53    4.10
  -7 -11  -6    2.23    5.07
   7  11   6    8.51    5.72
   7 -11  -6    8.68    4.74
  -7 -11  -7    4.87    6.20
   7  11   7    4.18    5.15
  -7 -11  -8    6.33    5.43
   7  11   8   24.94    7.10
  -7 -11  -9   -2.88    4.70
   7  11   9    4.18    5.11
  -7 -11 -10   12.77    5.27
   7  11  10   25.79    6.73
  -7 -11 -11   12.93    5.15
   7  11  11    2.19    4.54
  -7 -11 -12   -4.42    3.73
   7  11  12    2.47    4.10
  -7 -11 -13    6.45    4.62
   7  12   0    0.65    6.12
  -7 -12   0    2.55    6.73
   7 -12   0    4.66    4.70
  -7  12   0    0.49    4.30
   7 -12   1   86.28   13.22
  -7  12   1   81.54   12.61
  -7 -12  -1   90.83   14.96
   7  12   1   66.30   12.08
   7 -12  -1   70.35   11.35
  -7  12  -1   71.08   11.43
  -7  12   2   38.72    7.50
   7  12   2   64.88   11.64
   7 -12  -2   43.63    8.07
  -7  12  -2   28.83    7.54
   7 -12   3   13.06    6.41
  -7  12   3    5.80    3.97
  -7 -12  -3   12.16    6.45
   7  12   3    3.20    5.96
   7 -12  -3   17.23    5.51
  -7  12  -3    6.00    5.51
   7 -12   4  261.57   34.30
  -7  12   4  321.87   40.63
   7  12   4  287.24   37.22
   7 -12  -4  233.31   30.05
  -7  12  -4  317.97   41.48
  -7  12   5    5.27    4.50
  -7 -12  -5   -1.91    5.64
   7 -12  -5   14.68    5.15
  -7  12   6    9.81    5.07
  -7 -12  -6   33.69    8.43
   7  12   6   15.94    7.01
   7 -12  -6   13.10    5.51
  -7  12   7   -3.57    4.70
  -7 -12  -7    6.28    6.53
   7  12   7    5.15    5.47
   7 -12  -7    0.81    4.83
  -7 -12  -8   16.67    6.53
   7  12   8    7.46    5.47
  -7 -12  -9    4.46    5.03
   7  12   9   14.15    6.12
  -7 -12 -10   21.37    6.45
   7  12  10   41.03    8.47
  -7 -12 -11    2.64    3.81
   7  12  11    3.28    4.26
  -7 -12 -12    0.12    3.85
   7  12  12    2.92    4.46
  -7 -12 -13    2.15    4.38
   7  12  13    6.04    4.74
  -7 -12 -14   16.54    6.08
   7  13   0    0.69    6.33
  -7 -13   0    2.27    7.10
   7 -13   1  499.54   62.24
  -7  13   1  425.75   53.40
  -7 -13  -1  510.09   64.43
   7  13   1  544.55   68.53
   7 -13  -1  602.13   74.45
  -7  13  -1  454.13   56.81
   7 -13   2   77.73   13.10
  -7  13   2   89.00   13.34
  -7 -13  -2   76.88   13.79
   7  13   2  106.19   16.54
   7 -13  -2   98.73   14.60
  -7  13  -2   82.51   13.66
   7 -13   3   48.41   10.14
  -7 -13  -3   24.53    7.91
   7  13   3   37.18    9.65
   7 -13  -3   34.34    7.18
   7 -13   4  245.35   32.48
  -7  13   4  161.62   21.65
  -7 -13  -4  197.63   27.09
   7 -13  -4  265.63   34.02
  -7  13  -4  273.70   36.05
  -7  13   5  133.56   18.57
   7 -13  -5  126.39   17.68
  -7  13  -5   92.04   15.41
  -7  13   6   31.06    7.34
  -7 -13  -6   50.08   10.30
   7  13   6   47.44   10.10
   7 -13  -6   45.98    8.64
  -7  13   7    1.26    5.03
  -7 -13  -7    4.95    6.37
   7  13   7    5.07    6.28
   7 -13  -7    0.53    4.95
  -7 -13  -8   56.93   10.91
   7  13   8   52.47   10.30
   7 -13  -8   42.98    9.24
  -7 -13  -9   24.25    7.06
   7  13   9   45.49    9.08
  -7 -13 -11   29.40    7.18
   7  13  11   27.41    6.85
  -7 -13 -12   31.38    7.66
   7  13  12   12.98    5.31
  -7 -13 -13   31.02    7.54
   7  13  13   26.72    7.26
  -7 -13 -14   16.34    6.28
   7  13  14   17.88    6.12
  -7 -13 -15    4.74    4.46
   7  14   0    5.19    6.85
  -7 -14   0   -3.77    7.18
   7 -14   0    3.16    5.11
  -7  14   0    1.99    4.87
   7 -14   1    4.34    5.23
  -7  14   1    5.96    5.11
   7  14  -1    3.97    7.10
  -7 -14  -1    6.85    7.18
   7  14   1    2.96    6.45
  -7  14  -1    4.58    5.03
   7 -14   2    6.53    6.12
  -7  14   2   -1.78    4.66
  -7 -14  -2   -1.50    6.45
   7  14   2    7.54    6.00
   7 -14  -2   -4.18    4.74
  -7  14  -2   18.37    7.30
   7 -14   3   29.03    8.39
  -7  14   3   35.28    7.79
  -7 -14  -3   33.13    9.29
   7  14   3   34.06    9.49
   7 -14  -3   28.18    6.97
  -7  14  -3   35.36    8.80
   7 -14   4    3.81    5.88
  -7  14   4    1.78    4.10
  -7 -14  -4    5.92    6.57
   7  14   4    4.42    6.20
   7 -14  -4    5.64    4.99
  -7  14  -4    5.03    6.57
  -7  14   5   -0.57    4.18
  -7 -14  -5    3.24    6.24
   7  14   5    8.92    6.85
   7 -14  -5    7.58    5.07
  -7  14  -5    0.04    6.12
  -7  14   6    6.41    5.19
  -7 -14  -6    5.35    5.96
   7  14   6    7.74    6.37
   7 -14  -6    1.99    4.62
  -7  14   7    0.36    4.62
  -7 -14  -7    4.26    5.35
   7  14   7    4.78    5.51
   7 -14  -7    1.91    4.83
  -7  14   8    2.07    3.97
  -7 -14  -8    1.38    5.43
   7  14   8    2.80    5.56
   7 -14  -8   -1.58    4.18
  -7 -14  -9    0.77    4.05
   7  14   9    2.35    4.62
   7 -14  -9    1.34    4.10
  -7 -14 -10    3.85    4.14
   7  14  10    5.03    4.22
  -7 -14 -11    6.45    4.58
   7  14  11    2.51    4.34
  -7 -14 -12    0.04    3.81
   7  14  12   -2.88    4.01
  -7 -14 -13    1.66    3.65
   7  14  13    1.01    4.05
  -7 -14 -14    1.95    4.26
   7  14  14    2.88    4.26
  -7 -14 -15   -1.82    4.05
   7  14  15   -0.85    3.85
   7  15   0   15.00    7.91
  -7 -15   0    4.34    7.74
   7 -15   0    7.66    5.88
  -7  15   0    8.23    5.56
   7 -15   1   28.55    7.66
  -7  15   1   37.47    8.60
   7  15  -1   23.48    8.96
  -7 -15  -1   42.09   10.26
   7  15   1   43.95   10.83
   7 -15  -1   19.30    6.93
  -7  15  -1   40.63    8.92
   7 -15   2   14.03    6.45
  -7  15   2   26.68    7.38
  -7 -15  -2   19.10    8.11
   7  15   2   26.64    8.19
   7 -15  -2   16.10    6.49
  -7  15  -2   20.72    7.58
   7 -15   3   35.40    8.72
  -7  15   3   33.29    7.83
  -7 -15  -3   42.45   10.10
   7  15   3   42.98   10.46
   7 -15  -3   29.52    7.38
  -7  15  -3   28.26    7.95
   7 -15   4    5.80    5.76
  -7  15   4    4.22    4.58
  -7 -15  -4    5.51    6.08
   7  15   4   20.64    7.83
   7 -15  -4    0.89    4.50
  -7  15  -4   12.77    6.69
   7 -15   5    8.60    6.53
  -7  15   5    8.56    5.07
  -7 -15  -5   10.50    6.41
   7  15   5    1.22    6.16
   7 -15  -5    4.74    4.78
  -7  15  -5   18.25    7.46
  -7 -15  -6   14.48    6.53
   7  15   6   18.49    6.73
   7 -15  -6   23.23    6.81
  -7  15   7    3.73    4.42
   7  15   7    4.34    4.87
   7 -15  -7    4.01    4.18
  -7  15   8    5.03    3.73
  -7 -15  -8    5.15    5.27
   7  15   8    4.91    4.91
   7 -15  -8   11.39    4.95
  -7  15   9    3.57    3.93
  -7 -15  -9    3.85    4.26
   7  15   9   -0.97    3.97
   7 -15  -9    6.57    4.74
  -7 -15 -10   14.11    5.43
   7  15  10    3.85    4.38
   7 -15 -10    1.34    4.14
  -7 -15 -11    4.34    4.42
   7  15  11    3.16    4.50
  -7 -15 -12    0.28    3.97
   7  15  12   -1.09    3.89
  -7 -15 -13   -2.55    3.73
   7  15  13   -1.42    3.89
  -7 -15 -14    3.65    4.18
   7  15  14   -2.64    3.65
   7  16   0    3.57    7.22
  -7 -16   0    4.62    7.66
   7 -16   0    2.68    5.64
  -7  16   0    3.81    5.35
  -7  16   1   63.29   11.27
   7  16  -1   28.22    9.49
  -7 -16  -1   32.60    9.41
   7  16   1   64.02   12.16
  -7 -16   1   25.63    9.12
   7 -16  -1   46.10    9.41
  -7  16  -1   48.58    9.73
   7 -16   2   15.00    6.73
  -7  16   2    1.50    5.68
  -7 -16  -2   21.17    8.35
   7  16   2    3.65    5.88
   7 -16  -2    2.55    5.47
  -7  16  -2    0.53    5.27
   7 -16   3   58.35   10.87
  -7  16   3   60.70   10.99
  -7 -16  -3   54.37   10.87
   7  16   3   40.10    9.97
   7 -16  -3   56.97   10.66
  -7  16  -3   50.81   10.06
   7 -16   4   32.56    8.03
  -7  16   4   38.72    8.27
  -7 -16  -4   36.01    9.08
   7  16   4   25.71    7.91
   7 -16  -4   27.49    7.10
  -7  16  -4   38.52    9.12
   7 -16   5   13.79    6.53
  -7  16   5   -3.32    4.10
  -7 -16  -5    9.29    5.76
   7  16   5   11.56    6.37
   7 -16  -5    1.87    4.34
  -7  16  -5    5.84    5.88
  -7  16   6   11.84    5.07
  -7 -16  -6    4.99    6.04
   7  16   6   10.75    6.08
   7 -16  -6   19.58    6.08
  -7  16   7    1.01    4.01
  -7 -16  -7    1.99    4.83
   7  16   7    0.45    4.87
   7 -16  -7    2.55    3.73
  -7  16   8    4.78    4.46
  -7 -16  -8   11.11    5.60
   7  16   8   12.81    6.12
   7 -16  -8    6.61    4.14
  -7  16   9    5.23    4.38
  -7 -16  -9    5.23    5.15
   7  16   9    3.69    4.42
   7 -16  -9   -0.28    3.81
  -7  16  10    9.20    4.70
  -7 -16 -10   25.06    6.93
   7  16  10   14.56    5.68
   7 -16 -10    5.31    4.83
  -7 -16 -11    3.32    4.46
   7  16  11    0.28    4.22
   7 -16 -11    3.37    4.50
  -7 -16 -12    3.49    4.26
   7  16  12    6.33    4.42
  -7 -16 -13    6.85    4.78
   7  16  13   12.41    5.47
  -7 -16 -14    4.58    4.05
   7  16  14    2.47    4.50
   7  17   0    6.49    6.77
  -7 -17   0    5.19    6.45
   7 -17   0    5.19    5.60
  -7  17   0   -0.85    4.54
   7 -17   1    8.19    5.51
  -7  17   1   11.31    5.92
   7  17  -1   10.34    7.14
  -7 -17  -1   32.92    9.37
   7  17   1   16.38    6.93
  -7 -17   1   20.92    8.19
   7 -17  -1    5.76    5.19
  -7  17  -1   13.75    5.88
   7 -17   2    0.04    5.51
  -7  17   2    2.68    4.74
  -7 -17  -2    1.09    6.12
   7  17   2   -1.01    5.39
   7 -17  -2   -1.09    4.42
  -7  17  -2    5.96    5.84
   7 -17   3    4.87    5.56
  -7  17   3    4.26    4.91
  -7 -17  -3   -1.66    5.35
   7  17   3   -1.74    5.72
   7 -17  -3   -1.22    4.26
  -7  17  -3    4.34    5.15
   7 -17   4    3.57    5.15
  -7  17   4    1.62    4.42
  -7 -17  -4    0.57    4.99
   7  17   4   -2.11    4.74
   7 -17  -4    3.85    4.62
  -7  17  -4    5.11    5.80
   7 -17   5   11.84    6.08
  -7  17   5    8.35    4.58
  -7 -17  -5    6.33    5.64
   7  17   5    3.93    5.60
   7 -17  -5    0.57    4.01
  -7  17  -5    7.70    5.56
  -7  17   6   15.94    5.39
  -7 -17  -6    3.73    5.31
   7  17   6   13.30    6.24
   7 -17  -6    5.15    4.34
  -7  17   7    1.87    3.81
  -7 -17  -7    2.27    4.58
   7  17   7    7.54    5.35
   7 -17  -7   14.15    5.47
  -7  17   8    2.51    4.05
  -7 -17  -8    0.85    4.54
   7  17   8   -0.69    4.74
   7 -17  -8    0.77    3.81
  -7  17   9   -1.54    3.65
  -7 -17  -9    4.05    4.62
   7  17   9   -2.23    4.34
   7 -17  -9    4.18    4.30
  -7  17  10    1.01    4.05
  -7 -17 -10    1.70    4.26
   7  17  10    0.24    4.26
   7 -17 -10    1.54    4.10
  -7  17  11    1.87    4.01
  -7 -17 -11    5.11    4.74
   7  17  11    2.84    4.66
   7 -17 -11    3.61    4.58
  -7 -17 -12    6.61    4.78
   7  17  12   -2.03    4.14
   7 -17 -12    7.50    4.99
  -7 -17 -13    9.85    5.31
   7  17  13    7.10    4.87
   7  18   0    6.57    6.53
  -7 -18   0    7.99    6.08
   7 -18   0    4.74    4.58
  -7  18   0    3.28    4.74
   7 -18   1   10.42    5.68
  -7  18   1    6.93    5.03
   7  18  -1    5.80    6.61
  -7 -18  -1   11.35    6.77
   7  18   1    8.03    6.20
  -7 -18   1    8.72    6.73
   7 -18  -1    5.23    4.95
  -7  18  -1   24.53    6.89
   7 -18   2   -0.08    5.19
  -7  18   2   17.56    6.04
  -7 -18  -2    0.49    5.51
   7  18   2   19.99    7.38
  -7  18  -2    6.45    5.60
   7 -18   3   25.34    7.54
  -7  18   3   31.46    7.54
  -7 -18  -3   28.59    8.03
   7  18   3   21.25    7.66
   7 -18  -3   56.08   10.26
  -7  18  -3   33.74    7.99
   7 -18   4   24.33    7.34
  -7  18   4   30.86    7.46
  -7 -18  -4   33.13    8.60
   7  18   4   27.45    7.87
   7 -18  -4   34.59    7.99
  -7  18  -4   42.82    9.41
   7 -18   5    8.80    5.43
  -7  18   5   13.34    5.11
  -7 -18  -5   34.06    8.47
   7  18   5   18.41    6.93
   7 -18  -5    8.31    4.62
  -7  18  -5    5.43    5.19
  -7  18   6   -0.41    3.61
  -7 -18  -6   18.85    6.65
   7 -18  -6    3.81    4.01
  -7  18   7    0.89    3.49
  -7 -18  -7   -3.69    4.50
   7  18   7    6.77    4.66
   7 -18  -7   -0.32    3.77
  -7  18   8    6.20    4.54
  -7 -18  -8    7.18    4.87
   7  18   8   14.80    6.24
   7 -18  -8   14.31    5.72
  -7 -18  -9    0.08    3.77
   7  18   9   -1.18    4.46
   7 -18  -9   18.61    6.37
  -7  18  10   45.70    9.24
  -7 -18 -10   53.52   10.54
   7  18  10   49.10   10.30
   7 -18 -10   37.75    8.60
  -7  18  11    0.20    3.81
  -7 -18 -11    9.97    5.23
   7  18  11    3.20    4.34
   7 -18 -11    7.10    4.50
  -7  18  12    0.49    4.14
  -7 -18 -12   -1.95    3.81
   7  18  12    0.20    4.01
   7 -18 -12    5.07    4.70
  -7 -18 -13   10.14    5.88
   7  18  13   15.25    6.16
   7  19   0    1.05    6.33
  -7 -19   0    3.08    5.72
   7 -19   0    1.09    4.34
  -7  19   0    1.70    4.46
   7 -19   1   -3.81    4.66
  -7  19   1   -2.47    3.93
   7  19  -1   -2.19    5.47
  -7 -19  -1    5.96    5.88
   7  19   1    1.01    5.15
  -7 -19   1    2.31    6.12
   7 -19  -1   -0.36    4.26
  -7  19  -1    2.07    4.38
   7 -19   2    4.74    4.91
  -7  19   2    2.80    4.50
   7  19  -2    3.41    5.68
  -7 -19  -2    2.35    5.19
   7  19   2   -2.39    4.70
   7 -19  -2   -1.74    4.18
  -7  19  -2    1.74    4.62
   7 -19   3   16.14    6.20
  -7  19   3    5.88    4.54
  -7 -19  -3    7.87    5.39
   7  19   3    8.64    6.08
   7 -19  -3   -1.95    4.38
  -7  19  -3    1.58    4.22
   7 -19   4    3.57    4.95
  -7  19   4    1.09    3.69
  -7 -19  -4    1.54    4.62
   7  19   4    8.43    5.84
   7 -19  -4    0.73    4.14
  -7  19  -4   -2.51    4.95
   7 -19   5    3.81    5.19
  -7  19   5    1.87    4.01
  -7 -19  -5   -0.20    4.78
   7  19   5    1.78    4.99
   7 -19  -5    1.70    4.05
  -7  19  -5    6.41    5.39
  -7  19   6    0.24    3.45
  -7 -19  -6   -2.76    4.66
   7  19   6    1.87    4.87
   7 -19  -6    5.96    4.58
  -7  19  -6    4.70    5.03
  -7  19   7   -0.89    3.45
  -7 -19  -7    0.53    4.30
   7  19   7    3.00    4.50
   7 -19  -7    2.72    4.18
  -7  19   8   -1.78    3.81
  -7 -19  -8    3.85    4.70
   7  19   8   -2.35    3.89
   7 -19  -8    1.14    4.01
  -7  19   9    2.88    4.05
  -7 -19  -9    3.08    4.50
   7  19   9   -1.62    4.10
   7 -19  -9   -0.28    4.22
  -7  19  10    2.11    3.97
  -7 -19 -10    1.50    4.01
   7  19  10   -1.78    3.81
   7 -19 -10   -3.28    3.93
  -7  19  11    3.81    4.26
  -7 -19 -11    2.39    3.89
   7  19  11   -0.36    3.89
   7 -19 -11    5.43    4.26
  -7  19  12    1.30    3.81
  -7 -19 -12    0.85    4.38
   7  19  12    0.28    4.10
   7  20   0   -1.62    5.72
  -7 -20   0    6.65    5.51
  -7  20   0    6.28    4.62
   7 -20   1    6.04    5.43
  -7  20   1   -0.49    4.18
   7  20  -1    3.49    5.51
   7  20   1    6.85    5.27
  -7 -20   1    0.32    4.95
   7 -20  -1    6.73    5.03
  -7  20  -1    8.72    5.11
   7 -20   2   -1.82    4.42
  -7  20   2    1.91    4.46
   7  20  -2   23.92    7.54
  -7 -20  -2    1.74    4.87
   7  20   2    3.16    4.62
  -7 -20   2   13.87    7.26
   7 -20  -2    2.60    4.30
  -7  20  -2    0.77    4.42
   7 -20   3   24.90    6.81
  -7  20   3   10.22    5.47
  -7 -20  -3    6.45    5.39
   7  20   3    3.32    5.27
   7 -20  -3   22.06    6.97
  -7  20  -3   23.27    6.65
   7 -20   4    0.32    4.26
  -7  20   4    3.41    4.26
  -7 -20  -4    5.39    5.19
   7  20   4    2.84    4.66
   7 -20  -4    0.49    4.30
  -7  20  -4   12.57    5.51
   7 -20   5    0.49    4.58
  -7  20   5    2.43    4.22
  -7 -20  -5   -1.82    4.26
   7  20   5    4.30    4.66
   7 -20  -5   -2.47    3.85
  -7  20  -5    1.99    4.62
   7 -20   6    5.60    5.35
  -7  20   6    2.11    4.46
  -7 -20  -6    4.30    4.83
   7  20   6    9.24    5.60
   7 -20  -6    2.88    4.30
  -7  20  -6   11.35    5.72
  -7  20   7    6.97    4.83
  -7 -20  -7   16.22    6.24
   7  20   7   18.00    6.53
   7 -20  -7    0.16    4.10
  -7  20   8   15.08    6.08
  -7 -20  -8   10.18    5.72
   7  20   8   13.06    5.72
   7 -20  -8   18.94    6.33
  -7  20   9    3.89    4.58
  -7 -20  -9    2.64    4.22
   7  20   9    0.85    4.14
   7 -20  -9    8.03    4.91
  -7  20  10    1.34    4.10
  -7 -20 -10    7.46    5.15
   7  20  10    5.80    4.87
   7 -20 -10    1.18    4.05
  -7  20  11    7.14    4.42
  -7 -20 -11    1.09    4.38
   7  20  11    0.45    4.10
   7  21   0   -0.93    4.62
  -7 -21   0    0.04    4.22
   7 -21   0    2.23    4.30
  -7  21   0    0.28    4.10
   7 -21   1   18.12    6.45
  -7  21   1    9.85    5.19
   7  21  -1   19.62    7.26
  -7 -21  -1   18.12    6.49
   7  21   1   11.31    5.56
  -7 -21   1   16.10    6.77
   7 -21  -1   20.84    6.85
  -7  21  -1   13.66    5.76
   7 -21   2    1.01    4.38
  -7  21   2    1.91    4.10
   7  21  -2   18.12    6.61
  -7 -21  -2    4.62    4.83
   7  21   2    1.05    4.50
  -7 -21   2   16.67    6.77
   7 -21  -2    1.87    4.18
  -7  21  -2    3.37    4.58
   7 -21   3    9.12    5.72
  -7  21   3    9.73    4.95
  -7 -21  -3    6.61    5.39
   7  21   3    3.04    5.03
   7 -21  -3    3.08    4.66
  -7  21  -3    4.42    4.22
   7 -21   4   -1.26    4.26
  -7  21   4   -1.50    3.77
  -7 -21  -4    3.37    4.50
   7  21   4    7.70    4.58
   7 -21  -4    1.78    4.42
  -7  21  -4   -1.30    4.22
   7 -21   5   10.02    5.60
  -7  21   5    5.72    4.87
  -7 -21  -5    3.77    5.07
   7  21   5    6.65    5.19
   7 -21  -5   24.82    7.38
  -7  21  -5   17.19    6.08
   7 -21   6    5.96    5.23
  -7  21   6   21.08    6.73
  -7 -21  -6   11.96    6.04
   7  21   6   11.68    6.00
   7 -21  -6   27.21    7.42
  -7  21  -6   14.96    5.92
  -7  21   7    0.81    3.89
  -7 -21  -7    2.19    4.58
   7  21   7    4.30    4.70
   7 -21  -7    0.53    4.05
  -7  21   8   44.40    9.45
  -7 -21  -8   43.22    9.16
   7 -21  -8   51.82   10.42
  -7  21   9   -0.53    3.85
  -7 -21  -9   -0.85    3.93
   7  21   9   11.56    5.80
   7 -21  -9    2.11    4.30
  -7  21  10   14.80    5.64
  -7 -21 -10   11.92    6.04
   7  21  10    4.18    4.78
  -7  21  11   -0.81    4.01
  -7 -21 -11   -3.41    4.26
   7  21  11    0.24    4.14
   7  22   0    1.34    4.38
  -7 -22   0   -5.27    4.05
   7 -22   0   -3.97    3.93
  -7  22   0   -3.04    3.77
   7 -22   1    0.57    4.42
  -7  22   1    5.11    4.34
   7  22  -1    3.32    4.66
  -7 -22  -1    1.87    4.62
   7  22   1   -0.28    4.01
  -7 -22   1    1.38    4.87
   7 -22  -1    4.18    4.58
  -7  22  -1   -4.26    3.89
   7 -22   2    1.30    4.22
  -7  22   2    3.49    4.38
   7  22  -2    2.88    4.83
  -7 -22  -2   -2.51    3.69
   7  22   2    1.78    4.46
  -7 -22   2   10.26    5.60
   7 -22  -2   -1.42    4.62
  -7  22  -2    1.42    3.69
   7 -22   3    4.38    4.42
  -7  22   3    2.19    3.81
  -7 -22  -3    1.62    4.58
   7  22   3    0.28    4.14
   7 -22  -3    1.42    4.22
  -7  22  -3    4.18    3.89
   7 -22   4    1.62    4.22
  -7  22   4    4.05    4.22
  -7 -22  -4    1.18    3.81
   7  22   4    0.16    3.85
   7 -22  -4    5.03    4.62
  -7  22  -4   -0.16    3.89
   7 -22   5    2.23    4.70
  -7  22   5    0.49    3.73
  -7 -22  -5   -0.08    3.93
   7  22   5    2.31    4.30
   7 -22  -5    1.14    4.30
  -7  22  -5   -0.32    4.42
   7 -22   6   -1.38    5.07
  -7  22   6    1.18    4.18
  -7 -22  -6    2.23    4.46
   7  22   6   -1.38    4.18
   7 -22  -6   -0.32    4.26
  -7  22  -6    2.55    4.58
  -7  22   7   -0.16    3.89
  -7 -22  -7    2.64    4.42
   7  22   7    0.97    4.58
   7 -22  -7    4.58    4.14
  -7  22  -7   -4.30    4.30
  -7  22   8   -1.95    3.89
  -7 -22  -8   -0.20    3.93
   7  22   8    1.50    3.93
   7 -22  -8    2.51    4.30
  -7  22   9    3.49    3.97
  -7 -22  -9    0.93    3.97
   7  22   9    2.07    4.01
  -7  22  10    1.14    4.10
  -7 -22 -10    1.09    4.83
   7  22  10   -0.93    4.50
   7  23   0    1.18    4.95
  -7 -23   0    1.95    4.91
   7 -23   0    1.87    4.26
  -7  23   0   -0.69    3.97
   7 -23   1   13.95    6.12
  -7  23   1    3.85    4.26
   7  23  -1    1.26    4.66
  -7 -23  -1   12.73    6.20
   7  23   1   16.87    6.49
  -7 -23   1    8.88    6.20
   7 -23  -1    5.35    4.95
  -7  23  -1   15.69    5.96
   7 -23   2    4.18    4.99
  -7  23   2    4.83    4.70
   7  23  -2    3.12    4.62
  -7 -23  -2   -0.93    4.46
   7  23   2    0.36    4.78
  -7 -23   2    1.91    5.39
   7 -23  -2    3.85    4.66
  -7  23  -2    2.23    4.62
   7 -23   3   -0.49    4.34
  -7  23   3    0.41    3.73
   7  23  -3    5.96    5.68
  -7 -23  -3    2.23    4.74
   7  23   3    4.34    4.99
   7 -23  -3    2.96    4.14
  -7  23  -3    8.76    4.74
   7 -23   4    1.82    4.54
  -7  23   4    0.41    3.69
  -7 -23  -4   -0.57    4.30
   7  23   4    1.78    4.34
   7 -23  -4    1.66    4.62
  -7  23  -4   -1.18    4.05
   7 -23   5   -0.97    4.74
  -7  23   5   -2.11    3.77
  -7 -23  -5    5.07    4.74
   7  23   5    8.51    5.23
   7 -23  -5    1.01    4.26
  -7  23  -5   -3.37    4.22
   7 -23   6    0.85    5.39
  -7  23   6    1.09    3.85
  -7 -23  -6   12.08    5.60
   7  23   6    4.78    4.95
   7 -23  -6    6.00    4.62
  -7  23  -6    0.04    4.58
  -7  23   7   -2.72    3.77
  -7 -23  -7   -0.12    3.93
   7  23   7    6.81    5.27
   7 -23  -7    6.61    4.78
  -7  23  -7   12.29    6.12
  -7  23   8    4.42    4.26
  -7 -23  -8   -0.85    4.46
   7  23   8    5.60    4.62
  -7  23   9    1.95    4.58
  -7 -23  -9    4.74    4.87
   7  23   9   11.27    6.41
   7  24   0   -0.28    4.78
  -7 -24   0    1.66    4.54
   7 -24   0    8.23    5.15
  -7  24   0   -0.24    3.73
   7 -24   1    0.32    4.62
  -7  24   1   -4.14    4.05
   7  24  -1    2.68    5.11
  -7 -24  -1    5.64    5.11
   7  24   1   -0.77    4.30
  -7 -24   1    1.82    6.00
   7 -24  -1   -2.96    3.85
  -7  24  -1    2.11    4.22
   7 -24   2   -4.46    4.78
  -7  24   2    1.38    3.97
   7  24  -2    0.53    4.78
  -7 -24  -2   -1.01    4.83
   7  24   2   -1.66    4.22
  -7 -24   2   -3.61    5.31
   7 -24  -2    6.61    4.95
  -7  24  -2    1.26    4.38
   7 -24   3   -0.08    4.38
  -7  24   3   -0.28    3.85
   7  24  -3   -5.47    4.54
  -7 -24  -3    1.95    4.58
   7  24   3   -0.81    4.58
   7 -24  -3    6.08    4.87
  -7  24  -3    1.70    4.01
   7 -24   4   -3.28    4.05
  -7  24   4    9.93    5.19
  -7 -24  -4   -0.12    4.42
   7  24   4    1.09    4.78
   7 -24  -4    3.77    4.54
  -7  24  -4    2.92    4.38
   7 -24   5   -3.41    4.42
  -7  24   5    0.20    4.05
  -7 -24  -5    0.04    4.01
   7  24   5   -3.93    4.30
   7 -24  -5    0.41    4.10
  -7  24  -5    0.00    5.03
   7 -24   6    0.93    5.07
  -7  24   6    3.57    4.34
  -7 -24  -6    2.15    4.58
   7  24   6   -0.04    4.26
   7 -24  -6   -2.55    3.77
  -7  24  -6    4.54    4.99
  -7  24   7    1.58    4.42
  -7 -24  -7   -1.09    4.74
   7  24   7    0.41    4.83
  -7  24  -7    1.26    4.78
   7  25   0   -0.85    4.70
  -7 -25   0    3.53    4.83
   7 -25   0    1.38    4.26
  -7  25   0   -2.15    4.18
   7 -25   1    2.43    5.60
  -7  25   1    4.70    4.99
   7  25  -1   -0.20    4.34
  -7 -25  -1   10.10    5.35
   7  25   1    8.07    5.39
  -7 -25   1    4.70    5.07
   7 -25  -1    6.33    4.99
  -7  25  -1    3.12    5.07
   7 -25   2    9.24    5.96
  -7  25   2    6.00    5.11
   7  25  -2   11.88    6.24
  -7 -25  -2   -0.12    4.58
   7  25   2    3.37    5.03
  -7 -25   2   -1.01    5.15
   7 -25  -2    9.29    5.47
  -7  25  -2    5.51    4.87
   7 -25   3   20.03    7.34
  -7  25   3    6.89    4.74
   7  25  -3    6.37    5.43
  -7 -25  -3   12.41    6.04
   7  25   3   16.38    6.69
   7 -25  -3   10.66    5.96
  -7  25  -3   17.60    6.28
   7 -25   4    4.42    5.31
  -7  25   4    2.60    4.01
  -7 -25  -4    0.65    4.10
   7  25   4    2.72    4.10
   7 -25  -4    1.46    4.26
  -7  25  -4   -0.24    4.18
   7 -25   5    3.65    4.66
  -7  25   5    0.73    4.05
   7  25   5    3.85    4.26
   7 -25  -5    1.66    3.97
  -7  25  -5    4.58    4.78
   7 -25   6    7.87    6.69
  -7  25   6   11.60    6.04
   7  25   6    9.24    6.04
  -7  25  -6    3.93    5.51
   7 -26   0    0.61    4.38
  -7  26   0    4.99    4.70
   7 -26   1    3.41    4.83
  -7  26   1    7.62    5.60
   7  26  -1   12.16    5.96
   7  26   1   13.30    6.20
   7 -26  -1    1.95    5.07
  -7  26  -1   12.69    5.92
   7 -26   2   -0.32    4.42
  -7  26   2    0.20    4.05
   7  26  -2    3.57    4.58
   7  26   2   10.99    6.08
   7 -26  -2   -5.68    4.54
  -7  26  -2    2.27    4.38
   7 -26   3   22.67    8.07
  -7  26   3   16.67    6.33
   7  26  -3    9.00    6.45
   7  26   3   20.27    7.46
   7 -26  -3   20.23    7.34
  -7  26  -3   17.35    7.06
   8   0   3   11.43    3.28
  -8   0  -3   20.15    3.77
  -8   0  -4 7594.54  912.32
  -8  -1  -3  124.03   15.77
   8   1   3  109.88   14.15
  -8   1  -3  137.86   16.71
  -8  -2  -2   13.54    5.35
   8   2   2   14.88    5.39
  -8  -2  -3   20.03    4.99
   8   2   3   30.45    5.72
  -8  -2  -4  238.82   29.72
   8   2   4  337.31   41.32
  -8  -2  -5    6.65    3.20
   8   2   5    1.14    3.37
   8  -3   2   13.02    3.20
  -8  -3  -2    9.41    5.68
   8   3   2   17.39    6.04
  -8   3  -2   12.61    2.80
  -8  -3  -3  719.31   87.42
   8   3   3  662.55   80.57
  -8   3  -3  849.06  102.30
  -8  -3  -4   32.24    6.61
   8   3   4   14.07    5.76
  -8  -3  -5  180.03   22.75
   8   3   5  171.39   21.86
  -8  -3  -6  191.42   24.17
   8   3   6  192.52   24.33
   8  -4   1    2.68    2.92
  -8   4  -1    3.57    2.51
  -8  -4  -2   45.13    8.84
   8   4   2   40.02    8.35
  -8   4  -2   53.56    7.54
  -8  -4  -3    7.79    5.64
   8   4   3   -1.22    6.16
  -8   4  -3    5.47    3.37
  -8  -4  -5    2.55    3.65
   8   4   5    0.93    3.53
  -8  -4  -7   12.65    4.38
   8   4   7   10.79    4.18
   8  -5   0    5.92    3.77
  -8   5   0    4.50    3.28
   8  -5   1  107.86   14.07
  -8   5  -1  147.39   18.73
   8  -5   2   19.54    5.11
  -8  -5  -2   30.13    7.74
   8   5   2   41.32    8.64
  -8   5  -2   37.91    6.24
   8  -5   3 1300.36  156.84
  -8  -5  -3  945.57  114.91
   8   5   3 1470.66  177.88
  -8  -5  -4   18.77    5.35
   8   5   4    8.27    5.15
  -8  -5  -5  867.72  105.46
   8   5   5 1070.86  129.75
  -8  -5  -6  398.70   49.22
   8   5   6  274.75   34.34
  -8  -5  -7 3000.92  361.40
   8   5   7 2591.39  312.22
   8  -6   0  249.53   31.02
  -8   6   0  260.64   32.32
   8  -6   1    0.65    3.93
  -8   6   1    3.73    3.69
   8  -6  -1    4.50    3.77
  -8   6  -1    0.73    4.01
   8  -6   2   18.49    5.03
   8   6   2    1.70    6.04
  -8   6  -2    1.14    3.89
   8  -6   3   14.31    4.74
  -8  -6  -3   13.71    5.80
   8   6   3   11.68    6.16
  -8   6  -3   19.22    5.15
  -8  -6  -4   28.06    6.37
   8   6   4   35.32    7.06
  -8  -6  -5    2.72    4.54
   8   6   5    6.81    4.22
  -8  -6  -8  151.32   19.99
   8   6   8  138.83   18.41
  -8  -6  -9   19.79    5.88
   8   6   9    5.07    4.34
  -8   7   1  112.19   15.00
  -8  -7  -1  126.35   18.04
   8   7   1  144.59   20.19
  -8   7  -1   94.88   13.30
   8  -7   2   10.18    4.46
  -8   7   2   -0.69    4.14
  -8  -7  -2    7.99    6.08
   8   7   2    7.18    7.06
   8  -7  -2   13.54    4.62
  -8   7  -2    2.19    3.73
   8  -7   3   11.11    4.70
  -8  -7  -3    1.09    5.07
   8   7   3    4.46    5.23
  -8   7  -3   12.77    5.31
  -8  -7  -4    4.50    4.58
   8   7   4    4.54    4.46
  -8  -7  -5  139.20   18.77
   8   7   5  219.28   28.10
  -8  -7  -6   -2.03    4.14
   8   7   6    1.50    3.57
  -8  -7  -8   11.43    4.50
   8   7   8    9.89    4.30
  -8  -7  -9   41.64    7.83
   8   7   9   22.18    6.00
  -8  -7 -10   -2.39    4.54
   8  -8   0  917.99  111.42
  -8   8   0  877.85  106.52
   8  -8   1   11.52    4.58
  -8   8   1   12.93    4.83
  -8  -8  -1   24.45    7.42
   8   8   1   13.02    6.41
   8  -8  -1   33.29    6.41
  -8   8  -1   19.02    5.35
   8  -8   2   30.57    6.33
  -8  -8  -2   16.95    6.97
   8   8   2   39.49    8.27
  -8   8  -2   39.45    7.14
   8  -8   3  222.20   28.46
  -8   8   3  168.23   22.10
  -8  -8  -3  191.10   25.42
   8   8   3  191.06   25.22
   8  -8  -3  195.15   25.22
  -8   8  -3  143.42   19.26
   8  -8   4  168.76   22.22
   8   8   4  164.66   21.90
  -8   8  -4  122.66   16.79
  -8  -8  -5  282.29   35.88
   8   8   5  280.06   35.48
  -8  -8  -6  216.93   28.22
   8   8   6  136.12   18.49
  -8  -8  -8  106.11   15.12
   8   8   8   81.74   12.08
  -8  -8  -9    2.11    4.34
   8   8   9    5.03    4.62
  -8  -8 -10    3.41    4.83
   8   8  10    3.77    4.70
  -8  -8 -11   22.67    6.16
   8  -9   0    5.23    4.38
  -8   9   0   12.25    4.54
   8  -9   1   46.10    8.19
  -8   9   1   78.05   11.23
  -8  -9  -1   67.88   12.08
   8   9   1   78.50   12.98
   8  -9  -1   57.78    9.24
   8  -9   2   -2.39    4.05
  -8   9   2   10.58    4.42
  -8  -9  -2   -6.16    5.39
   8   9   2    0.61    4.74
   8  -9  -2    4.58    3.73
  -8   9  -2    1.50    3.73
   8  -9   3   81.82   12.33
  -8   9   3   93.14   13.22
  -8  -9  -3   61.63   10.87
   8   9   3   71.69   11.60
  -8   9  -3   82.68   12.20
   8  -9   4    7.42    5.39
  -8  -9  -4    3.97    4.99
   8   9   4    5.56    4.50
   8  -9  -4    0.04    4.18
  -8   9  -4    9.53    5.19
  -8  -9  -5   23.76    6.65
   8   9   5   19.30    5.80
  -8  -9  -6    3.32    5.19
   8   9   6    6.69    4.66
  -8  -9  -7   10.66    5.23
   8   9   7    7.91    4.54
  -8  -9  -8    5.96    4.83
   8   9   8    5.43    4.58
  -8  -9  -9   19.75    6.20
   8   9   9    8.76    5.07
  -8  -9 -10    0.53    4.22
   8   9  10   -4.54    4.58
  -8  -9 -11   35.44    7.66
   8   9  11   32.60    7.34
  -8  -9 -12    0.65    4.05
   8 -10   0   23.40    5.88
  -8  10   0    9.77    4.46
   8 -10   1   30.82    6.61
  -8  10   1   36.86    7.01
  -8 -10  -1   49.59   10.10
   8  10   1   14.68    6.20
   8 -10  -1   32.52    6.77
   8 -10   2  108.63   15.33
  -8  10   2   77.49   11.39
   8  10   2  101.49   15.16
   8 -10  -2   67.43   10.42
  -8  10  -2  110.37   15.41
   8 -10   3    5.51    5.03
  -8  10   3    6.08    3.93
  -8 -10  -3   -0.65    5.07
   8  10   3   -1.14    4.87
   8 -10  -3    4.78    3.89
  -8  10  -3    6.77    4.46
   8 -10   4  696.20   85.51
  -8  10   4  621.59   76.31
  -8 -10  -4  668.22   82.51
   8  10   4  641.46   79.07
   8 -10  -4  756.62   92.49
  -8  10  -4  697.82   85.84
  -8 -10  -5   53.36    9.73
   8  10   5   55.83    9.85
   8 -10  -5   91.60   13.42
  -8 -10  -6  490.22   61.27
   8  10   6  676.33   83.37
  -8 -10  -7    7.34    5.88
   8  10   7    4.46    4.74
  -8 -10  -9    1.82    4.70
   8  10   9    9.16    5.39
  -8 -10 -10    4.01    4.30
   8  10  10   13.10    5.35
  -8 -10 -11    0.00    3.97
   8  10  11    4.50    4.34
  -8 -10 -13   -0.81    3.73
   8  11   0    8.39    6.45
   8 -11   0    9.00    4.87
  -8  11   0   13.10    5.03
  -8  11   1   18.41    5.51
   8  11   1   33.53    8.11
   8 -11  -1   28.34    6.45
  -8  11  -1   11.96    5.03
   8 -11   2    2.68    4.70
  -8  11   2    4.70    3.65
  -8 -11  -2    6.77    5.51
   8  11   2   -3.24    4.54
   8 -11  -2    1.66    3.85
  -8  11  -2    0.20    3.89
   8 -11   3   11.11    5.84
  -8  11   3   33.53    6.65
  -8 -11  -3    3.41    5.76
   8  11   3   14.03    6.49
  -8  11  -3    9.49    5.19
   8 -11   4   10.79    6.49
  -8  11   4    1.05    3.81
  -8 -11  -4    6.37    5.60
   8  11   4    0.53    4.78
   8 -11  -4    6.04    4.05
  -8  11  -4    4.78    5.72
  -8  11   5   29.88    6.69
   8 -11  -5   22.75    6.08
  -8 -11  -6    4.10    5.35
   8  11   6    3.77    4.95
   8 -11  -6    7.66    4.74
  -8 -11  -7    9.89    6.61
   8  11   7    9.29    5.64
  -8 -11  -8    4.22    4.99
   8  11   8    2.03    4.87
  -8 -11  -9   37.10    8.19
   8  11   9   21.69    6.53
  -8 -11 -10    3.04    4.42
   8  11  10    5.27    4.58
  -8 -11 -11   16.42    5.64
   8  11  11    9.37    4.83
  -8 -11 -12    0.61    3.61
   8  11  12    4.38    4.34
  -8 -11 -13   18.04    6.16
   8  11  13    3.20    3.89
  -8 -11 -14   -1.62    3.81
   8  12   0  159.84   22.67
  -8 -12   0  184.33   25.75
   8 -12   1    7.38    5.35
  -8  12   1   11.03    4.99
  -8 -12  -1   11.19    7.14
   8  12   1   10.26    6.49
   8 -12  -1    4.66    4.83
  -8  12  -1   13.75    5.35
   8 -12   2   11.60    6.04
  -8  12   2    5.23    4.10
  -8 -12  -2    3.45    6.00
   8  12   2   -3.16    5.60
   8 -12  -2    3.85    4.14
  -8  12  -2   -1.70    4.70
   8 -12   3   36.21    8.64
  -8  12   3   25.06    5.88
  -8 -12  -3   21.17    7.70
   8 -12  -3   51.41    8.72
   8 -12   4   10.14    6.08
  -8  12   4   12.65    4.83
  -8 -12  -4    0.28    5.43
   8  12   4   -5.64    5.31
   8 -12  -4    1.18    3.85
  -8  12  -4    7.87    6.33
  -8  12   5   27.37    6.53
  -8 -12  -5   21.81    7.58
   8  12   5   12.16    6.41
   8 -12  -5   26.15    6.37
  -8  12  -5   29.96    8.60
  -8  12   6   35.28    7.70
  -8 -12  -6   38.97    8.96
   8  12   6   54.78   10.50
   8 -12  -6   31.42    7.22
  -8 -12  -7   22.63    7.66
   8  12   7    9.53    6.08
   8 -12  -7    6.53    5.03
  -8 -12  -8    9.41    6.45
   8  12   8    6.69    5.51
  -8 -12  -9   27.25    7.18
   8  12   9    7.62    5.07
  -8 -12 -10    6.16    4.42
   8  12  10   -0.24    4.01
  -8 -12 -11   -4.30    3.65
   8  12  11    1.95    3.65
  -8 -12 -12   -1.62    3.53
   8  12  12   -1.74    4.14
  -8 -12 -13    2.39    4.14
   8  12  13    0.16    4.22
  -8 -12 -14    9.69    5.11
   8  12  14   13.46    5.56
  -8 -12 -15    7.30    4.50
   8  13   0  223.29   30.45
  -8 -13   0  202.01   28.02
   8 -13   0  219.65   28.91
  -8  13   0  229.21   29.96
   8 -13   1    2.96    5.11
  -8  13   1    4.74    5.15
  -8 -13  -1   12.65    7.26
   8  13   1    5.27    6.53
   8 -13  -1   15.21    5.80
  -8  13  -1    4.26    4.87
   8 -13   2    4.42    5.68
  -8  13   2    2.64    4.50
  -8 -13  -2   15.37    7.46
   8  13   2   -0.12    5.92
   8 -13  -2   14.68    5.64
  -8  13  -2   10.50    5.68
   8 -13   3  381.27   48.54
  -8  13   3  427.78   53.28
  -8 -13  -3  355.84   46.10
   8  13   3  364.76   47.08
   8 -13  -3  453.32   56.40
  -8  13  -3  365.78   46.75
   8 -13   4    6.16    5.96
  -8  13   4    6.37    4.34
  -8 -13  -4    8.15    6.33
   8  13   4    7.18    6.45
   8 -13  -4    8.60    4.66
  -8  13  -4    3.89    6.41
  -8  13   5   42.13    8.35
   8 -13  -5   29.19    6.89
  -8  13  -5   64.71   12.12
  -8  13   6  152.05   21.04
  -8 -13  -6  158.22   22.58
   8  13   6  154.89   22.14
   8 -13  -6  129.47   18.37
  -8  13   7   20.52    6.24
  -8 -13  -7   36.61    8.76
   8 -13  -7   20.56    6.61
  -8 -13  -8    7.62    5.60
   8  13   8    5.80    5.72
  -8 -13  -9   45.37    9.16
   8  13   9   37.02    8.31
  -8 -13 -11    8.15    4.54
   8  13  11    3.85    4.58
  -8 -13 -12    0.85    3.61
   8  13  12    2.55    4.30
  -8 -13 -13   16.67    5.88
   8  13  13   14.68    6.00
  -8 -13 -14   26.84    7.22
   8  13  14   14.84    5.76
  -8 -13 -15    4.66    4.30
   8  13  15    7.22    4.46
   8  14   0   11.76    7.74
  -8 -14   0   12.25    7.83
   8 -14   0    8.96    5.92
  -8  14   0    6.49    5.27
   8 -14   1   -3.65    4.70
  -8  14   1   -3.93    5.03
  -8 -14  -1    4.05    6.61
   8  14   1    1.01    6.89
   8 -14  -1   -2.92    4.66
  -8  14  -1   -0.20    4.99
   8 -14   2  211.70   28.42
  -8  14   2  288.86   37.22
  -8 -14  -2  272.24   36.37
   8  14   2  204.36   28.38
   8 -14  -2  247.30   32.15
  -8  14  -2  172.53   23.80
   8 -14   3    6.85    6.28
  -8  14   3    6.28    4.91
  -8 -14  -3    8.56    7.42
   8  14   3    4.50    7.10
   8 -14  -3    6.77    4.70
  -8  14  -3   11.31    6.57
   8 -14   4   -4.58    6.04
  -8  14   4    1.05    4.22
  -8 -14  -4   -1.91    6.00
   8  14   4   -3.12    6.08
   8 -14  -4   -0.57    4.78
  -8  14  -4    6.20    6.61
   8 -14   5   -2.68    6.12
  -8  14   5    6.00    5.03
  -8 -14  -5   11.64    6.89
   8  14   5   11.11    6.93
   8 -14  -5   -2.19    4.46
  -8  14  -5    4.83    6.16
  -8  14   6   48.49    9.37
  -8 -14  -6   16.18    6.89
   8  14   6   27.05    8.11
   8 -14  -6   33.01    7.62
  -8  14   7   -1.58    4.30
  -8 -14  -7    8.47    5.11
   8  14   7   -0.20    4.95
   8 -14  -7    2.11    4.83
  -8  14   8   15.98    5.76
  -8 -14  -8   18.29    6.85
   8  14   8    7.22    5.72
   8 -14  -8   18.61    6.20
  -8 -14  -9   -0.08    4.38
   8  14   9   -2.27    4.18
  -8 -14 -10    7.18    4.74
   8  14  10    2.92    4.46
  -8 -14 -11    1.42    4.18
   8  14  11    0.28    4.05
  -8 -14 -12   -0.08    3.97
   8  14  12   -2.76    3.73
  -8 -14 -13    4.54    4.34
   8  14  13    2.80    3.85
  -8 -14 -14    1.99    3.77
   8  14  14    4.10    4.30
  -8 -14 -15   -4.26    3.93
   8  14  15    3.24    4.42
   8  15   0   12.98    7.87
  -8 -15   0    3.24    7.30
   8 -15   0   12.08    6.16
  -8  15   0    2.39    5.19
   8 -15   1  279.45   36.25
  -8 -15  -1  366.06   47.76
   8  15   1  437.91   56.28
  -8  15  -1  342.79   43.87
   8 -15   2   10.14    6.04
  -8  15   2    4.91    4.99
  -8 -15  -2    4.50    7.18
   8  15   2    2.07    5.68
   8 -15  -2    4.01    5.39
  -8  15  -2    1.34    6.00
   8 -15   3   78.01   13.18
  -8  15   3  102.67   15.37
  -8 -15  -3   72.90   13.18
   8  15   3  113.05   18.04
   8 -15  -3   92.73   14.31
  -8  15  -3   89.12   14.35
   8 -15   4   12.16    6.04
  -8  15   4   16.54    5.80
  -8 -15  -4   16.67    7.14
   8  15   4   17.19    7.58
   8 -15  -4    8.15    4.87
  -8  15  -4   16.79    7.14
   8 -15   5    5.56    6.20
  -8  15   5    5.84    4.54
  -8 -15  -5    3.73    5.92
   8  15   5    3.53    5.92
   8 -15  -5    2.92    4.70
  -8  15  -5    4.74    5.60
  -8  15   6    2.39    4.87
  -8 -15  -6    2.27    5.27
   8  15   6   19.02    6.89
   8 -15  -6   -0.49    4.05
  -8  15   7   18.85    6.16
  -8 -15  -7    9.29    5.72
   8 -15  -7   31.67    7.22
  -8  15   8    1.54    4.14
  -8 -15  -8   -3.37    4.95
   8  15   8    2.15    4.91
   8 -15  -8    1.87    4.01
  -8  15   9    7.83    4.70
  -8 -15  -9   13.22    6.12
   8  15   9    4.58    5.07
   8 -15  -9   24.21    6.61
  -8 -15 -10    4.05    4.05
   8  15  10   -2.11    3.69
  -8 -15 -11   15.49    5.92
   8  15  11   10.91    5.03
  -8 -15 -12    3.81    4.46
   8  15  12    6.37    4.42
  -8 -15 -13    4.22    4.05
   8  15  13   -0.28    3.85
  -8 -15 -14    2.27    3.65
   8  15  14    3.12    4.01
   8  16   0  141.67   21.29
  -8 -16   0  105.42   17.39
   8 -16   1    2.11    5.07
  -8  16   1    2.51    5.23
   8  16  -1    0.41    6.41
  -8 -16  -1   -2.03    6.45
   8  16   1    4.91    6.69
   8 -16  -1   12.04    5.88
  -8  16  -1    2.11    4.95
   8 -16   2   49.79    9.85
  -8  16   2   71.44   12.08
   8  16   2   63.94   12.33
   8 -16  -2   54.21   10.22
  -8  16  -2   59.73   11.23
   8 -16   3   -0.12    5.27
  -8  16   3    0.45    4.83
  -8 -16  -3   -3.49    5.80
   8  16   3    1.26    6.81
   8 -16  -3   -6.00    4.58
  -8  16  -3    6.57    5.35
   8 -16   4  124.64   18.45
  -8  16   4   77.65   12.69
  -8 -16  -4  113.21   17.84
   8  16   4  110.74   17.27
   8 -16  -4   99.71   14.92
  -8  16  -4   72.26   12.81
   8 -16   5   10.58    6.20
  -8  16   5    9.20    4.87
  -8 -16  -5    5.51    5.92
   8  16   5    9.12    6.33
   8 -16  -5   15.04    5.84
  -8  16  -5    8.72    5.76
  -8  16   6    5.39    4.38
  -8  16  -6   11.92    6.33
  -8  16   7    1.05    3.53
  -8 -16  -7    2.03    4.70
   8  16   7   -1.46    4.91
   8 -16  -7    4.34    4.01
  -8  16   8    6.12    4.18
  -8 -16  -8    6.37    4.91
   8  16   8    6.73    5.15
   8 -16  -8    3.08    4.22
  -8  16   9    6.53    4.38
  -8 -16  -9    6.73    5.11
   8  16   9    1.91    4.34
   8 -16  -9   12.45    5.43
  -8 -16 -10   -0.97    4.34
   8  16  10    0.65    4.26
   8 -16 -10    3.49    4.42
  -8 -16 -11    5.23    4.30
   8  16  11    1.26    4.38
  -8 -16 -12   11.96    5.64
   8  16  12   30.33    7.62
  -8 -16 -13    0.45    3.89
   8  16  13   -2.84    3.65
  -8 -16 -14    2.76    4.18
   8  16  14    3.57    4.18
   8  17   0    7.01    7.06
  -8 -17   0   12.98    7.50
   8 -17   0    1.78    4.70
  -8  17   0   -2.84    4.62
   8 -17   1    2.43    5.03
  -8  17   1   -0.08    4.50
   8  17  -1   14.43    7.50
  -8 -17  -1   -1.62    6.00
   8  17   1    6.37    6.45
  -8 -17   1   18.98    7.87
   8 -17  -1    9.69    5.07
  -8  17  -1    6.45    5.19
   8 -17   2    1.42    5.19
  -8  17   2   -0.53    4.95
  -8 -17  -2   -4.46    5.88
   8  17   2    0.32    5.64
   8 -17  -2    1.62    4.58
  -8  17  -2    0.08    5.03
   8 -17   3    4.22    5.39
  -8  17   3   15.21    5.76
  -8 -17  -3    6.73    5.60
   8  17   3    1.09    5.60
   8 -17  -3    4.34    4.50
  -8  17  -3   11.23    5.51
   8 -17   4    1.95    5.03
  -8  17   4    2.92    4.26
  -8 -17  -4    4.18    5.35
   8  17   4   -0.36    5.31
   8 -17  -4   -2.80    4.26
  -8  17  -4    3.20    5.96
   8 -17   5    7.79    5.84
  -8  17   5    0.00    3.81
  -8 -17  -5    7.18    5.39
   8  17   5    2.64    4.78
   8 -17  -5    0.00    3.89
  -8  17   6    4.87    3.93
  -8 -17  -6    2.15    4.95
   8  17   6    6.45    5.84
   8 -17  -6    1.62    3.85
  -8  17  -6   16.83    6.77
  -8  17   7   -0.04    3.89
  -8 -17  -7    1.62    4.46
   8  17   7   -1.95    4.22
   8 -17  -7   -0.49    3.65
  -8  17   8    1.50    3.85
  -8 -17  -8   -1.62    4.34
   8  17   8   -3.00    4.46
   8 -17  -8   -2.07    3.77
  -8  17   9    3.53    4.18
  -8 -17  -9   -0.45    4.34
   8  17   9    0.73    4.18
   8 -17  -9    5.96    4.42
  -8  17  10    1.82    4.46
  -8 -17 -10   -2.27    4.74
   8  17  10    0.16    4.34
   8 -17 -10    4.01    4.50
  -8 -17 -11   10.26    5.23
   8  17  11    8.80    4.95
   8 -17 -11   14.07    5.72
  -8 -17 -12    0.65    4.10
   8  17  12    0.93    4.26
  -8 -17 -13    0.89    3.89
   8  17  13   -1.26    3.85
   8  18   0   12.04    7.26
  -8 -18   0   31.30    9.08
   8 -18   0   24.90    6.85
  -8  18   0   15.12    5.60
   8 -18   1    1.70    4.54
  -8  18   1    2.96    4.26
   8  18  -1    9.12    6.57
  -8 -18  -1    4.30    5.80
   8  18   1    6.61    6.61
  -8 -18   1   18.37    7.99
   8 -18  -1    2.68    4.66
  -8  18  -1    4.26    4.54
   8 -18   2    3.77    5.39
  -8 -18  -2    9.12    6.20
   8  18   2   -0.45    4.91
   8 -18  -2   14.88    5.72
  -8  18  -2    0.41    4.78
   8 -18   3    5.96    5.15
  -8  18   3   11.72    5.11
  -8 -18  -3    5.43    5.51
   8  18   3   -1.87    5.64
   8 -18  -3   14.43    5.72
  -8  18  -3    3.04    4.54
   8 -18   4   32.11    8.03
  -8  18   4   58.63   10.50
  -8 -18  -4   31.95    8.60
   8  18   4   37.71    9.33
   8 -18  -4   49.35    9.53
  -8  18  -4   24.77    7.10
   8 -18   5    7.91    5.96
  -8  18   5   29.84    6.93
  -8 -18  -5   42.90    9.89
   8 -18  -5   29.56    7.18
  -8  18  -5   24.00    7.22
   8 -18   6    5.31    4.66
  -8  18   6   12.49    5.23
  -8 -18  -6   20.72    7.26
   8  18   6   16.02    6.61
   8 -18  -6   26.88    7.06
  -8  18  -6    7.83    5.03
  -8  18   7    4.70    4.26
  -8 -18  -7    1.87    4.95
   8  18   7    4.05    4.74
   8 -18  -7    0.53    3.81
  -8  18   8    3.28    4.54
  -8 -18  -8    3.57    4.42
   8  18   8   12.08    5.64
   8 -18  -8    2.15    3.93
  -8  18   9    1.66    4.34
  -8 -18  -9    5.31    5.15
   8  18   9    3.37    4.83
   8 -18  -9    8.60    4.50
  -8  18  10   -1.09    3.61
  -8 -18 -10    2.07    4.54
   8  18  10   12.20    5.72
   8 -18 -10    5.64    4.83
  -8  18  11    3.20    4.01
  -8 -18 -11    4.01    4.54
   8  18  11   -0.57    4.22
   8 -18 -11    4.42    4.62
  -8 -18 -12   37.63    8.68
   8  18  12   18.85    6.28
  -8 -18 -13    1.54    5.35
   8  18  13   -0.45    4.05
   8  19   0   10.54    6.65
  -8 -19   0    4.18    5.80
   8 -19   0   10.34    5.23
  -8  19   0   -2.39    3.85
   8 -19   1    5.07    4.83
  -8  19   1    6.28    4.78
  -8 -19  -1    9.65    6.28
   8  19   1   27.49    8.31
   8 -19  -1   16.06    6.00
  -8  19  -1    5.60    4.54
   8 -19   2    1.05    4.70
  -8  19   2   -1.26    4.30
  -8 -19  -2    0.28    5.43
   8  19   2   -0.36    4.99
   8 -19  -2    2.88    4.74
  -8  19  -2    9.73    5.43
   8 -19   3    5.60    5.23
  -8  19   3   17.07    6.00
  -8 -19  -3    7.22    5.51
   8  19   3    8.60    6.28
   8 -19  -3   10.66    5.07
  -8  19  -3    8.19    4.99
   8 -19   4   -1.46    4.26
  -8  19   4    0.12    3.85
  -8 -19  -4    2.07    4.66
   8  19   4   -1.58    4.18
   8 -19  -4    3.32    4.22
  -8  19  -4   -1.70    3.89
   8 -19   5    2.43    4.87
  -8  19   5    2.80    4.22
  -8 -19  -5    0.73    4.54
   8  19   5    0.28    4.54
   8 -19  -5    0.12    3.69
  -8  19  -5    1.62    4.54
   8 -19   6    1.54    4.83
  -8  19   6   -1.62    3.37
  -8 -19  -6   -0.77    4.50
   8  19   6    3.12    5.07
   8 -19  -6   -4.05    3.53
  -8  19  -6   -1.95    4.18
  -8  19   7   12.53    5.31
  -8 -19  -7   11.35    6.12
   8  19   7    8.15    5.35
   8 -19  -7    3.97    4.26
  -8  19   8    4.22    4.14
  -8 -19  -8   -0.97    4.18
   8  19   8    0.53    4.66
   8 -19  -8   -1.46    3.77
  -8  19   9    0.53    4.34
  -8 -19  -9    3.32    4.46
   8  19   9    5.76    4.58
   8 -19  -9    6.41    4.74
  -8  19  10   -2.27    3.69
  -8 -19 -10    3.45    4.50
   8  19  10   -1.26    4.34
   8 -19 -10   -0.93    4.10
  -8  19  11    1.22    4.10
  -8 -19 -11    3.28    4.50
   8  19  11    5.64    4.42
   8 -19 -11    4.14    4.34
  -8  19  12   -3.12    3.85
  -8 -19 -12    0.81    3.89
   8  19  12    0.73    3.93
   8  20   0   19.14    7.46
  -8 -20   0   22.34    7.38
   8 -20   0   26.40    7.18
  -8  20   0   24.98    7.10
   8 -20   1    1.58    4.30
  -8  20   1    3.77    4.38
   8  20  -1    4.22    5.47
  -8 -20  -1   -2.31    4.54
   8  20   1   -0.24    4.34
  -8 -20   1    3.65    5.07
   8 -20  -1   -1.26    4.46
  -8  20  -1    5.60    4.58
   8 -20   2  166.45   23.52
  -8  20   2  142.44   20.80
   8  20  -2  131.01   19.83
  -8 -20  -2  190.45   26.84
   8  20   2  108.95   17.52
   8 -20  -2  101.29   15.98
   8 -20   3    2.07    4.18
  -8  20   3    4.10    4.54
  -8 -20  -3    2.76    4.74
   8  20   3    9.00    5.51
   8 -20  -3   -0.93    4.05
  -8  20  -3    7.06    4.87
   8 -20   4    3.93    4.58
  -8  20   4   -0.85    3.93
  -8 -20  -4   -0.93    4.26
   8  20   4    2.11    4.62
   8 -20  -4    2.35    4.42
  -8  20  -4    2.19    4.22
   8 -20   5    1.50    4.18
  -8  20   5    5.43    4.58
  -8 -20  -5    2.39    4.87
   8  20   5    0.20    4.18
   8 -20  -5   -2.88    3.69
  -8  20  -5    3.04    4.62
   8 -20   6    2.51    4.38
  -8  20   6   -0.32    4.34
  -8 -20  -6   -1.05    4.26
   8  20   6    5.51    5.11
   8 -20  -6    1.91    3.93
  -8  20  -6    6.77    4.91
  -8  20   7    5.64    4.46
  -8 -20  -7   -0.53    4.38
   8  20   7    8.39    5.11
   8 -20  -7    4.87    4.34
  -8  20   8   26.52    7.30
  -8 -20  -8   35.52    8.68
   8  20   8   45.29    9.81
   8 -20  -8   34.02    8.43
  -8  20   9    3.28    4.38
  -8 -20  -9   -0.65    4.01
   8  20   9   -0.20    4.38
   8 -20  -9    1.91    4.14
  -8 -20 -10   22.18    6.97
   8  20  10   49.55   10.50
   8 -20 -10   54.37   10.91
  -8  20  11    2.03    3.61
  -8 -20 -11    2.19    4.78
   8  20  11    1.62    4.18
   8  21   0    9.93    6.53
  -8 -21   0   15.21    6.53
   8 -21   0   21.00    6.65
  -8  21   0   21.04    6.57
   8 -21   1   15.49    6.12
   8  21  -1   23.07    7.83
  -8 -21  -1   29.52    8.35
   8  21   1   13.46    5.88
  -8 -21   1   27.13    7.99
   8 -21  -1   24.73    7.22
  -8  21  -1   14.84    5.64
   8 -21   2   -0.57    4.66
  -8  21   2    7.46    4.70
   8  21  -2    3.61    5.39
  -8 -21  -2    3.28    5.56
   8  21   2    2.39    4.46
   8 -21  -2    5.47    4.66
  -8  21  -2    0.08    4.26
   8 -21   3   -2.43    3.93
  -8  21   3    2.96    3.97
  -8 -21  -3    4.66    4.78
   8  21   3    2.11    4.70
   8 -21  -3    5.76    4.66
  -8  21  -3    9.16    5.11
   8 -21   4    4.74    4.34
  -8  21   4    0.04    3.77
  -8 -21  -4    2.03    4.50
   8  21   4    1.66    4.58
   8 -21  -4   11.19    5.47
  -8  21  -4    0.41    3.73
   8 -21   5   -1.34    3.81
  -8  21   5   -1.78    3.93
  -8 -21  -5   -1.14    3.97
   8  21   5    1.18    4.50
   8 -21  -5    2.88    4.38
  -8  21  -5   -0.41    4.18
   8 -21   6    7.95    5.39
  -8  21   6    7.30    4.95
  -8 -21  -6   14.92    6.04
   8  21   6   21.29    6.97
   8 -21  -6   11.84    5.43
  -8  21  -6   13.02    5.35
  -8 -21  -7   29.72    8.47
   8  21   7   63.50   12.12
   8 -21  -7   51.09   10.34
  -8  21  -7   46.47   10.10
  -8  21   8    3.77    4.18
  -8 -21  -8    3.65    4.42
   8  21   8    0.12    4.14
   8 -21  -8   10.26    5.47
  -8  21   9    1.62    4.66
  -8 -21  -9    9.81    5.19
   8  21   9    0.69    4.18
   8 -21  -9    7.42    4.87
  -8  21  10    0.89    4.10
  -8 -21 -10    6.77    4.95
   8  21  10    3.00    4.46
   8  22   0    5.11    5.31
  -8 -22   0    8.84    5.64
   8 -22   0    4.66    4.83
  -8  22   0    3.37    4.83
   8 -22   1    0.36    3.81
  -8  22   1    4.83    4.34
   8  22  -1   -3.32    4.54
  -8 -22  -1    1.18    4.46
   8  22   1    2.07    4.26
  -8 -22   1   -2.64    4.34
   8 -22  -1    1.34    4.70
  -8  22  -1   -3.24    3.81
   8 -22   2   -1.70    4.10
  -8  22   2   -1.42    4.18
   8  22  -2   -3.45    4.34
  -8 -22  -2    3.93    5.07
   8  22   2    0.97    4.26
  -8 -22   2   -1.38    4.30
   8 -22  -2    4.91    5.15
  -8  22  -2   -1.26    3.77
   8 -22   3    1.87    4.30
  -8  22   3    3.61    4.38
  -8 -22  -3    3.28    4.30
   8  22   3    2.92    4.66
   8 -22  -3    4.54    4.42
  -8  22  -3    1.82    3.93
   8 -22   4   -1.87    3.97
  -8  22   4    4.54    4.30
  -8 -22  -4   -1.22    3.81
   8  22   4    0.12    3.61
   8 -22  -4    0.45    4.22
  -8  22  -4    4.66    4.30
   8 -22   5    1.22    4.30
  -8  22   5    1.62    4.42
  -8 -22  -5    3.20    4.62
   8  22   5    0.93    4.38
   8 -22  -5    1.70    4.46
  -8  22  -5   -3.04    3.97
   8 -22   6    2.96    5.15
  -8  22   6   11.60    5.39
  -8 -22  -6    0.20    4.18
   8  22   6    3.20    4.66
   8 -22  -6    3.53    4.14
  -8  22  -6    2.84    4.58
  -8  22   7    0.81    4.05
  -8 -22  -7    2.11    4.66
   8  22   7   -2.92    4.10
   8 -22  -7   -2.27    3.57
  -8  22  -7    1.58    4.46
  -8  22   8    1.99    4.34
  -8 -22  -8   -3.32    3.89
   8  22   8    1.38    3.81
   8 -22  -8   -2.64    3.93
  -8  22   9   -0.81    3.49
  -8 -22  -9    1.14    4.22
   8  22   9    0.61    3.65
   8  23   0    2.47    4.99
  -8 -23   0   10.66    5.56
   8 -23   0    7.01    4.78
  -8  23   0    3.24    4.58
   8 -23   1    0.12    4.38
  -8  23   1    5.39    4.34
   8  23  -1    1.91    5.15
  -8 -23  -1   -1.70    4.50
   8  23   1   -2.43    3.69
  -8 -23   1    3.85    4.70
   8 -23  -1   -2.64    4.30
  -8  23  -1   -3.61    3.81
   8 -23   2   -1.74    4.54
  -8  23   2   -1.01    3.97
   8  23  -2    0.57    4.66
  -8 -23  -2   -1.14    4.50
   8  23   2   -2.15    4.05
  -8 -23   2    5.76    5.43
   8 -23  -2    4.66    4.14
  -8  23  -2   -3.12    4.10
   8 -23   3   20.52    6.93
  -8  23   3   12.29    5.23
  -8 -23  -3    2.43    5.35
   8  23   3    3.77    5.15
   8 -23  -3    2.35    4.26
  -8  23  -3    0.81    4.54
   8 -23   4   -1.70    4.54
  -8  23   4    1.42    3.93
  -8 -23  -4    0.89    4.54
   8  23   4    3.89    4.66
   8 -23  -4    0.41    4.22
  -8  23  -4   -0.41    4.22
   8 -23   5    0.89    4.50
  -8  23   5    5.68    4.22
  -8 -23  -5    1.50    3.89
   8  23   5    4.42    4.74
   8 -23  -5    4.42    4.83
  -8  23  -5   -0.89    4.30
   8 -23   6    6.24    5.60
  -8  23   6    2.64    4.58
  -8 -23  -6    6.33    4.99
   8  23   6    3.53    5.19
   8 -23  -6   10.26    5.23
  -8  23  -6    5.39    4.95
  -8  23   7    5.35    4.38
  -8 -23  -7    0.12    4.70
   8  23   7    5.31    4.70
   8 -23  -7    0.85    3.77
  -8  23  -7    5.03    5.31
  -8  23   8    0.49    3.77
  -8 -23  -8    0.69    4.01
   8  23   8    3.89    4.42
   8  24   0   15.94    6.89
  -8 -24   0   17.56    6.85
   8 -24   0    9.81    5.43
  -8  24   0   12.20    5.96
   8 -24   1    4.01    4.91
  -8  24   1   -3.20    3.73
   8  24  -1    1.22    4.58
  -8 -24  -1    1.05    4.83
   8  24   1   -0.77    4.62
  -8 -24   1   -0.45    5.39
   8 -24  -1    6.12    4.87
  -8  24  -1   -0.45    3.81
   8 -24   2    5.76    5.47
  -8  24   2   -2.47    3.81
   8  24  -2    3.04    4.70
  -8 -24  -2    7.14    5.31
   8  24   2    6.16    4.95
  -8 -24   2    6.45    5.47
   8 -24  -2    4.10    4.54
  -8  24  -2    4.10    4.83
   8 -24   3    0.28    4.30
  -8  24   3    1.30    4.38
   8  24  -3   -2.84    4.42
  -8 -24  -3    1.26    4.50
   8  24   3    1.91    4.95
   8 -24  -3    5.11    4.22
  -8  24  -3    1.66    4.54
   8 -24   4    8.27    5.92
  -8  24   4    2.11    3.81
  -8 -24  -4   -0.73    4.10
   8  24   4    4.05    4.83
   8 -24  -4    5.11    4.54
  -8  24  -4    0.28    4.18
   8 -24   5   -3.53    3.97
  -8  24   5   -0.41    3.65
  -8 -24  -5    1.74    4.62
   8  24   5   -0.20    4.14
   8 -24  -5    1.95    4.05
  -8  24  -5    2.55    4.38
   8 -24   6    2.76    4.91
  -8  24   6    1.91    4.01
  -8 -24  -6    0.04    4.42
   8  24   6    0.41    4.10
   8 -24  -6   -0.69    4.26
  -8  24  -6   -2.15    4.01
   8 -24   7    0.89    4.99
  -8  24   7    0.41    4.14
  -8 -24  -7    3.57    4.95
   8  24   7   -1.42    5.11
  -8  24  -7   -3.16    4.54
   8  25   0    4.87    5.03
  -8 -25   0   -0.41    5.11
   8 -25   0    5.15    6.00
  -8  25   0    2.68    4.14
   8 -25   1   47.04   10.34
  -8  25   1   58.06   11.60
   8  25  -1   57.09   12.00
  -8 -25  -1   41.68   10.26
   8  25   1   38.89    9.57
  -8 -25   1   41.60   10.26
   8 -25  -1   53.85   11.11
  -8  25  -1   54.17   10.79
   8 -25   2    4.05    4.83
  -8  25   2    2.51    4.66
   8  25  -2    2.35    4.83
  -8 -25  -2    3.97    5.68
   8  25   2    8.80    5.19
  -8 -25   2    2.19    5.07
   8 -25  -2    2.64    4.95
  -8  25  -2    4.91    4.54
   8 -25   3   -0.93    4.50
  -8  25   3    0.41    3.89
   8  25  -3    6.85    5.51
  -8 -25  -3   -0.89    4.30
   8  25   3   11.72    6.16
   8 -25  -3    2.07    4.01
  -8  25  -3    4.38    4.87
   8 -25   4    0.77    4.62
  -8  25   4    6.65    4.91
  -8 -25  -4   -0.45    4.14
   8  25   4   -2.03    4.62
   8 -25  -4   -0.36    3.73
  -8  25  -4    4.83    4.58
   8 -25   5    3.00    4.83
  -8  25   5    5.47    4.91
   8  25   5    3.04    4.10
   8 -25  -5    1.46    4.70
  -8  25  -5    4.22    4.87
   8  26   0    6.37    5.72
   8 -26   0   12.49    6.08
  -8  26   0    4.46    4.95
   8 -26   1   -2.23    4.42
  -8  26   1   -1.91    3.73
   8  26  -1   -2.47    4.66
   8  26   1   -2.39    4.34
   8 -26  -1    2.11    4.26
  -8  26  -1    0.85    3.77
   8 -26   2   61.19   12.93
  -8  26   2   14.68    6.69
   8  26  -2   28.18    9.04
   8  26   2   18.53    7.30
   8 -26  -2   26.48    8.39
  -8  26  -2   13.46    6.57
   9   0   3   15.61    3.65
  -9   0  -3   20.88    3.89
   9  -1   3    7.83    2.03
  -9   1  -3    4.78    1.82
  -9  -1  -4   39.90    6.41
   9   1   4   36.65    5.64
  -9  -2  -3    8.72    4.58
   9   2   3   16.99    5.15
  -9  -2  -4  605.78   73.51
   9   2   4  678.36   82.19
   9  -3   2   12.69    2.80
   9   3   2    2.72    5.43
  -9   3  -2   12.49    2.60
   9  -3   3 1076.53  129.59
  -9  -3  -3 1413.48  170.70
  -9   3  -3 1520.53  182.91
  -9  -3  -4    7.74    3.77
   9   3   4    1.50    3.81
  -9  -3  -5  377.58   46.35
   9   3   5  485.76   59.24
  -9  -3  -6    1.01    2.88
   9   3   6    3.32    3.16
  -9  -3  -7 1557.83  188.02
   9  -4   1    7.46    3.37
  -9   4  -1    8.84    3.08
   9  -4   2    4.95    3.12
  -9  -4  -2   12.85    5.88
   9   4   2   13.58    6.28
  -9   4  -2    2.68    2.51
   9  -4   3    4.30    3.08
  -9  -4  -3    0.73    5.03
   9   4   3    5.19    5.96
  -9   4  -3    1.78    3.08
  -9  -4  -4   40.87    7.10
   9   4   4   41.97    7.54
  -9  -4  -5    6.53    4.22
   9   4   5    4.42    3.69
  -9  -4  -6    0.73    3.32
   9   4   6    8.60    3.73
  -9  -4  -7    2.43    3.20
   9   4   7    5.11    3.45
  -9  -4  -8   20.88    5.19
   9  -5   0    1.74    3.37
   9  -5   2   19.30    4.26
  -9  -5  -2   20.40    6.57
   9   5   2   13.34    6.85
  -9   5  -2   30.05    5.39
   9  -5   3   50.36    7.66
  -9  -5  -3   69.38   11.03
   9   5   3   99.14   14.72
  -9  -5  -4  128.86   17.23
   9   5   4   82.11   11.92
  -9  -5  -5  219.36   27.82
   9   5   5  157.89   20.56
  -9  -5  -6   -0.65    3.41
   9   5   6    2.15    3.32
  -9  -5  -7   42.62    7.30
   9   5   7   24.94    5.27
  -9  -5  -8    7.50    3.97
   9   5   8    0.97    3.28
  -9  -5  -9   40.26    7.83
   9  -6   0    9.69    3.77
  -9   6   0    2.64    3.32
   9  -6   1    6.97    3.41
   9  -6  -1    4.58    3.57
  -9   6  -1    1.30    3.28
   9  -6   2   43.30    6.93
  -9  -6  -2   28.87    7.30
   9   6   2   21.49    7.18
   9  -6   3    4.30    3.97
  -9  -6  -3    6.33    5.11
   9   6   3    9.12    5.64
  -9   6  -3   21.61    5.31
  -9  -6  -4   10.26    4.70
   9   6   4   30.69    6.41
  -9   6  -4   13.26    4.34
  -9  -6  -5   14.92    4.95
   9   6   5    9.97    4.26
  -9  -6  -6    5.96    4.26
   9   6   6    7.34    3.73
  -9  -6  -7   -0.69    3.65
   9   6   7    7.38    3.69
  -9  -6  -9    2.84    4.46
   9   6   9    0.41    3.93
  -9  -6 -10    8.07    5.27
   9  -7   0    5.27    3.61
  -9   7   0    1.05    3.65
   9  -7   1  177.72   22.67
  -9   7   1  107.21   14.52
   9  -7  -1  150.84   19.54
  -9   7  -1  149.17   19.30
   9  -7   2   10.22    4.10
  -9  -7  -2   10.22    6.00
   9   7   2   11.31    5.80
  -9   7  -2    5.31    3.89
   9  -7   3  186.64   23.92
  -9  -7  -3  198.97   26.19
   9   7   3  189.68   25.14
  -9   7  -3  317.93   39.45
   9  -7   4    8.11    4.66
  -9  -7  -4   23.56    6.04
   9   7   4   11.35    4.70
  -9   7  -4    2.64    4.10
  -9  -7  -6    1.38    4.22
   9   7   6    0.57    3.93
  -9  -7  -7   40.14    7.34
   9   7   7   57.01    8.92
  -9  -7  -8    3.77    4.18
   9   7   8    1.42    3.73
  -9  -7  -9    2.11    4.46
   9   7   9    8.27    4.62
  -9  -7 -10    3.89    4.78
   9   7  10   12.85    5.15
  -9  -7 -11   41.20    8.39
   9  -8   0    4.34    3.81
  -9   8   0    9.65    3.77
   9  -8   1    1.66    3.65
  -9   8   1    6.49    3.65
   9   8   1   -2.47    5.43
   9  -8  -1    1.58    3.37
  -9   8  -1    4.66    3.57
   9  -8   2   32.92    6.41
  -9   8   2   15.00    4.54
  -9  -8  -2   22.99    7.06
   9   8   2   39.25    8.47
   9  -8   3    7.79    4.74
  -9  -8  -3    4.46    5.39
   9   8   3    4.05    5.51
  -9   8  -3    9.65    4.42
   9  -8   4 2009.13  242.43
  -9  -8  -4 2222.41  268.55
   9   8   4 2020.88  244.18
  -9   8  -4 1735.84  209.63
  -9  -8  -5   12.69    5.27
   9   8   5   18.61    5.72
  -9  -8  -6  269.24   34.59
   9   8   6  242.72   31.14
  -9  -8  -7    0.00    4.14
   9   8   7    3.41    3.81
  -9  -8  -8  162.15   21.69
   9   8   8  112.03   15.69
  -9  -8  -9    0.04    4.26
   9   8   9    4.01    4.42
  -9  -8 -10  114.75   16.54
   9   8  10   95.04   14.23
  -9  -8 -11   17.52    5.80
   9   8  11    8.15    4.66
   9  -9   0   -6.45    3.93
  -9   9   0    0.08    3.73
   9  -9   1   24.77    5.68
  -9  -9  -1   20.31    7.22
   9   9   1   34.18    7.99
  -9   9  -1   15.85    4.66
   9  -9   2    7.70    4.22
  -9   9   2    6.45    3.89
  -9  -9  -2    4.95    5.84
   9   9   2    2.07    5.23
   9  -9  -2   15.49    4.66
  -9   9  -2    8.88    4.10
  -9   9   3    8.64    4.18
   9  -9  -3    5.31    4.14
  -9   9  -3   18.69    5.43
   9  -9   4    3.77    6.08
  -9  -9  -4    8.07    5.19
   9   9   4    7.50    4.99
  -9   9  -4   12.49    5.31
  -9  -9  -5    0.12    4.78
   9   9   5   16.75    5.68
  -9  -9  -6   -0.97    4.99
   9   9   6    0.85    4.18
  -9  -9  -7    7.30    5.31
   9   9   7    6.20    4.70
  -9  -9  -8    4.26    4.78
   9   9   8    0.16    4.46
  -9  -9  -9    3.81    4.58
   9   9   9    3.32    4.46
  -9  -9 -10   11.92    4.91
   9   9  10    2.72    4.30
  -9  -9 -11    2.23    3.77
   9   9  11   -2.76    3.49
  -9  -9 -12    1.99    4.01
   9   9  12    5.47    4.22
   9 -10   0    1.34    4.14
  -9  10   0    1.30    3.85
   9 -10   1    2.47    3.97
  -9  10   1   12.57    4.30
  -9 -10  -1    2.11    5.88
   9  10   1    0.49    5.51
   9 -10  -1   -0.69    3.73
   9 -10   2   24.33    5.80
  -9 -10  -2   12.12    6.45
   9  10   2   15.04    6.04
   9 -10  -2   26.23    5.84
  -9  10  -2   16.14    4.87
   9 -10   3    3.04    4.95
  -9  10   3    0.41    3.53
  -9 -10  -3    2.43    5.51
   9  10   3   11.15    6.45
   9 -10  -3   23.60    5.60
  -9  10  -3    5.27    4.87
   9 -10   4  114.51   16.34
  -9 -10  -4  193.70   26.03
   9  10   4   97.80   14.68
   9 -10  -4   95.29   13.62
  -9  10  -4   95.77   14.31
  -9 -10  -5   10.46    5.64
   9  10   5    6.97    5.35
  -9 -10  -6   16.10    6.28
   9  10   6   22.34    6.69
  -9 -10  -7   17.96    6.85
   9  10   7    2.03    4.87
  -9 -10  -8   81.38   13.10
   9  10   8  116.41   16.83
  -9 -10  -9    5.96    4.78
   9  10   9   -0.81    4.26
  -9 -10 -10    5.80    4.78
   9  10  10   21.04    6.00
  -9 -10 -12    2.23    3.97
   9  10  12    4.83    3.89
  -9 -10 -13   -0.69    3.93
   9 -11   0    2.68    4.42
  -9  11   0    2.80    4.14
   9 -11   1   26.32    6.37
  -9  11   1   41.80    7.66
   9 -11  -1   52.51    8.80
  -9  11  -1   57.05    9.37
   9 -11   2   13.75    5.31
  -9  11   2    7.58    3.81
  -9 -11  -2   18.37    7.14
   9  11   2   18.94    7.14
   9 -11  -2    4.87    3.97
  -9  11  -2   10.34    4.74
  -9  11   3    5.47    4.01
   9 -11  -3    0.73    3.57
   9 -11   4    2.55    5.47
  -9  11   4    2.76    3.81
  -9 -11  -4    1.30    5.39
   9  11   4    1.42    4.95
   9 -11  -4    2.55    3.93
  -9  11  -4   -1.54    5.43
  -9  11   5   25.42    6.08
  -9 -11  -5   22.58    7.26
   9  11   5   13.87    6.12
   9 -11  -5   38.03    7.58
  -9  11  -5   22.42    7.18
  -9 -11  -6   -2.84    5.39
   9  11   6   -0.04    5.35
  -9 -11  -7    6.33    6.00
   9  11   7    6.24    5.51
  -9 -11  -8   -3.32    5.11
   9  11   8    3.00    4.83
  -9 -11  -9   10.87    5.35
   9  11   9    8.76    5.07
  -9 -11 -10    2.43    4.26
   9  11  10   -0.41    3.93
  -9 -11 -11    0.20    3.81
   9  11  11    6.57    4.34
  -9 -11 -12    1.42    3.65
   9  11  12    0.45    3.77
  -9 -11 -13    0.32    4.01
   9  11  13    2.88    4.14
  -9 -11 -14    1.14    3.73
   9  12   0    4.30    6.28
   9 -12   0    3.41    4.66
   9 -12   1    4.42    5.07
  -9  12   1    2.27    4.01
  -9 -12  -1    1.34    6.89
   9  12   1    9.37    6.65
   9 -12  -1   -1.26    4.54
  -9  12  -1   -1.87    4.42
   9 -12   2  143.09   19.83
  -9  12   2  137.01   18.53
  -9 -12  -2  178.33   25.18
   9  12   2  232.90   31.30
   9 -12  -2  125.33   17.15
  -9  12  -2  152.22   20.80
   9 -12   3   10.91    6.61
  -9  12   3    4.26    3.89
  -9 -12  -3   13.50    7.50
   9  12   3    6.61    7.10
   9 -12  -3    2.72    4.05
  -9  12  -3    4.99    6.57
   9 -12   4  810.14   99.50
  -9  12   4  609.43   75.05
  -9 -12  -4  718.10   89.16
   9  12   4  673.49   83.53
   9 -12  -4  594.43   73.19
  -9  12  -4  750.94   92.57
   9 -12   5    1.18    6.41
  -9  12   5    5.64    4.54
  -9 -12  -5   -7.26    5.88
   9  12   5    3.61    5.92
   9 -12  -5    3.49    4.58
  -9  12  -5   -1.50    5.88
  -9  12   6  116.25   16.79
  -9 -12  -6  190.09   26.23
   9  12   6  128.01   18.77
   9 -12  -6  153.96   21.25
  -9 -12  -7    4.14    5.47
   9  12   7   15.29    6.69
  -9 -12  -8   16.38    6.53
   9  12   8    4.22    4.87
  -9 -12  -9   -0.20    4.22
   9  12   9   -0.73    4.01
  -9 -12 -10   91.23   14.15
   9  12  10  104.25   15.65
  -9 -12 -11    2.55    4.01
   9  12  11   12.16    5.03
  -9 -12 -12   44.60    9.00
   9  12  12   26.07    6.73
  -9 -12 -13    2.35    3.85
   9  12  13    0.89    4.01
  -9 -12 -14    6.77    4.54
   9  12  14    5.47    4.66
  -9 -12 -15    0.36    3.61
   9  13   0    2.03    6.28
   9 -13   0   -1.95    4.83
  -9  13   0   -0.77    4.50
   9 -13   1  248.31   32.32
  -9  13   1  263.11   33.94
  -9 -13  -1  296.44   39.33
   9  13   1  219.44   30.05
   9 -13  -1  272.36   35.03
  -9  13  -1  247.66   32.28
   9 -13   2    1.18    5.15
  -9  13   2   11.07    4.99
  -9 -13  -2   12.61    7.87
   9  13   2   13.83    6.77
   9 -13  -2   18.00    5.56
  -9  13  -2   21.45    6.53
   9 -13   3  833.66  102.46
  -9  13   3 1292.25  156.96
  -9 -13  -3  909.88  112.32
   9 -13  -3 1241.97  150.92
  -9  13  -3 1114.65  136.20
   9 -13   4   -0.73    5.39
  -9  13   4    6.85    4.74
  -9 -13  -4   -1.14    6.24
   9  13   4    0.69    5.68
   9 -13  -4    8.88    4.95
  -9  13  -4   13.50    7.46
   9 -13   5  805.68   99.02
  -9  13   5  765.94   94.19
  -9 -13  -5  534.42   67.27
   9  13   5  548.20   68.89
   9 -13  -5  658.90   81.26
  -9  13  -5  805.27   99.10
  -9  13   6    3.08    4.78
  -9 -13  -6    2.23    5.72
   9  13   6    3.85    5.88
   9 -13  -6    0.00    4.95
  -9 -13  -8    0.85    4.99
   9  13   8    3.57    4.99
  -9 -13  -9   87.70   14.07
   9  13   9  134.90   19.34
  -9 -13 -10    7.66    4.70
   9  13  10    0.24    3.81
  -9 -13 -11   41.28    8.51
   9  13  11   28.10    7.10
  -9 -13 -12    2.07    4.01
   9  13  12    5.56    4.58
  -9 -13 -14    3.16    3.97
   9  13  14   -2.47    3.61
  -9 -13 -15   14.76    5.68
   9  13  15   11.27    5.39
   9  14   0    6.73    7.01
  -9 -14   0   11.39    8.19
   9 -14   0    1.05    4.78
  -9  14   0   -0.12    5.07
   9 -14   1    8.88    5.84
  -9  14   1    9.24    5.64
  -9 -14  -1    7.10    7.79
   9  14   1   17.76    8.07
   9 -14  -1    8.72    5.35
  -9  14  -1    3.81    5.39
   9 -14   2    6.97    5.51
  -9  14   2   10.14    5.35
  -9 -14  -2   15.98    8.51
   9  14   2    1.30    6.33
   9 -14  -2    3.81    4.87
  -9  14  -2    4.74    5.11
   9 -14   3   -3.89    6.61
  -9  14   3    3.24    4.10
  -9 -14  -3   -3.37    6.93
   9  14   3    2.80    7.58
   9 -14  -3    1.66    4.50
  -9  14  -3   -5.84    6.73
   9 -14   4   15.94    6.57
  -9  14   4   13.71    5.39
  -9 -14  -4    4.91    6.28
   9  14   4   10.26    6.37
   9 -14  -4    6.53    5.35
  -9  14  -4   24.25    7.18
   9 -14   5   -1.78    5.56
  -9  14   5    5.64    5.07
  -9 -14  -5    1.78    5.96
   9  14   5    6.73    5.92
   9 -14  -5    1.18    4.14
  -9  14  -5    3.69    5.51
  -9  14   6    3.24    4.66
  -9 -14  -6    5.84    5.43
   9  14   6   11.31    6.37
   9 -14  -6   -0.16    4.18
  -9  14   7    1.34    4.22
  -9 -14  -7    5.27    5.03
   9  14   7   -0.57    5.07
   9 -14  -7    4.10    4.58
  -9 -14  -8    3.97    5.39
   9  14   8    1.74    4.58
   9 -14  -8    7.38    4.74
  -9 -14  -9    2.76    4.99
   9  14   9   -1.74    4.05
  -9 -14 -10    8.68    4.70
   9  14  10   11.52    5.27
  -9 -14 -11    0.32    4.14
   9  14  11    1.54    3.93
  -9 -14 -12    7.14    4.42
   9  14  12    2.07    4.46
  -9 -14 -13    1.42    3.81
   9  14  13   -3.89    3.65
  -9 -14 -14   -0.85    3.41
   9  14  14   -1.01    3.61
   9  15   0    8.35    7.42
  -9 -15   0   12.73    7.83
   9 -15   0   -4.22    4.83
  -9  15   0    4.50    5.27
   9 -15   1    5.80    5.35
  -9  15   1    5.64    5.64
  -9 -15  -1   -2.15    6.53
   9  15   1    6.73    6.37
   9 -15  -1    0.97    4.95
  -9  15  -1   20.15    6.93
   9 -15   2    8.11    5.76
  -9  15   2   10.06    5.96
  -9 -15  -2    8.43    6.61
   9  15   2   13.26    6.61
   9 -15  -2    5.27    5.15
  -9  15  -2    6.97    5.56
   9 -15   3   69.54   12.04
  -9  15   3  147.11   20.44
  -9 -15  -3   87.30   15.25
   9 -15  -3  100.44   15.16
   9 -15   4    0.28    4.99
  -9  15   4    5.31    4.34
  -9 -15  -4   -0.28    5.47
   9  15   4    0.28    5.72
   9 -15  -4   -0.20    4.22
  -9  15  -4    3.12    4.87
   9 -15   5   12.41    6.53
  -9 -15  -5   19.26    7.01
   9 -15  -5    5.43    4.70
  -9  15   6    4.46    4.14
  -9 -15  -6    0.45    5.03
   9  15   6    3.24    5.43
   9 -15  -6    1.78    3.65
  -9  15  -6    0.73    5.15
  -9  15   7    3.49    4.42
  -9 -15  -7    2.60    4.42
   9  15   7   -1.54    4.91
   9 -15  -7    1.95    4.10
  -9  15   8   -0.36    3.97
  -9 -15  -8    1.38    4.50
   9  15   8    0.49    4.46
   9 -15  -8    0.65    4.14
  -9 -15  -9    6.53    4.99
   9  15   9   12.25    5.72
   9 -15  -9    2.39    4.10
  -9 -15 -11    9.08    5.31
   9  15  11   15.25    6.04
  -9 -15 -12    1.42    4.14
   9  15  12    2.31    4.38
  -9 -15 -13   -3.85    3.85
   9  15  13    6.45    4.10
  -9 -15 -14    0.12    3.85
   9  15  14   -2.35    3.41
   9  16   0    3.00    6.41
  -9 -16   0    4.74    6.57
   9 -16   0   10.10    5.72
  -9  16   0    3.00    4.74
   9 -16   1    0.04    4.58
  -9  16   1    6.61    5.27
  -9 -16  -1    6.93    6.28
   9  16   1   -2.76    6.00
   9 -16  -1    7.54    5.07
  -9  16  -1    1.01    4.95
   9 -16   2  133.97   19.30
  -9  16   2  167.79   23.11
  -9 -16  -2  172.98   24.77
   9  16   2  135.75   20.60
   9 -16  -2  179.10   24.25
  -9  16  -2  157.97   22.18
   9 -16   3    6.41    5.64
  -9  16   3   -1.38    4.42
  -9 -16  -3   11.68    7.18
   9  16   3    6.77    6.97
   9 -16  -3    1.09    4.54
  -9  16  -3    7.83    6.04
   9 -16   4    7.34    5.60
  -9  16   4    2.88    4.34
  -9 -16  -4    1.34    5.56
   9  16   4    7.74    6.04
   9 -16  -4   15.29    5.47
  -9  16  -4   13.75    5.80
   9 -16   5    4.14    5.60
  -9  16   5    1.62    3.69
  -9 -16  -5    6.97    5.76
   9  16   5   14.39    6.24
   9 -16  -5    6.93    4.46
  -9  16  -5    4.78    5.35
  -9  16   6    6.28    4.34
  -9 -16  -6    7.87    5.88
   9  16   6   15.77    6.85
   9 -16  -6    8.35    4.38
  -9  16  -6   15.65    6.45
  -9  16   7    2.07    3.73
  -9 -16  -7    0.77    4.62
   9  16   7    7.74    5.07
   9 -16  -7    2.55    3.81
  -9  16   8    5.72    4.54
  -9 -16  -8    2.43    4.42
   9  16   8    7.06    5.19
   9 -16  -8    5.88    4.46
  -9  16   9    3.24    4.18
  -9 -16  -9   -3.65    4.50
   9  16   9    3.28    4.54
   9 -16  -9    2.47    4.26
  -9 -16 -10   10.58    5.80
   9  16  10   22.06    6.61
   9 -16 -10   19.10    6.37
  -9 -16 -11    2.07    4.01
   9  16  11    3.08    4.22
  -9 -16 -12   -0.32    3.85
   9  16  12    1.01    4.14
  -9 -16 -13    1.46    3.97
   9  16  13   -0.20    3.85
   9  17   0   -7.91    5.92
  -9 -17   0    4.46    6.33
   9 -17   0    6.41    4.95
  -9  17   0   -1.34    4.22
   9 -17   1    5.43    4.78
  -9  17   1    3.08    4.38
   9  17  -1    9.08    7.01
  -9 -17  -1    2.47    5.92
   9 -17  -1    6.00    4.62
  -9  17  -1    0.73    4.50
   9 -17   2   -2.84    4.58
  -9  17   2    0.12    4.42
  -9 -17  -2    2.92    5.47
   9  17   2    7.62    5.84
   9 -17  -2   -0.69    4.18
  -9  17  -2    1.50    4.58
   9 -17   3   24.65    7.46
  -9  17   3    8.47    4.91
  -9 -17  -3   26.40    8.47
   9  17   3   14.88    7.38
   9 -17  -3   11.23    5.31
   9 -17   4   -2.07    4.50
  -9  17   4   -1.09    3.77
  -9 -17  -4    5.27    5.84
   9  17   4    1.78    5.60
   9 -17  -4   -1.22    3.85
  -9  17  -4    0.04    4.54
   9 -17   5   22.18    6.81
  -9  17   5   23.44    6.12
  -9 -17  -5   37.71    8.88
   9  17   5   20.56    7.10
   9 -17  -5   50.97    9.53
  -9  17  -5   17.64    6.45
   9 -17   6   -2.23    4.34
  -9  17   6    3.41    3.81
  -9 -17  -6    0.36    4.38
   9  17   6   -2.47    4.78
   9 -17  -6   -1.58    3.73
  -9  17  -6    5.03    5.03
  -9  17   7    2.60    3.81
  -9 -17  -7   22.67    7.30
   9  17   7    0.36    4.54
   9 -17  -7   -1.91    3.69
  -9  17   8   -1.30    3.85
  -9 -17  -8    0.16    4.14
   9  17   8    0.16    4.58
   9 -17  -8    3.57    4.14
  -9  17   9   -0.28    3.73
  -9 -17  -9   -1.50    4.38
   9  17   9   -2.35    4.58
   9 -17  -9    2.60    4.26
  -9  17  10    0.61    4.05
  -9 -17 -10    1.66    4.50
   9  17  10    1.54    4.18
   9 -17 -10    4.22    4.50
  -9 -17 -11    1.30    4.05
   9  17  11    0.53    3.81
   9 -17 -11    1.95    4.62
  -9 -17 -12   -1.66    3.45
   9  17  12   -0.97    3.85
  -9 -17 -13   12.53    5.72
   9  17  13    5.68    4.78
   9  18   0    5.88    7.06
  -9 -18   0    9.37    6.73
   9 -18   0    6.12    4.91
   9 -18   1   -0.16    4.30
  -9  18   1    1.58    4.38
   9  18  -1   -0.53    5.92
  -9 -18  -1    0.49    5.84
   9  18   1   -3.24    5.23
   9 -18  -1    3.53    4.50
  -9  18  -1   -2.19    3.97
   9 -18   2   23.92    7.06
  -9  18   2   42.21    8.68
  -9 -18  -2   43.59   10.30
   9  18   2   39.78    9.93
   9 -18  -2   41.52    8.76
  -9  18  -2   34.14    7.91
   9 -18   3    0.24    4.70
  -9  18   3    3.32    4.50
  -9 -18  -3   -3.37    5.60
   9  18   3    8.64    6.45
   9 -18  -3   -1.46    4.42
  -9  18  -3    8.35    5.60
  -9 -18  -4   97.19   16.22
   9  18   4   81.62   14.64
   9 -18   5    1.42    4.26
  -9  18   5   -0.12    3.73
  -9 -18  -5    1.70    4.50
   9  18   5   -0.89    4.87
   9 -18  -5    4.26    4.05
  -9  18  -5    0.36    4.42
   9 -18   6   44.85    9.12
  -9  18   6   14.96    5.35
  -9 -18  -6   23.31    7.42
   9  18   6   28.10    7.87
   9 -18  -6   15.41    5.43
  -9  18  -6   15.94    6.04
  -9  18   7    0.89    3.69
  -9 -18  -7    2.64    4.42
   9  18   7    2.84    4.74
   9 -18  -7    1.87    4.30
  -9  18   8    7.99    5.03
  -9 -18  -8    4.34    4.50
   9  18   8   -2.76    3.93
   9 -18  -8    8.76    4.87
  -9  18   9    3.77    4.14
  -9 -18  -9    2.03    4.58
   9  18   9    4.46    4.42
   9 -18  -9    1.01    3.81
  -9  18  10   59.28   11.43
  -9 -18 -10   63.90   11.84
   9  18  10   39.70    9.04
   9 -18 -10   56.36   11.07
  -9  18  11    3.20    4.42
  -9 -18 -11    7.99    5.07
   9  18  11    3.49    4.14
   9 -18 -11    3.16    4.26
  -9 -18 -12   14.84    5.96
   9  18  12   26.32    7.06
   9  19   0    4.34    5.92
  -9 -19   0    3.57    5.80
   9 -19   0    3.45    4.38
  -9  19   0   -1.09    4.38
   9 -19   1    7.06    4.54
  -9  19   1    3.81    4.26
   9  19  -1    5.76    6.41
  -9 -19  -1    0.00    4.87
   9  19   1    0.73    5.47
  -9 -19   1    0.85    5.27
   9 -19  -1    5.19    4.54
  -9  19  -1    3.20    4.01
   9 -19   2    1.54    4.58
  -9  19   2    2.84    4.38
  -9 -19  -2    1.54    5.19
   9  19   2   -2.92    4.62
   9 -19  -2    3.93    4.78
  -9  19  -2   -2.27    3.81
   9 -19   3   11.23    5.72
  -9  19   3    7.42    4.83
  -9 -19  -3   31.59    8.39
   9  19   3    6.89    6.08
   9 -19  -3   13.62    5.72
   9 -19   4    4.14    4.34
  -9  19   4   -0.28    3.93
  -9 -19  -4    2.11    4.70
   9  19   4    3.16    5.11
   9 -19  -4    2.96    4.05
  -9  19  -4   -0.24    4.05
   9 -19   5    1.26    4.34
  -9  19   5    7.42    4.50
  -9 -19  -5   -1.42    4.62
   9  19   5    2.15    4.74
   9 -19  -5   10.26    5.03
  -9  19  -5    2.27    4.70
   9 -19   6   -1.05    4.38
  -9  19   6   -1.58    3.65
  -9 -19  -6   -1.46    4.22
   9  19   6   -3.45    4.30
   9 -19  -6    4.26    4.30
  -9  19  -6   -1.82    4.38
  -9  19   7    4.50    4.22
  -9 -19  -7    6.12    5.39
   9  19   7    9.16    5.43
   9 -19  -7    3.04    4.42
  -9  19  -7    2.64    3.93
  -9  19   8   -2.27    3.81
  -9 -19  -8   -3.04    4.10
   9  19   8    1.54    4.38
   9 -19  -8    0.49    3.61
  -9  19   9    8.56    4.78
  -9 -19  -9    6.61    5.03
   9  19   9   -0.45    3.69
   9 -19  -9    1.50    3.81
  -9  19  10    0.77    4.30
  -9 -19 -10    3.04    4.99
   9  19  10   -0.16    4.18
   9 -19 -10    3.32    4.26
  -9  19  11   -0.24    4.10
  -9 -19 -11    1.22    4.42
   9  19  11   -3.28    3.53
   9 -19 -11   -2.15    4.05
  -9 -19 -12   -1.09    3.73
   9  19  12   -2.68    4.70
   9  20   0    6.16    5.07
  -9 -20   0    4.14    5.35
   9 -20   0    0.69    4.18
  -9  20   0    3.41    4.30
   9 -20   1   -3.24    4.05
  -9  20   1    4.78  263.32
   9  20  -1    7.87    5.64
  -9 -20  -1    6.73    5.31
   9  20   1    0.77    4.70
  -9 -20   1    1.82    5.19
   9 -20  -1   -1.14    3.97
  -9  20  -1    1.50    3.97
   9 -20   2    5.60    4.74
  -9  20   2    2.15    4.18
  -9 -20  -2    8.84    5.35
   9  20   2    2.76    4.91
   9 -20  -2    0.20    4.26
  -9  20  -2    6.81    4.83
   9 -20   3   -2.39    4.34
  -9  20   3    0.61    4.54
  -9 -20  -3   -0.85    4.66
   9  20   3    2.03    5.15
   9 -20  -3   -2.31    4.01
  -9  20  -3    5.07    4.91
   9 -20   4    6.45    4.83
  -9  20   4    6.57    4.54
  -9 -20  -4    5.68    5.43
   9  20   4    5.35    4.99
   9 -20  -4    2.39    4.10
  -9  20  -4    8.72    4.42
   9 -20   5   -1.38    3.73
  -9  20   5    2.80    3.93
  -9 -20  -5   -0.57    4.46
   9  20   5    5.60    4.87
   9 -20  -5    1.54    3.77
  -9  20  -5   -2.47    4.10
   9 -20   6    9.81    5.47
  -9  20   6   21.41    6.73
  -9 -20  -6   11.88    5.80
   9  20   6    7.10    5.23
   9 -20  -6    3.32    4.30
  -9  20   7    0.81    3.97
  -9 -20  -7   -0.45    3.97
   9  20   7    3.89    4.05
   9 -20  -7    0.89    3.81
  -9  20  -7   -0.45    4.58
  -9  20   8   11.19    5.35
  -9 -20  -8   11.11    5.60
   9  20   8   24.00    6.93
   9 -20  -8   11.52    5.60
  -9  20   9    5.35    4.74
  -9 -20  -9    1.62    4.30
   9  20   9    3.00    4.18
   9 -20  -9   -0.36    3.89
  -9  20  10    2.55    4.38
  -9 -20 -10    4.74    4.87
   9  20  10    7.87    5.07
   9 -20 -10    6.61    4.50
  -9  20  11   -1.70    3.73
  -9 -20 -11    3.45    4.46
   9  20  11   -1.78    3.28
   9  21   0    9.97    5.68
  -9 -21   0    3.81    5.60
   9 -21   0    0.36    4.01
  -9  21   0    3.12    3.93
   9 -21   1   35.84    8.39
  -9  21   1   16.75    5.96
   9  21  -1   15.04    7.10
  -9 -21  -1    7.01    5.56
   9  21   1   10.10    6.00
  -9 -21   1   19.02    6.97
   9 -21  -1   17.15    6.04
  -9  21  -1   12.37    5.35
   9 -21   2    3.41    4.54
  -9  21   2   -1.66    4.18
   9  21  -2    2.80    4.87
  -9 -21  -2    1.18    5.03
   9  21   2    2.80    4.22
   9 -21  -2    2.39    4.05
  -9  21  -2    1.38    4.26
   9 -21   3    5.51    4.66
  -9  21   3    3.12    4.22
  -9 -21  -3    5.23    4.74
   9  21   3    6.73    5.56
   9 -21  -3    2.51    4.34
  -9  21  -3   19.67    6.61
   9 -21   4    3.45    4.46
  -9  21   4   -0.53    4.05
  -9 -21  -4    3.69    4.66
   9  21   4    1.22    4.22
   9 -21  -4    5.39    4.91
  -9  21  -4    1.99    4.05
   9 -21   5   31.99    7.99
  -9  21   5   30.45    7.95
  -9 -21  -5   37.79    9.08
   9  21   5   22.58    7.42
   9 -21  -5   52.27   10.46
  -9  21  -5   30.09    7.79
   9 -21   6    2.07    4.54
  -9  21   6   -3.97    4.01
  -9 -21  -6   -2.11    4.38
   9  21   6   -2.27    4.22
   9 -21  -6    4.70    4.38
  -9  21  -6   -1.22    4.05
  -9  21   7    2.43    4.38
  -9 -21  -7    6.53    4.54
   9  21   7   -0.57    3.57
   9 -21  -7   11.35    5.68
  -9  21  -7   10.70    5.88
  -9  21   8    4.38    4.38
  -9 -21  -8   -2.11    4.14
   9  21   8   -1.01    3.93
   9 -21  -8    2.31    4.46
  -9  21   9   14.31    5.92
  -9 -21  -9    5.76    4.87
   9  21   9   27.61    7.87
   9 -21  -9   16.62    6.57
  -9  21  10   -0.69    3.69
  -9 -21 -10    0.53    4.01
   9  21  10   -0.61    4.26
   9  22   0   -1.54    4.54
  -9 -22   0   -1.99    4.38
   9 -22   0    3.69    4.18
  -9  22   0   -0.69    3.69
   9 -22   1    0.85    4.18
  -9  22   1   -1.38    3.45
   9  22  -1    5.27    4.99
  -9 -22  -1   -2.19    4.46
   9  22   1    0.41    5.11
  -9 -22   1    0.93    4.78
   9 -22  -1    1.14    4.38
  -9  22  -1    2.39    3.73
   9 -22   2    7.83    5.11
  -9  22   2    4.30    3.81
   9  22  -2   13.38    6.12
  -9 -22  -2   -0.97    4.62
   9  22   2    1.74    4.58
   9 -22  -2    0.36    4.70
  -9  22  -2    2.64    4.38
   9 -22   3   -2.19    3.89
  -9  22   3    4.54    4.26
  -9 -22  -3   -2.23    4.30
   9  22   3    6.16    4.99
   9 -22  -3   -3.32    4.01
  -9  22  -3    9.12    5.31
   9 -22   4    2.64    4.78
  -9  22   4   10.91    5.23
  -9 -22  -4    9.77    5.39
   9  22   4   10.87    6.24
   9 -22  -4   19.54    6.69
  -9  22  -4   14.23    5.47
   9 -22   5   -2.03    4.34
  -9  22   5   -1.42    3.93
  -9 -22  -5    1.70    4.38
   9  22   5   -3.20    4.05
   9 -22  -5   -1.66    3.61
  -9  22  -5    1.54    4.54
   9 -22   6   -1.30    5.19
  -9  22   6   -2.76    4.22
  -9 -22  -6    0.16    4.18
   9  22   6   -0.81    4.01
   9 -22  -6    1.05    4.01
  -9  22  -6   -1.14    4.26
   9 -22   7    5.60    5.15
  -9  22   7    0.57    3.81
  -9 -22  -7    2.76    4.46
   9  22   7    0.20    4.38
   9 -22  -7    1.82    3.89
  -9  22  -7   -0.24    4.58
  -9  22   8    4.34    4.22
  -9 -22  -8   11.88    5.84
   9  22   8    7.66    4.99
   9 -22  -8    3.04    4.14
  -9  22   9   -1.95    3.77
  -9 -22  -9    0.36    4.01
   9  22   9   -2.64    3.97
   9  23   0    0.89    4.70
  -9 -23   0    5.19    5.27
   9 -23   0   -0.20    4.05
  -9  23   0    2.92    4.01
   9 -23   1   13.91    6.12
   9  23  -1    1.18    5.27
  -9 -23  -1    7.95    5.39
   9  23   1   10.58    5.92
  -9 -23   1   27.49    8.43
   9 -23  -1    5.19    4.66
  -9  23  -1   16.95    6.41
   9 -23   2    2.72    4.34
  -9  23   2   -3.20    3.32
   9  23  -2    1.46    5.35
  -9 -23  -2    2.80    4.83
   9  23   2    1.42    5.07
   9 -23  -2    0.97    4.26
  -9  23  -2    2.55    4.70
   9 -23   3   17.88    6.85
  -9 -23  -3    8.88    5.76
   9  23   3   30.61    8.84
   9 -23  -3   46.02    9.77
  -9  23  -3   13.42    6.12
   9 -23   4    0.36    4.42
  -9  23   4   -0.04    3.53
  -9 -23  -4   -2.51    4.42
   9  23   4    3.61    5.15
   9 -23  -4   -1.42    4.26
  -9  23  -4    4.05    4.26
   9 -23   5   14.96    6.33
  -9  23   5   15.41    6.08
  -9 -23  -5   25.95    8.88
   9  23   5   20.40    7.10
   9 -23  -5   24.45    7.54
  -9  23  -5   22.79    7.22
   9 -23   6   -1.50    4.83
  -9  23   6   -1.01    3.53
  -9 -23  -6   -1.91    4.14
   9  23   6   -0.12    4.22
   9 -23  -6   -0.97    3.77
  -9  23  -6    0.97    4.18
   9 -23   7   15.98    6.73
  -9  23   7    2.76    4.18
  -9 -23  -7    0.73    4.83
   9  23   7    2.60    4.34
   9 -23  -7    2.43    4.05
  -9  23  -7    3.81    4.54
  -9  23   8    2.64    4.14
  -9 -23  -8   -1.26    4.95
   9  23   8    2.96    4.66
   9  24   0    0.73    4.26
  -9 -24   0    0.16    4.58
   9 -24   0    4.50    4.62
  -9  24   0   -1.50    3.77
   9 -24   1    1.30    4.50
  -9  24   1   -0.53    3.69
   9  24  -1   -0.32    4.95
  -9 -24  -1   -0.57    4.34
   9  24   1   -2.51    3.97
  -9 -24   1    2.35    4.83
   9 -24  -1    3.81    4.46
  -9  24  -1   -0.61    3.49
   9 -24   2    7.42    5.31
  -9  24   2    6.49    5.11
   9  24  -2    7.95    5.96
  -9 -24  -2    9.08    5.72
   9  24   2    5.96    5.19
  -9 -24   2   12.41    6.33
   9 -24  -2    6.24    5.35
  -9  24  -2    7.87    5.39
   9 -24   3    3.32    4.99
  -9  24   3    2.47    4.05
  -9 -24  -3   -1.34    4.74
   9  24   3   -2.84    4.34
   9 -24  -3   -0.77    4.14
  -9  24  -3    0.20    4.18
   9 -24   4    5.39    5.60
  -9  24   4    4.83    4.18
  -9 -24  -4   10.26    5.31
   9  24   4    5.96    5.35
   9 -24  -4    7.54    5.11
  -9  24  -4    5.27    5.07
   9 -24   5   -2.15    4.26
  -9  24   5    5.51    4.38
  -9 -24  -5    3.81    4.62
   9  24   5    2.19    4.50
   9 -24  -5   -0.49    4.18
   9 -24   6    6.49    4.91
  -9  24   6   -0.93    4.14
  -9 -24  -6   -1.95    4.38
   9  24   6    4.54    4.42
   9 -24  -6    0.89    4.01
  -9  24  -6    1.62    4.34
   9  25   0    2.07    4.78
  -9 -25   0   -0.73    8.35
   9 -25   0   -1.46    3.69
  -9  25   0    3.20    4.62
   9 -25   1    6.04    4.91
  -9  25   1    2.39    4.42
   9  25  -1   -1.09    4.87
  -9 -25  -1   -0.04    4.91
   9  25   1   -3.37    3.77
  -9 -25   1   -4.10    4.78
   9 -25  -1    2.19    4.54
  -9  25  -1    0.85    3.77
   9 -25   2   -1.05    4.30
  -9  25   2    1.01    3.85
   9  25  -2   -1.62    4.74
  -9 -25  -2    0.12    4.99
   9  25   2    0.04    4.50
   9 -25  -2   -1.74    4.22
  -9  25  -2    0.81    4.50
   9 -25   3   15.53    6.61
  -9  25   3   10.58    6.00
   9  25  -3   34.34    9.04
  -9 -25  -3    9.04    5.84
   9  25   3   12.08    6.33
   9 -25  -3   13.54    6.12
  -9  25  -3   10.18    5.64
   9 -25   4    8.84    5.35
  -9  25   4    0.12    4.26
   9  25   4   -2.15    4.62
   9 -25  -4    2.39    4.22
  -9  25  -4    4.05    4.66
  10   0   3   82.19   10.75
  10   0   4  213.44   26.07
 -10   0  -4  215.87   26.40
 -10   0  -5   25.83    4.34
 -10  -1  -3    7.46    4.05
  10   1   3    5.15    3.41
 -10  -1  -4    4.70    2.80
  10   1   4    2.07    2.55
 -10   1  -4    0.49    1.34
 -10  -1  -5    1.34    2.39
  10   1   5    6.24    2.51
 -10  -2  -3    2.51    4.01
  10   2   3    4.54    4.01
 -10  -2  -4   19.79    4.38
  10   2   4   30.86    5.47
 -10  -2  -5   17.84    3.97
  10   2   5   13.83    3.69
 -10  -2  -6    7.99    3.12
  10   2   6   21.65    5.07
 -10  -3  -3   36.09    6.93
  10   3   3   13.62    4.74
 -10   3  -3   25.30    3.81
 -10  -3  -4   18.08    4.50
  10   3   4   27.41    5.39
 -10  -3  -5  200.71   25.26
  10   3   5  281.85   34.99
 -10  -3  -6   17.07    4.10
  10   3   6   13.99    4.10
  10   3   7    2.68    3.08
  10  -4   3    3.49    2.31
 -10  -4  -3    4.54    4.66
  10   4   3    3.49    4.54
 -10   4  -3    1.78    1.99
 -10  -4  -4    3.57    3.97
  10   4   4    7.18    3.93
 -10  -4  -5   -0.49    3.20
  10   4   5    8.27    4.91
 -10  -4  -6    5.60    3.28
  10   4   6    0.45    3.00
 -10  -4  -7    1.05    3.16
  10   4   7    2.43    3.12
 -10  -4  -8    1.26    3.53
  10   4   8    0.53    3.28
  10  -5   1  687.68   83.20
 -10   5  -1  664.57   80.45
 -10  -5  -2   -1.91    5.23
  10   5   2    4.87    5.27
 -10   5  -2    0.12    2.43
  10  -5   3   23.44    4.46
 -10  -5  -3   27.09    6.57
  10   5   3   35.07    7.01
 -10   5  -3   30.05    4.70
 -10  -5  -4    5.80    3.85
  10   5   4    1.18    3.61
 -10   5  -4    4.83    3.04
 -10  -5  -5    1.46    3.53
  10   5   5    5.96    3.89
 -10  -5  -6    6.37    4.10
  10   5   6   -2.07    3.16
 -10  -5  -8    5.11    3.73
  10   5   8    5.84    3.85
 -10  -5  -9  682.82   83.65
  10   5   9  900.96  109.64
  10  -6   0  184.37   23.27
 -10   6   0  217.94   27.21
  10  -6   1    1.38    2.92
 -10   6  -1    3.28    3.24
  10  -6   2    6.93    3.41
 -10  -6  -2    1.62    5.27
  10   6   2    1.34    4.91
 -10   6  -2    2.76    3.32
  10  -6   3   -0.08    3.16
 -10  -6  -3    4.54    4.62
  10   6   3   -0.24    4.34
 -10   6  -3    1.22    2.68
  10  -6   4    6.37    3.97
 -10  -6  -4    1.34    4.10
  10   6   4    7.66    4.34
 -10   6  -4   13.30    4.10
 -10  -6  -5    1.58    3.85
  10   6   5    2.72    3.61
 -10  -6  -6   11.60    4.78
  10   6   6   11.15    4.30
 -10  -6  -7    5.11    3.85
  10   6   7   -1.70    3.24
 -10  -6  -8   15.21    4.91
  10   6   8    9.16    4.30
 -10  -6  -9    3.73    4.22
  10   6   9    5.64    4.30
 -10  -6 -10   24.73    6.45
  10   6  10   33.86    6.89
  10  -7   0   23.88    4.91
 -10   7   0   16.67    4.18
  10  -7   1    8.56    3.53
  10  -7  -1    2.88    3.69
 -10   7  -1   18.69    4.42
  10  -7   2    9.24    3.73
 -10  -7  -2    6.08    5.76
  10   7   2    7.14    5.27
 -10   7  -2   18.41    4.34
  10  -7   3   22.99    5.15
 -10  -7  -3   14.27    5.47
  10   7   3   10.79    4.78
 -10   7  -3   18.98    4.34
  10  -7   4    1.70    3.73
 -10  -7  -4    4.22    4.42
  10   7   4    0.41    3.81
 -10   7  -4   -0.16    3.73
 -10  -7  -5    7.66    4.70
  10   7   5   14.11    4.95
 -10  -7  -6   10.02    4.62
  10   7   6   11.23    4.74
 -10  -7  -7   23.07    5.88
  10   7   7   36.01    6.81
 -10  -7  -9    7.70    4.78
  10   7   9   16.91    5.23
 -10  -7 -10   -0.93    3.85
  10   7  10    0.81    3.97
 -10  -7 -11    0.77    3.77
  10  -8   1   20.44    4.99
 -10   8   1   22.87    5.07
  10  -8  -1   10.22    3.89
 -10   8  -1   17.52    4.34
 -10   8   2   19.75    5.03
 -10  -8  -2   40.51    8.64
  10   8   2   48.90    9.33
  10  -8  -2   25.59    5.76
  10  -8   3   12.29    4.62
 -10  -8  -3   -2.64    4.54
  10   8   3    9.93    5.07
 -10   8  -3    1.50    3.57
  10  -8   4  128.90   17.39
 -10  -8  -4  133.81   18.69
  10   8   4  129.67   17.88
 -10   8  -4  134.82   18.00
 -10  -8  -5    2.96    4.58
  10   8   5    8.15    4.54
 -10  -8  -6  135.06   18.73
  10   8   6   94.27   13.75
 -10  -8  -7    4.05    5.56
  10   8   7   12.25    4.95
 -10  -8  -9    3.53    4.66
  10   8   9    5.68    4.30
 -10  -8 -11    8.80    4.54
  10   8  11    0.81    3.81
 -10  -8 -12    1.18    3.69
  10  -9   0    1.38    3.41
 -10   9   0   -0.28    3.24
  10  -9   1    7.87    4.01
 -10   9   1    2.35    3.37
  10   9   1    1.46    5.51
 -10   9  -1    5.07    3.69
  10  -9   2   -0.24    3.65
 -10   9   2    1.18    3.37
 -10  -9  -2    2.84    5.39
  10   9   2   -3.04    5.31
  10  -9  -2    6.93    3.93
 -10   9  -2    2.35    3.32
  10  -9   3   23.15    5.92
 -10  -9  -3   26.40    7.34
  10   9   3   14.72    5.80
  10  -9  -3   36.70    7.06
 -10   9  -3   10.83    4.62
  10  -9   4    4.30    4.58
 -10  -9  -4    1.14    4.99
  10   9   4   -0.65    4.58
 -10   9  -4   -0.65    4.26
 -10  -9  -5    6.81    5.23
  10   9   5   -3.97    4.62
 -10   9  -5    9.97    5.11
 -10  -9  -6    5.64    5.11
  10   9   6   -0.69    4.50
 -10  -9  -7   -1.74    5.43
  10   9   7    2.55    4.87
 -10  -9  -8   -0.49    4.46
  10   9   8    0.00    4.50
 -10  -9  -9   36.49    7.87
  10   9   9   36.57    7.62
 -10  -9 -10    0.24    3.97
  10   9  10    4.50    3.77
 -10  -9 -11    5.43    4.14
  10   9  11    7.83    4.22
 -10  -9 -12   -0.97    3.65
  10   9  12    2.88    3.65
 -10  -9 -13   -3.24    4.01
  10 -10   0 1125.60  136.56
 -10  10   0 1237.51  149.90
  10 -10   1    2.88    4.30
 -10  10   1    0.73    3.20
 -10 -10  -1    2.23    6.12
  10  10   1    5.27    5.35
  10 -10  -1    3.93    3.77
 -10  10  -1    3.16    4.05
  10 -10   2    5.72    4.26
 -10  10   2   15.57    4.58
 -10 -10  -2    7.87    6.12
  10  10   2    6.73    5.68
  10 -10  -2    3.24    3.49
  10 -10   3    8.19    5.19
 -10  10   3    7.50    4.14
 -10 -10  -3   10.18    5.84
  10  10   3    2.92    4.95
  10 -10  -3   16.99    5.27
 -10  10  -3   15.16    5.11
  10 -10   4   17.19    5.76
 -10 -10  -4   38.80    8.84
  10  10   4   48.17    9.53
 -10  10  -4   23.19    6.28
 -10 -10  -5   -0.12    5.27
  10  10   5    4.66    5.31
 -10  10  -5    0.12    5.23
 -10 -10  -6   36.01    8.51
  10  10   6   41.36    8.64
 -10 -10  -7    1.30    5.27
  10  10   7    1.50    5.35
 -10 -10  -8  195.64   26.32
  10  10   8  119.70   17.11
 -10 -10  -9    7.79    4.66
  10  10   9   -4.10    3.97
 -10 -10 -10    1.01    3.85
  10  10  10    6.45    4.42
 -10 -10 -11    3.00    3.77
  10  10  11    5.07    3.89
 -10 -10 -12    6.61    4.22
  10  10  12    6.28    4.34
 -10 -10 -13   12.77    5.35
  10  10  13    5.51    4.30
 -10 -10 -14    1.78    3.93
  10 -11   0    9.53    4.95
 -10  11   0    9.33    4.46
  10 -11   1    8.27    4.83
 -10  11   1   18.33    5.11
  10  11   1   29.60    8.23
  10 -11  -1    6.37    4.10
  10 -11   2    4.26    4.54
 -10  11   2   -0.45    3.61
 -10 -11  -2    6.16    6.28
  10  11   2    3.85    5.80
  10 -11  -2    9.29    4.34
 -10  11  -2    3.69    4.26
  10 -11   3    9.89    5.64
 -10  11   3   20.40    5.68
 -10 -11  -3   10.54    6.65
  10  11   3   21.29    6.85
  10 -11  -3   20.31    5.27
  10 -11   4    6.85    5.64
 -10  11   4   12.08    4.70
 -10 -11  -4    9.08    6.53
  10  11   4    5.03    5.80
  10 -11  -4    2.43    3.97
 -10  11  -4    5.88    4.95
  10 -11   5   18.12    6.65
 -10 -11  -5    5.88    5.64
  10  11   5    7.95    5.76
  10 -11  -5   11.52    5.11
 -10  11  -5   10.87    6.28
 -10 -11  -6   -0.16    5.15
  10  11   6    2.76    4.99
 -10 -11  -7   13.42    6.28
  10  11   7    1.05    5.27
 -10 -11  -8    6.33    5.39
  10  11   8    6.08    4.74
 -10 -11  -9    4.46    3.97
  10  11   9   -1.01    3.81
 -10 -11 -10    4.70    3.89
  10  11  10    2.92    3.97
 -10 -11 -11   -0.65    3.37
  10  11  11    1.14    3.53
 -10 -11 -12    1.70    3.49
  10  11  12    2.39    4.34
 -10 -11 -13    2.39    4.01
  10  11  13    3.97    4.38
 -10 -11 -14    0.32    3.61
  10  11  14   -0.77    3.57
 -10 -11 -15    1.99    3.77
  10 -12   0    3.12    4.91
 -10  12   0    5.35    4.70
  10 -12   1   31.14    7.34
 -10  12   1   15.29    4.99
 -10 -12  -1   10.95    7.46
  10  12   1   36.13    9.41
  10 -12  -1   23.64    6.04
 -10  12  -1   17.03    5.88
  10 -12   2   42.53    8.31
 -10  12   2   53.40    8.92
 -10 -12  -2   33.17    9.45
  10  12   2   42.94   10.22
  10 -12  -2   32.19    6.65
 -10  12  -2   40.43    8.31
  10 -12   3    6.53    5.80
 -10  12   3   11.72    4.99
 -10 -12  -3    1.38    6.45
  10  12   3    4.10    5.64
  10 -12  -3    3.77    3.85
 -10  12  -3    9.12    5.76
  10 -12   4    2.27    5.39
 -10  12   4    8.11    4.66
 -10 -12  -4   16.79    7.14
  10  12   4   19.06    7.42
  10 -12  -4    4.26    4.42
 -10  12  -4    9.85    5.76
  10 -12   5   21.69    7.46
 -10  12   5    3.08    4.34
 -10 -12  -5    1.62    5.84
  10  12   5   11.27    6.20
  10 -12  -5    8.19    5.15
 -10  12  -5    3.53    5.64
 -10 -12  -6    9.61    6.04
  10  12   6   10.22    5.92
  10 -12  -6    5.51    4.91
 -10 -12  -7   13.99    5.88
  10  12   7   21.81    6.69
 -10 -12  -8   -0.36    4.99
  10  12   8    4.66    4.83
 -10 -12  -9    1.38    4.26
  10  12   9    3.53    4.14
 -10 -12 -10   -2.96    3.73
  10  12  10    6.04    4.18
 -10 -12 -11    0.53    3.77
  10  12  11   -1.87    3.69
 -10 -12 -12    2.19    3.93
  10  12  12    3.57    4.38
 -10 -12 -13    3.28    3.73
  10  12  13   -0.61    4.50
 -10 -12 -14   -3.85    3.69
  10  12  14   -2.72    3.73
 -10 -12 -15    4.62    4.66
  10  12  15    1.05    4.01
  10 -13   0  111.30   16.18
 -10  13   0  103.11   15.33
  10 -13   1   15.29    6.08
 -10  13   1    9.77    5.31
 -10 -13  -1   11.72    7.62
  10  13   1   22.30    8.43
  10 -13  -1   10.70    5.43
 -10  13  -1   14.11    5.72
  10 -13   2   26.52    7.01
 -10 -13  -2   34.10    9.69
  10  13   2   10.87    7.66
  10 -13  -2   43.59    8.27
 -10  13  -2   17.80    6.20
  10 -13   3    7.79    5.56
 -10  13   3    6.37    4.54
 -10 -13  -3   10.38    7.42
  10  13   3    7.58    6.08
  10 -13  -3   12.65    5.07
 -10  13  -3    2.27    5.47
  10 -13   4   11.27    6.20
 -10  13   4   -0.16    4.26
 -10 -13  -4   15.81    7.30
  10  13   4   14.72    7.42
  10 -13  -4    7.01    4.50
 -10  13  -4    9.45    5.56
  10 -13   5   72.62   12.33
 -10  13   5   68.44   11.43
 -10 -13  -5   59.85   11.43
  10  13   5   85.64   14.48
  10 -13  -5   96.91   14.60
 -10  13   6   46.55    9.08
 -10 -13  -6   44.93    9.73
  10  13   6   40.43    9.24
  10 -13  -6   20.76    6.24
 -10 -13  -7   12.77    5.47
  10  13   7   15.29    6.12
 -10 -13  -8   13.10    5.76
  10  13   8   12.45    5.96
 -10 -13  -9    7.66    5.11
  10  13   9    2.96    4.14
 -10 -13 -10    7.83    4.58
  10  13  10    2.68    3.97
 -10 -13 -11   -0.12    3.85
  10  13  11    2.35    4.18
 -10 -13 -12    2.27    4.01
  10  13  12   18.98    6.12
 -10 -13 -13    1.66    3.69
  10  13  13    3.16    4.05
 -10 -13 -14    1.42    3.57
  10  13  14   -1.05    3.89
  10  14   0   23.19    8.47
  10 -14   0   29.36    7.58
 -10  14   0    7.74    5.56
  10 -14   1    1.54    5.11
 -10  14   1    2.60    4.83
 -10 -14  -1    9.93    7.79
  10  14   1    2.51    6.93
  10 -14  -1   -2.47    4.62
 -10  14  -1   -0.36    4.78
  10 -14   2   60.66   10.70
 -10  14   2   44.72    8.68
 -10 -14  -2   29.60    9.16
  10  14   2   32.19    9.45
  10 -14  -2   48.49    9.00
 -10  14  -2   36.74    8.11
  10 -14   3   -1.82    5.07
 -10  14   3    1.66    4.18
 -10 -14  -3    0.69    6.00
  10  14   3    1.95    5.80
  10 -14  -3    2.88    4.38
 -10  14  -3   -1.78    5.15
  10 -14   4    4.83    5.60
 -10  14   4    8.68    4.87
 -10 -14  -4   16.34    7.01
  10  14   4   14.56    7.50
  10 -14  -4    3.32    4.54
 -10  14  -4   -6.24    4.62
  10 -14   5    0.00    5.60
 -10  14   5   -2.31    4.22
 -10 -14  -5   13.50    6.65
  10  14   5    0.73    4.99
  10 -14  -5    2.51    4.01
 -10  14  -5    9.81    5.84
 -10  14   6   41.28    8.51
 -10 -14  -6   44.08    9.20
  10  14   6   43.47    9.53
  10 -14  -6   33.33    7.34
 -10  14  -6   23.88    7.10
 -10  14   7    0.61    4.34
 -10 -14  -7    0.57    4.87
  10  14   7    5.84    5.03
  10 -14  -7    2.19    4.30
 -10 -14  -8   10.22    5.39
  10  14   8    3.12    5.15
 -10 -14  -9   -3.97    4.70
  10  14   9    7.01    4.78
 -10 -14 -10   -2.60    3.65
  10  14  10    2.07    3.93
 -10 -14 -11   -1.58    3.81
  10  14  11    5.35    4.26
 -10 -14 -12    1.78    3.97
  10  14  12   -2.92    3.65
 -10 -14 -13    3.41    3.97
  10  14  13   -1.18    3.97
 -10 -14 -14    1.58    3.61
  10  14  14    9.69    4.95
  10  15   0   12.65    7.46
 -10 -15   0    8.56    7.30
  10 -15   0   19.95    6.37
 -10  15   0   21.45    6.81
  10 -15   1    4.38    5.11
 -10  15   1   -1.50    4.95
 -10 -15  -1   16.50    8.11
  10  15   1   12.98    7.10
  10 -15  -1   -0.49    4.78
 -10  15  -1   -0.45    5.23
  10 -15   2    9.00    5.39
 -10  15   2    0.73    4.50
 -10 -15  -2    2.47    6.45
  10  15   2   -1.58    5.64
  10 -15  -2   15.98    5.56
 -10  15  -2    2.80    4.78
  10 -15   3    5.07    5.35
 -10  15   3    8.51    4.66
 -10 -15  -3    1.01    5.72
  10  15   3   10.79    6.45
  10 -15  -3    3.32    4.34
 -10  15  -3    2.88    5.03
  10 -15   4    7.66    5.88
 -10  15   4   -2.23    4.05
 -10 -15  -4    0.57    5.27
  10  15   4    4.62    6.49
  10 -15  -4    3.04    4.26
 -10  15  -4    8.84    5.35
  10 -15   5   14.92    5.84
 -10  15   5   21.53    6.24
 -10 -15  -5    5.88    5.51
  10  15   5    4.50    5.43
  10 -15  -5    2.68    4.01
 -10  15  -5    4.70    5.23
  10 -15   6    2.92    5.47
 -10  15   6    2.72    4.10
 -10 -15  -6   -3.61    4.66
  10  15   6    2.27    5.07
  10 -15  -6    4.34    4.10
 -10  15  -6    3.77    5.15
 -10  15   7    4.83    4.14
 -10 -15  -7   16.95    6.20
  10  15   7    4.38    4.87
  10 -15  -7    3.89    4.54
 -10  15   8    2.31    3.77
 -10 -15  -8    0.53    4.74
  10  15   8    4.01    4.99
  10 -15  -8   -1.82    4.05
 -10 -15  -9    2.35    4.87
  10  15   9    0.12    4.26
 -10 -15 -10    1.42    4.18
  10  15  10   -2.55    4.26
 -10 -15 -11    1.58    4.30
  10  15  11   -1.82    3.73
 -10 -15 -12    0.81    3.89
  10  15  12    3.20    3.77
 -10 -15 -13    6.57    4.50
  10  15  13   13.91    5.35
 -10 -15 -14   -1.62    3.65
  10  15  14   -2.11    3.69
  10  16   0  179.75   25.71
 -10 -16   0  112.52   18.25
  10 -16   0  168.15   22.95
 -10  16   0  199.13   26.72
  10 -16   1    2.15    4.42
 -10  16   1    5.11    4.74
 -10 -16  -1   -1.62    5.96
  10  16   1   14.35    7.22
  10 -16  -1    4.14    4.74
 -10  16  -1    0.49    4.26
  10 -16   2   14.56    5.56
 -10  16   2   13.66    5.51
 -10 -16  -2   19.67    7.87
  10  16   2    6.69    6.65
  10 -16  -2   13.22    5.51
 -10  16  -2    7.10    4.83
  10 -16   3   -5.11    4.58
 -10  16   3    3.85    4.18
 -10 -16  -3    8.15    6.37
  10  16   3    3.37    5.72
  10 -16  -3   -0.24    4.05
 -10  16  -3    0.85    4.66
  10 -16   4   54.46   10.30
 -10  16   4   45.17    8.47
 -10 -16  -4   30.57    8.56
  10  16   4   53.93   11.72
  10 -16  -4   45.86    8.64
 -10  16  -4   88.03   14.11
  10 -16   5   -2.84    4.26
 -10  16   5   -2.72    3.45
 -10 -16  -5    1.87    5.27
  10  16   5    6.81    5.23
  10 -16  -5    0.12    3.81
 -10  16  -5   -1.26    4.95
  10 -16   6   12.20    5.68
 -10  16   6    0.93    4.05
 -10 -16  -6   17.19    6.93
  10  16   6    6.89    5.60
  10 -16  -6    1.54    3.61
 -10  16  -6   13.99    6.00
 -10  16   7   -0.16    3.49
 -10 -16  -7   -0.04    4.58
  10  16   7    3.37    5.03
  10 -16  -7   -0.89    3.24
 -10  16   8   12.20    5.07
 -10 -16  -8    7.54    4.74
  10  16   8    5.92    5.07
  10 -16  -8    8.03    4.83
 -10 -16  -9    1.26    4.70
  10  16   9    4.22    4.58
  10 -16  -9   -1.78    4.30
 -10 -16 -10    4.10    4.58
  10  16  10    2.03    4.05
 -10 -16 -11   -3.16    3.73
  10  16  11    3.28    3.93
 -10 -16 -12    0.20    3.97
  10  16  12    6.33    4.66
 -10 -16 -13    2.64    3.85
  10  16  13    3.37    3.93
  10  17   0    3.20    6.61
 -10 -17   0   -1.54    6.37
  10 -17   0    4.54    4.95
 -10  17   0    7.34    4.62
  10 -17   1    0.36    4.42
 -10  17   1    0.73    4.01
 -10 -17  -1    0.24    5.88
  10  17   1    3.49    6.41
  10 -17  -1    5.60    4.38
 -10  17  -1    0.77    4.22
  10 -17   2    1.54    4.01
 -10  17   2   -1.01    3.97
 -10 -17  -2    5.47    6.20
  10  17   2   -2.47    5.19
  10 -17  -2    0.65    4.18
 -10  17  -2    1.54    4.50
  10 -17   3    5.60    4.99
 -10  17   3    1.09    3.81
 -10 -17  -3    1.34    5.68
  10  17   3    0.12    5.27
  10 -17  -3    3.16    4.18
 -10  17  -3    4.50    4.78
  10 -17   4    3.20    4.70
 -10  17   4    0.12    3.41
 -10 -17  -4   19.62    7.10
  10  17   4    4.42    5.72
  10 -17  -4    3.28    3.77
 -10  17  -4   -0.89    4.22
  10 -17   5   -0.08    4.22
 -10  17   5    5.72    3.97
 -10 -17  -5    0.36    5.35
  10  17   5   -0.36    4.66
  10 -17  -5    4.50    4.18
 -10  17  -5    0.85    4.38
  10 -17   6    3.85    4.87
 -10  17   6   -0.36    3.69
 -10 -17  -6   -2.47    4.22
  10  17   6   -3.32    4.74
  10 -17  -6    4.26    4.01
 -10  17  -6   -0.36    4.14
 -10  17   7   13.62    5.43
 -10 -17  -7    4.66    4.70
  10  17   7   -1.62    4.70
 -10  17   8    2.76    3.89
 -10 -17  -8    0.61    4.14
  10  17   8    2.47    4.14
  10 -17  -8    6.37    4.30
 -10  17   9   -3.89    3.85
 -10 -17  -9    0.28    4.38
  10  17   9   -2.55    4.42
  10 -17  -9   -1.01    3.85
 -10 -17 -10   -3.32    4.34
  10  17  10    3.53    4.58
  10 -17 -10    3.49    4.26
 -10 -17 -11   -1.22    4.22
  10  17  11   -1.38    3.93
 -10 -17 -12    0.93    3.81
  10  17  12    4.87    4.22
  10  17  13    1.95    4.99
  10  18   0   11.03    6.85
 -10 -18   0   10.10    6.61
  10 -18   0    4.46    4.66
 -10  18   0   11.56    5.11
  10 -18   1    8.56    5.11
 -10  18   1   11.80    5.19
  10  18  -1    2.27    6.24
 -10 -18  -1   12.49    6.65
  10  18   1   15.16    7.30
  10 -18  -1   14.80    5.47
 -10  18  -1    3.73    4.34
  10 -18   2    1.99    4.58
 -10  18   2    0.24    4.10
 -10 -18  -2    3.12    5.72
  10  18   2   -2.07    5.07
  10 -18  -2    1.18    4.26
 -10  18  -2    1.26    3.89
  10 -18   3   -0.77    4.50
 -10  18   3    2.60    3.93
 -10 -18  -3    4.66    5.56
  10  18   3   -5.84    4.38
  10 -18  -3    0.45    3.89
 -10  18  -3    1.70    4.30
  10 -18   4    3.45    4.18
 -10  18   4    2.96    3.81
 -10 -18  -4    7.30    5.15
  10  18   4    8.96    5.84
  10 -18  -4   -0.65    3.32
 -10  18  -4    6.53    4.42
  10 -18   5   -1.42    3.89
 -10  18   5    0.65    3.45
 -10 -18  -5   -2.72    4.26
  10  18   5    2.80    4.91
  10 -18  -5   -0.28    3.53
 -10  18  -5    0.65    4.34
  10 -18   6   -0.53    4.62
 -10  18   6    3.53    3.69
 -10 -18  -6   15.16    6.16
  10 -18  -6   -0.65    4.01
 -10  18  -6    4.30    4.46
 -10  18   7    4.14    4.10
 -10 -18  -7    8.03    5.47
  10  18   7   12.37    5.84
  10 -18  -7    5.80    4.14
 -10  18  -7    6.45    4.99
 -10  18   8    3.89    4.54
 -10 -18  -8   -0.24    3.93
  10  18   8    4.14    4.14
  10 -18  -8    0.57    4.30
 -10  18   9    0.24    4.05
 -10 -18  -9    0.65    3.89
  10  18   9    1.74    4.38
  10 -18  -9    4.70    4.50
 -10  18  10    9.29    5.15
 -10 -18 -10    6.12    5.11
  10  18  10    8.39    4.87
  10 -18 -10    5.43    4.62
 -10 -18 -11   -1.74    4.14
  10  18  11    4.66    4.38
  10 -18 -11   -3.81    3.97
 -10 -18 -12    4.38    4.38
  10  18  12    4.66    4.26
  10  19   0   -1.30    4.95
 -10 -19   0   -1.82    5.43
  10 -19   0    0.49    3.93
 -10  19   0    2.96    4.14
  10 -19   1    4.99    4.05
 -10  19   1    4.10    4.34
  10  19  -1   10.99    6.33
 -10 -19  -1    1.46    4.91
  10  19   1    1.26    5.07
  10 -19  -1   -0.85    3.93
 -10  19  -1   -3.20    4.01
  10 -19   2    1.50    4.38
 -10  19   2    3.57    4.42
 -10 -19  -2    2.55    4.74
  10  19   2   -4.30    4.30
  10 -19  -2    1.42    4.42
 -10  19  -2   -0.12    4.10
  10 -19   3    1.95    4.10
 -10  19   3    2.47    4.18
 -10 -19  -3   15.61    6.65
  10  19   3    1.46    4.42
  10 -19  -3   -0.24    4.18
 -10  19  -3   -4.66    4.01
  10 -19   4    0.36    4.10
 -10  19   4   -1.87    3.81
 -10 -19  -4   -2.88    4.18
  10  19   4    4.01    5.15
  10 -19  -4    3.49    3.97
 -10  19  -4   -2.19    3.53
  10 -19   5    7.10    5.07
 -10  19   5   -3.32    3.53
 -10 -19  -5    4.30    5.19
  10  19   5   -4.83    4.22
  10 -19  -5    3.81    3.93
 -10  19  -5    1.46    4.10
  10 -19   6   -4.22    3.89
 -10  19   6    0.20    3.73
 -10 -19  -6    3.00    4.50
  10  19   6    0.20    4.38
  10 -19  -6    0.57    3.77
 -10  19  -6    1.54    4.01
 -10  19   7    3.00    4.10
 -10 -19  -7    4.83    4.42
  10  19   7   -0.45    4.54
  10 -19  -7   -1.22    4.01
 -10  19  -7    4.99    4.54
 -10  19   8   -0.45    3.61
 -10 -19  -8   -2.96    3.93
  10  19   8   -1.26    3.85
  10 -19  -8    3.49    4.14
 -10  19   9    0.08    3.93
 -10 -19  -9    1.87    4.01
  10  19   9   -2.88    3.97
  10 -19  -9    2.60    3.73
 -10  19  10   -2.55    3.93
 -10 -19 -10   -1.99    4.26
  10  19  10   -0.65    4.10
  10 -19 -10   -0.53    4.30
 -10  19  11    2.07    4.14
 -10 -19 -11   -0.36    4.34
  10  19  11   -0.65    4.18
  10  20   0    4.58    5.72
 -10 -20   0    1.58    5.43
  10 -20   0   -0.20    4.14
 -10  20   0    1.74    4.10
  10 -20   1    5.35    4.70
 -10  20   1   -0.08    3.85
  10  20  -1   -4.10    4.70
 -10 -20  -1    2.80    4.99
  10  20   1    4.22    5.72
 -10 -20   1   -1.26    4.91
  10 -20  -1   -0.24    3.81
 -10  20  -1    4.83    4.46
  10 -20   2    0.24    3.81
 -10  20   2    1.38    4.18
 -10 -20  -2   -4.22    5.31
  10  20   2   -1.74    4.01
  10 -20  -2    4.10    4.18
 -10  20  -2    4.58    4.18
  10 -20   3    2.23    4.30
 -10  20   3    0.08    4.18
 -10 -20  -3    2.55    4.99
  10  20   3    4.01    4.34
  10 -20  -3    0.73    3.85
 -10  20  -3   -0.45    4.05
  10 -20   4    2.31    4.50
 -10  20   4   10.62    5.11
 -10 -20  -4    6.93    5.07
  10  20   4    1.91    5.03
  10 -20  -4    1.18    4.10
 -10  20  -4    4.70    4.18
  10 -20   5    0.53    3.69
 -10  20   5    2.60    3.93
 -10 -20  -5    0.24    4.46
  10  20   5    3.81    4.46
  10 -20  -5   -0.04    3.89
 -10  20  -5    5.19    4.26
  10 -20   6    7.70    4.95
 -10  20   6   -3.41    3.85
 -10 -20  -6    4.62    4.78
  10  20   6    4.99    4.78
  10 -20  -6    0.32    4.18
 -10  20  -6    3.12    4.30
 -10  20   7    0.77    3.49
 -10 -20  -7   -1.78    4.78
  10  20   7    0.32    4.46
  10 -20  -7    2.27    4.18
 -10  20  -7    3.73    4.54
 -10  20   8    4.42    4.62
 -10 -20  -8    3.00    4.91
  10  20   8    2.55    4.46
  10 -20  -8    2.11    3.89
 -10  20   9    0.69    3.97
 -10 -20  -9    5.07    4.62
  10  20   9    3.53    4.42
  10 -20  -9    2.27    3.85
 -10  20  10    0.61    4.10
 -10 -20 -10    3.53    4.34
  10  20  10    1.91    4.34
  10 -20 -10    3.28    4.54
  10  21   0    5.51    5.43
 -10 -21   0   -3.37    4.66
  10 -21   0   -0.32    3.73
 -10  21   0    4.66    4.38
  10 -21   1    5.64    4.34
 -10  21   1    1.09    3.85
  10  21  -1   31.38    8.47
 -10 -21  -1    1.22    4.38
  10  21   1    0.00    4.50
  10 -21  -1    7.74    5.11
 -10  21  -1    3.24    4.05
  10 -21   2    1.95    3.93
 -10  21   2   -5.64    3.49
 -10 -21  -2    0.28    4.01
  10  21   2   -3.69    3.89
  10 -21  -2    7.99    4.99
 -10  21  -2    3.77    4.22
  10 -21   3    1.91    3.77
 -10  21   3   12.37    5.76
 -10 -21  -3   10.18    5.31
  10  21   3    5.96    4.66
  10 -21  -3   31.71    8.19
 -10  21  -3    8.60    4.78
  10 -21   4    3.24    4.30
 -10  21   4    0.28    3.77
 -10 -21  -4    0.32    4.30
  10  21   4    2.07    4.42
  10 -21  -4    2.55    4.26
 -10  21  -4    0.36    3.45
  10 -21   5    1.82    4.01
 -10  21   5    4.99    4.22
 -10 -21  -5    0.36    4.14
  10  21   5    1.87    4.42
  10 -21  -5    0.04    3.61
 -10  21  -5    8.03    4.58
  10 -21   6    4.01    4.95
 -10  21   6    7.79    4.58
 -10 -21  -6    7.38    4.70
  10  21   6   -2.19    3.89
  10 -21  -6    0.81    4.10
 -10  21  -6    5.23    4.83
  10 -21   7    6.00    5.11
 -10  21   7    5.11    4.34
 -10 -21  -7    0.16    4.42
  10  21   7    1.82    4.46
  10 -21  -7   11.31    5.64
 -10  21  -7    4.54    4.74
 -10  21   8   -0.28    4.01
 -10 -21  -8    0.57    3.89
  10  21   8    0.20    3.73
  10 -21  -8    2.76    4.50
 -10  21   9    9.61    5.47
 -10 -21  -9   13.83    6.00
  10  21   9   11.31    5.68
  10 -21  -9    9.73    5.39
  10  21  10    4.58    5.27
  10  22   0    3.65    5.15
 -10 -22   0    1.46    4.58
  10 -22   0    6.33    4.78
 -10  22   0   -2.51    3.81
  10 -22   1   -1.01    4.14
 -10  22   1    0.20    3.53
  10  22  -1   -0.73    4.87
 -10 -22  -1    2.35    4.38
  10  22   1   -2.64    4.46
 -10 -22   1    5.47    5.27
  10 -22  -1    1.87    4.34
 -10  22  -1    1.46    3.77
  10 -22   2    1.26    4.22
 -10  22   2    1.91    4.54
  10  22  -2    5.80    5.19
 -10 -22  -2   -0.77    4.26
  10  22   2    3.28    4.22
  10 -22  -2    3.61    4.74
 -10  22  -2    1.74    3.73
  10 -22   3    1.99    4.38
 -10  22   3   -0.20    3.93
 -10 -22  -3    3.24    4.62
  10  22   3   -0.81    4.66
  10 -22  -3   -1.46    3.73
 -10  22  -3   -1.01    3.65
  10 -22   4    1.22    4.62
 -10  22   4    4.34    3.97
 -10 -22  -4   -4.50    4.42
  10  22   4    0.32    4.38
  10 -22  -4    0.04    3.85
 -10  22  -4    1.18    3.69
  10 -22   5   -3.69    3.89
 -10  22   5    1.54    4.38
 -10 -22  -5   -1.18    3.97
  10  22   5    2.60    4.58
  10 -22  -5    2.96    3.93
 -10  22  -5    0.41    3.69
  10 -22   6    0.89    4.50
 -10  22   6    2.72    3.93
 -10 -22  -6   -1.14    4.26
  10  22   6   -2.39    4.38
  10 -22  -6    2.72    4.26
 -10  22  -6    8.07    5.07
  10 -22   7   -1.87    4.58
 -10  22   7    1.50    3.81
 -10 -22  -7    0.65    4.30
  10  22   7    3.41    4.34
  10 -22  -7   -5.07    3.81
 -10  22  -7    0.85    4.01
 -10  22   8   -1.74    3.69
 -10 -22  -8   -0.04    5.03
  10  22   8   -1.01    4.38
  10 -22  -8    0.04    4.05
 -10  22  -8   -0.69    4.18
  10  23   0    3.69    5.68
 -10 -23   0   -0.45    4.99
  10 -23   0    2.55    4.46
 -10  23   0   -2.23    3.69
  10 -23   1   -1.74    3.41
 -10  23   1    3.04    4.22
  10  23  -1   -1.87    4.95
 -10 -23  -1    5.03    5.03
  10  23   1   -0.36    4.99
 -10 -23   1   -0.61    5.39
  10 -23  -1   -0.69    4.26
 -10  23  -1    1.14    3.73
  10 -23   2   -0.89    4.87
 -10  23   2    7.22    4.58
  10  23  -2   14.76    6.77
 -10 -23  -2    5.27    5.35
  10  23   2    3.65    4.74
  10 -23  -2   -2.07    3.93
 -10  23  -2    6.24    4.42
  10 -23   3    6.28    4.99
 -10  23   3   -1.87    3.65
 -10 -23  -3    1.42    5.07
  10  23   3    5.60    5.19
  10 -23  -3    2.64    4.22
 -10  23  -3    1.01    4.22
  10 -23   4   -0.41    4.50
 -10  23   4    0.00    4.22
 -10 -23  -4    4.87    4.78
  10  23   4    3.53    4.91
  10 -23  -4    2.88    4.22
 -10  23  -4    0.49    3.85
  10 -23   5   -2.72    4.54
 -10  23   5   -3.37    3.61
 -10 -23  -5    5.43    4.74
  10  23   5    4.95    4.70
  10 -23  -5   10.18    5.11
 -10  23  -5   -1.62    3.37
  10 -23   6    0.65    4.18
 -10  23   6   -0.81    3.45
 -10 -23  -6    7.42    5.35
  10  23   6    0.12    4.05
  10 -23  -6    1.42    3.85
 -10  23  -6    0.73    4.62
  10 -23   7   -1.78    4.54
 -10  23   7    4.99    4.18
 -10 -23  -7   -0.89    3.85
  10  23   7    0.93    4.22
  10 -23  -7    4.26   19.42
 -10  23  -7    2.11    4.62
  10  24   0    3.24    4.99
 -10 -24   0   10.58    6.08
  10 -24   0    6.65    4.70
 -10  24   0   13.30    5.80
  10 -24   1   -1.62    3.93
 -10  24   1    5.03    4.42
  10  24  -1    0.28    4.66
 -10 -24  -1    2.03    4.74
  10  24   1    8.47    5.76
 -10 -24   1    5.84    5.56
  10 -24  -1    3.32    4.50
 -10  24  -1    3.28    3.93
  10 -24   2   -1.91    3.97
 -10  24   2    0.45    3.81
  10  24  -2    5.03    5.11
 -10 -24  -2    0.73    4.46
  10  24   2   -2.60    4.30
  10 -24  -2   -3.37    3.77
 -10  24  -2    2.31    3.77
  10 -24   3   -3.04    4.26
 -10  24   3    1.42    4.14
 -10 -24  -3    6.61    5.23
  10  24   3   -4.34    4.74
  10 -24  -3   -1.46    3.77
 -10  24  -3    5.07    4.34
  10 -24   4    2.47    4.30
 -10  24   4    6.57    4.66
 -10 -24  -4    1.38    4.66
  10  24   4    2.39    4.91
  10 -24  -4    1.46    4.10
 -10  24  -4    3.65    4.05
  10 -24   5   -0.28    4.14
 -10  24   5    3.77    4.05
 -10 -24  -5   -2.31    4.38
  10  24   5   -1.50    3.93
  10 -24  -5   -1.54    3.89
 -10  24  -5   -0.69    3.89
  10 -24   6   -1.09   30.41
 -10  24   6    5.23    5.07
 -10 -24  -6    0.16    4.10
  10  24   6    1.01    4.74
  10 -24  -6    1.95    4.74
 -10  24  -6    0.85    4.95
  10  25   0    3.20    4.70
  10 -25   0   -0.61    4.34
 -10  25   0   -1.46    3.85
  10 -25   1    7.06    5.39
 -10  25   1    7.01    4.74
  10  25  -1    1.58    4.62
 -10 -25  -1    4.38    5.92
  10  25   1    1.01    4.91
  10 -25  -1   -0.57    4.74
 -10  25  -1    8.60    4.62
  10 -25   2   -0.12    4.83
 -10  25   2    5.60    4.54
  10  25  -2    7.54    5.39
 -10 -25  -2    5.31    5.15
  10  25   2   -0.08    3.69
  10 -25  -2   -1.62    4.38
 -10  25  -2   -1.38    4.01
  10 -25   3    1.22    4.91
 -10  25   3    1.91    4.54
  10  25   3   -1.87    4.95
  10 -25  -3   -0.77    4.14
 -10  25  -3    1.14    4.42
  11   0   4  131.98   16.38
 -11   0  -4  109.56   13.71
 -11   0  -5   13.18    2.88
  11   1   3   63.25    8.92
  11  -1   4    4.99    1.66
 -11  -1  -4    6.93    2.84
  11   1   4    6.57    2.72
 -11   1  -4    6.69    1.74
 -11  -1  -5    8.43    3.00
  11   1   5    1.87    2.51
 -11  -1  -6   21.98    4.34
  11   1   6   22.10    4.18
 -11  -2  -3    9.08    4.34
  11   2   3    3.32    4.01
 -11  -2  -4   37.91    6.24
  11   2   4   28.10    5.07
 -11  -2  -5    5.80    3.20
  11   2   5    0.04    3.32
 -11  -2  -7    5.31    3.20
  11   2   7    4.38    3.16
  11   3   3  112.68   15.37
 -11   3  -3   88.43   10.95
 -11  -3  -4   21.17    4.95
  11   3   4   25.95    5.23
 -11  -3  -6   10.62    3.49
  11   3   6    8.31    3.61
 -11  -3  -8    3.77    3.93
  11  -4   2    2.39    2.31
 -11   4  -2    7.38    2.31
  11  -4   3    5.68    2.76
 -11  -4  -3    1.62    4.46
  11   4   3    5.07    4.70
 -11   4  -3    8.31    2.43
  11  -4   4    4.42    2.51
 -11  -4  -4    0.36    3.65
 -11   4  -4   -0.69    2.19
 -11  -4  -5   -0.93    3.37
  11   4   5    4.18    3.97
 -11  -4  -6    7.79    4.01
  11   4   6    2.68    3.69
 -11  -4  -7    6.24    3.49
  11   4   7    0.08    3.08
 -11  -4  -8    7.10    4.01
  11   4   8    8.72    4.01
 -11  -4  -9    7.30    4.83
  11  -5   1  231.00   28.59
 -11  -5  -3  272.80   34.51
  11   5   3  298.15   37.51
 -11   5  -3  312.13   37.99
  11  -5   4    8.07    3.20
 -11  -5  -4    4.78    4.10
 -11  -5  -6   20.23    5.68
  11   5   6   11.60    4.30
 -11  -5  -7  199.70   25.50
  11   5   7  189.03   24.13
 -11  -5  -8  102.38   14.39
  11   5   8  116.09   15.69
  11   5   9   15.08    4.83
  11  -6   0   21.98    4.78
  11  -6   1    9.69    3.20
 -11   6  -1    8.19    2.88
  11  -6   2   18.49    4.01
  11   6   2    8.27    5.27
 -11   6  -2   21.57    4.18
  11  -6   3    7.34    3.24
 -11  -6  -3    4.95    4.78
  11   6   3   13.14    5.39
 -11   6  -3    9.65    3.00
  11  -6   4    1.09    3.37
 -11  -6  -4    8.51    4.66
  11   6   4    0.57    4.26
 -11   6  -4    0.77    2.96
 -11  -6  -5    2.39    3.97
  11   6   5    2.96    3.85
 -11  -6  -6    8.23    4.42
  11   6   6    5.92    4.22
 -11  -6  -7    1.34    4.22
  11   6   7    0.57    3.89
 -11  -6  -8   10.22    4.74
  11   6   8   16.34    4.99
 -11  -6 -10    4.50    4.62
  11   6  10    2.03    3.61
 -11  -6 -11   15.08    5.07
  11  -7   0    5.03    3.20
 -11   7   0   -0.08    2.84
  11  -7   1    8.31    3.41
 -11   7  -1    5.72    2.84
  11  -7   2   20.76    4.66
 -11  -7  -2   24.21    6.73
  11   7   2   32.36    7.38
 -11   7  -2   27.86    5.43
  11  -7   3    7.83    3.53
 -11  -7  -3    7.74    5.47
  11   7   3    5.47    4.38
 -11   7  -3    6.65    3.20
  11  -7   4    0.00    3.53
 -11  -7  -4    3.61    4.66
  11   7   4    3.16    4.34
 -11   7  -4    3.57    3.41
 -11  -7  -5   27.33    6.57
  11   7   5   12.12    4.95
 -11  -7  -7    1.70    4.74
  11   7   7    4.22    4.26
 -11  -7  -8    1.78    4.46
  11   7   8    3.97    3.97
 -11  -7  -9    5.39    4.46
  11   7   9    7.99    4.42
 -11  -7 -10   14.31    5.07
  11   7  10   23.88    5.76
 -11  -7 -11   19.38    5.51
  11   7  11   17.96    5.11
 -11  -7 -12    7.66    4.34
  11  -8   0    8.92    3.81
 -11   8   0    1.18    2.88
  11  -8   1   25.30    5.07
 -11   8   1   22.67    4.99
  11  -8  -1   14.84    4.62
 -11   8  -1   21.37    4.58
  11  -8   2  109.80   14.76
 -11  -8  -2   66.70   11.56
  11   8   2  114.71   16.67
 -11   8  -2   88.96   12.20
  11  -8   3    0.85    3.49
 -11  -8  -3    3.37    5.27
  11   8   3    2.72    4.50
 -11   8  -3    8.03    3.45
  11  -8   4   21.04    5.43
 -11  -8  -4   32.07    7.54
  11   8   4   11.47    5.43
 -11   8  -4   15.69    4.62
 -11  -8  -5    8.27    5.15
  11   8   5   31.91    7.22
 -11   8  -5   16.46    5.43
 -11  -8  -6  120.39   17.11
  11   8   6   98.90   14.48
 -11  -8  -7    6.24    5.43
  11   8   7    5.80    4.78
 -11  -8  -8   28.79    6.97
  11   8   8   54.90    9.37
 -11  -8  -9   -5.27    4.10
  11   8   9    2.03    4.14
 -11  -8 -10  145.97   19.91
  11   8  10  193.86   25.46
 -11  -8 -11    3.04    3.69
  11   8  11    2.60    3.41
 -11  -8 -13    3.69    3.85
  11  -9   0    0.81    3.37
 -11   9   0    3.12    3.04
  11  -9   1   13.54    4.50
 -11   9   1   25.59    5.39
  11  -9  -1   16.42    4.46
 -11   9  -1   10.46    3.81
  11  -9   2   10.79    4.38
 -11   9   2    2.43    3.53
 -11  -9  -2    3.37    6.08
  11   9   2    4.99    5.51
  11  -9  -2   -0.41    3.53
 -11   9  -2   -0.77    3.28
  11  -9   3   14.11    4.66
 -11  -9  -3   18.90    6.89
  11   9   3   24.00    6.81
 -11   9  -3   13.66    4.38
  11  -9   4    6.77    4.70
 -11  -9  -4    2.27    5.39
  11   9   4    2.80    5.07
 -11   9  -4    6.16    4.14
  11  -9   5    6.08    5.11
 -11  -9  -5    0.81    4.95
  11   9   5    8.92    4.99
 -11   9  -5    1.95    4.87
 -11  -9  -6    3.61    5.19
  11   9   6   -1.66    4.42
 -11  -9  -7    2.51    5.03
  11   9   7    0.41    4.70
 -11  -9  -8   12.45    5.96
  11   9   8   11.39    4.91
 -11  -9  -9    0.77    3.97
  11   9   9    2.15    4.10
 -11  -9 -10   -0.93    3.85
  11   9  10    2.47    3.57
 -11  -9 -11   -2.11    3.41
  11   9  11    4.05    3.73
 -11  -9 -12    5.11    3.65
  11   9  12    5.15    3.69
 -11  -9 -13    0.16    3.61
  11   9  13   -1.46    3.81
  11 -10   0    0.41    3.61
 -11  10   0    0.12    3.28
  11 -10   1   26.64    6.28
 -11  10   1   25.46    5.43
 -11  10  -1   34.14    6.57
 -11  10   2   16.75    4.91
 -11 -10  -2    9.41    6.97
  11  10   2    8.11    6.08
 -11  10  -2    5.23    4.10
  11 -10   3    3.16    4.34
 -11 -10  -3   26.36    7.70
  11  10   3   10.26    5.72
  11 -10  -3    6.41    4.10
 -11  10  -3    2.07    3.97
  11 -10   4   16.38    5.84
 -11 -10  -4   19.50    7.14
  11  10   4    3.85    5.84
 -11  10  -4    0.32    4.42
  11 -10   5   18.21    6.37
 -11 -10  -5   20.80    6.73
  11  10   5   20.44    6.37
 -11  10  -5   16.95    6.08
 -11 -10  -6  129.75   18.73
  11  10   6  106.60   16.06
 -11 -10  -7    8.15    5.51
  11  10   7    1.46    4.87
 -11 -10  -8    4.10    5.39
  11  10   8   17.76    5.92
 -11 -10  -9    2.68    3.89
  11  10   9   -1.09    3.77
 -11 -10 -10   33.74    7.42
  11  10  10   17.92    5.51
 -11 -10 -11    3.89    3.97
  11  10  11    9.41    4.42
 -11 -10 -12   -1.46    3.24
  11  10  12    0.77    4.05
 -11 -10 -13    0.77    3.97
  11  10  13    1.30    3.81
 -11 -10 -14   -2.51    3.37
  11 -11   0    8.56    4.58
 -11  11   0    1.34    4.30
  11 -11   1   22.30    6.04
 -11  11   1   10.02    4.14
  11  11   1    7.99    6.81
  11 -11  -1    7.83    4.38
 -11  11  -1    0.20    4.54
 -11  11   2    0.53    3.53
 -11 -11  -2   10.02    6.89
  11  11   2   -1.99    5.88
  11 -11  -2   -0.57    3.57
 -11  11  -2    2.43    4.22
  11 -11   3    8.31    5.51
 -11  11   3    3.65    4.01
 -11 -11  -3    2.03    6.37
  11  11   3   -0.04    5.64
  11 -11  -3    6.89    4.26
 -11  11  -3   10.87    4.87
  11 -11   4   14.84    5.88
 -11  11   4   11.84    5.15
 -11 -11  -4   24.29    8.19
  11  11   4    7.42    6.20
  11 -11  -4   42.33    8.15
 -11  11  -4   13.87    5.72
  11 -11   5    3.85    5.84
 -11 -11  -5   19.30    7.01
  11  11   5    6.33    5.76
 -11  11  -5   26.96    7.26
 -11 -11  -6    6.45    5.60
  11  11   6    6.69    5.64
 -11 -11  -7   -1.18    4.50
  11  11   7    3.53    4.58
 -11 -11  -8   -2.84    5.15
  11  11   8    1.09    4.30
 -11 -11  -9    6.45    4.30
  11  11   9    4.34    4.05
 -11 -11 -10    3.93    3.73
  11  11  10    6.73    4.01
 -11 -11 -11   -1.18    3.49
  11  11  11    1.14    3.73
 -11 -11 -12    4.05    3.97
  11  11  12   -1.18    3.65
 -11 -11 -13   -0.32    3.45
  11  11  13   -0.69    3.61
 -11 -11 -14    2.55    3.73
  11  11  14    1.09    3.69
 -11 -11 -15    3.69    3.93
  11 -12   0   -6.00    4.62
 -11  12   0    2.92    4.70
  11 -12   1   13.42    5.60
 -11  12   1   21.13    5.72
 -11 -12  -1   36.86    9.85
  11  12   1   41.44   10.38
  11 -12  -1   29.96    6.57
 -11  12  -1   24.09    6.57
  11 -12   2   11.68    5.88
 -11  12   2    3.32    4.05
 -11 -12  -2   10.66    7.30
  11  12   2   17.96    7.42
  11 -12  -2   10.58    4.78
 -11  12  -2    9.93    5.11
  11 -12   3    1.91    5.23
 -11  12   3   -0.97    4.14
 -11 -12  -3    1.54    6.28
  11  12   3    3.65    5.96
  11 -12  -3    3.32    4.30
 -11  12  -3    0.89    4.87
  11 -12   4   58.27   10.50
 -11  12   4   62.12   10.42
 -11 -12  -4  105.95   16.79
  11  12   4   50.44   10.70
  11 -12  -4   77.04   11.96
 -11  12  -4   54.78    9.89
  11 -12   5    3.00    5.43
 -11  12   5   -0.16    4.30
 -11 -12  -5    1.14    5.43
  11  12   5    4.01    5.31
  11 -12  -5    5.51    4.95
 -11  12  -5    0.12    5.11
 -11 -12  -6    7.14    5.51
  11  12   6    5.88    5.56
 -11  12  -6    2.55    4.83
 -11 -12  -7   -2.76    4.26
  11  12   7    0.89    4.74
 -11 -12  -8    0.81    4.34
  11  12   8    0.32    4.46
 -11 -12  -9    7.18    4.58
  11  12   9    9.93    4.87
 -11 -12 -10   14.60    5.43
  11  12  10   15.77    5.35
 -11 -12 -11    5.19    4.05
  11  12  11   10.26    4.95
 -11 -12 -12    0.73    3.77
  11  12  12    0.77    3.97
 -11 -12 -13    3.04    3.69
  11  12  13    1.30    3.97
 -11 -12 -14   -1.82    3.16
  11  12  14    3.65    3.61
 -11 -12 -15    2.55    4.26
  11 -13   0    9.08    5.64
 -11  13   0    2.96    4.91
  11 -13   1  460.62   57.58
 -11  13   1  403.16   50.48
 -11 -13  -1  496.30   63.01
  11  13   1  514.14   65.20
  11 -13  -1  315.46   40.02
 -11  13  -1  357.43   45.25
  11 -13   2   12.25    5.68
 -11  13   2    3.08    4.10
 -11 -13  -2    0.32    7.26
  11  13   2   15.53    7.34
  11 -13  -2    8.03    4.62
 -11  13  -2    0.16    4.74
  11 -13   3    1.42    5.35
 -11  13   3   13.62    5.39
 -11 -13  -3    5.51    6.28
  11  13   3   -2.31    5.47
  11 -13  -3    8.88    4.74
 -11  13  -3    0.53    4.62
  11 -13   4   23.36    7.06
 -11  13   4   25.95    6.65
 -11 -13  -4   22.02    7.79
  11  13   4    9.73    6.89
  11 -13  -4   20.48    5.92
  11 -13   5    9.69    5.15
 -11  13   5    2.76    4.54
 -11 -13  -5   -0.57    5.68
  11  13   5   11.80    6.24
  11 -13  -5    5.64    4.50
 -11  13  -5   15.29    6.12
 -11 -13  -6    6.73    5.60
  11  13   6   11.64    6.00
  11 -13  -6   26.15    6.69
 -11  13  -6    9.89    5.64
 -11 -13  -7    7.54    5.15
  11  13   7    1.42    4.62
 -11 -13 -10    9.24    4.66
  11  13  10    1.42    4.05
 -11 -13 -11    8.51    4.83
  11  13  11   11.56    5.15
 -11 -13 -12    1.82    3.77
  11  13  12    7.10    4.50
 -11 -13 -13   14.15    5.51
  11  13  13    2.51    3.73
 -11 -13 -14    0.81    3.57
  11  13  14   -2.43    3.81
  11 -14   0   -2.03    4.54
 -11  14   0    4.26    5.43
  11 -14   1    4.70    5.31
 -11  14   1   14.39    5.56
 -11 -14  -1    7.91    7.18
  11  14   1   -2.07    6.93
  11 -14  -1    0.08    4.66
 -11  14  -1    1.87    4.70
  11 -14   2    4.22    4.66
 -11  14   2    4.83    4.26
 -11 -14  -2    6.16    6.73
  11  14   2    2.31    6.37
  11 -14  -2    5.51    4.50
 -11  14  -2    2.19    4.46
  11 -14   3    7.14    5.43
 -11  14   3   13.30    5.11
 -11 -14  -3    4.34    5.88
  11  14   3    2.39    5.96
  11 -14  -3    3.77    4.30
 -11  14  -3   -2.64    4.83
  11 -14   4    3.81    5.31
 -11  14   4   -3.69    3.69
 -11 -14  -4   -0.73    5.39
  11  14   4   -4.34    5.76
  11 -14  -4    8.43    4.66
 -11  14  -4    3.41    4.66
  11 -14   5    0.08    4.70
 -11  14   5    0.24    4.14
 -11 -14  -5    2.64    5.68
  11  14   5   -3.93    4.83
  11 -14  -5    3.28    4.26
 -11  14  -5    3.28    4.99
  11 -14   6    1.91    5.19
 -11  14   6   -0.93    3.53
 -11 -14  -6    4.58    5.23
  11  14   6    4.58    5.27
  11 -14  -6    5.03    4.66
 -11  14  -6   -2.07    4.74
 -11 -14  -7   -1.58    4.18
  11  14   7    3.69    4.30
  11 -14  -7   -1.01    3.81
 -11 -14  -8    3.45    4.50
  11  14   8    8.39    4.91
 -11 -14  -9    6.45    4.66
  11  14   9    2.92    4.50
 -11 -14 -10    1.87    4.46
  11  14  10   -4.05    3.77
 -11 -14 -11   -4.87    3.93
  11  14  11   -0.81    3.73
 -11 -14 -12   -0.32    3.61
  11  14  12   -1.78    3.73
 -11 -14 -13   -1.01    3.65
  11  14  13   -3.16    3.61
 -11 -14 -14    2.19    3.89
  11  14  14    0.28    3.69
  11  15   0   20.84    7.99
  11 -15   0   -2.43    4.26
 -11  15   0    2.43    4.78
  11 -15   1    2.55    4.54
 -11  15   1    1.30    4.66
 -11 -15  -1    4.46    6.69
  11  15   1   11.43    7.34
  11 -15  -1    9.16    4.83
 -11  15  -1    9.37    4.91
  11 -15   2    4.54    4.42
 -11  15   2    1.22    4.70
 -11 -15  -2   12.85    6.97
  11  15   2   15.45    7.42
  11 -15  -2    4.22    4.38
 -11  15  -2    1.82    4.42
  11 -15   3    1.62    4.70
 -11  15   3    1.91    3.89
 -11 -15  -3    2.39    5.35
  11  15   3   -1.18    5.27
  11 -15  -3    8.27    4.70
 -11  15  -3    4.54    4.62
  11 -15   4   17.64    6.28
 -11  15   4    1.95    3.93
 -11 -15  -4   19.67    7.42
  11  15   4    3.00    6.08
  11 -15  -4   10.75    4.78
 -11  15  -4   14.03    5.47
  11 -15   5    6.12    4.87
 -11  15   5   -0.32    3.69
 -11 -15  -5   -0.69    4.95
  11  15   5    3.57    5.23
  11 -15  -5    4.38    3.73
 -11  15  -5   -0.93    4.87
  11 -15   6    0.12    4.99
 -11  15   6    8.43    4.38
 -11 -15  -6   16.50    6.24
  11  15   6    7.38    5.72
  11 -15  -6    6.08    4.01
 -11  15  -6    6.93    5.39
 -11  15   7    8.68    4.78
 -11 -15  -7   25.18    7.34
  11  15   7   12.77    6.12
  11 -15  -7    3.85    3.97
 -11 -15  -8    4.91    4.91
  11  15   8    9.89    5.31
  11 -15  -8    7.79    4.46
 -11 -15  -9    3.81    4.46
  11  15   9    5.35    4.42
 -11 -15 -10   -1.30    4.46
  11  15  10    0.00    3.85
 -11 -15 -11    6.53    4.30
  11  15  11    5.19    4.14
 -11 -15 -12    3.28    3.93
  11  15  12   -2.80    3.93
 -11 -15 -13   -0.85    3.81
  11  15  13    3.32    4.05
  11  16   0    4.10    6.04
  11 -16   0    2.43    4.22
 -11  16   0   -3.85    4.01
  11 -16   1    3.53    4.42
 -11  16   1    3.37    4.54
 -11 -16  -1    1.09    6.69
  11  16   1   -2.64    6.00
  11 -16  -1    3.97    4.42
 -11  16  -1    3.73    4.34
  11 -16   2    8.88    4.91
 -11  16   2    0.04    4.14
 -11 -16  -2   26.60    8.47
  11  16   2   12.37    6.97
  11 -16  -2    5.72    4.34
 -11  16  -2   -1.74    4.10
  11 -16   3   -0.32    4.78
 -11  16   3    2.47    3.49
 -11 -16  -3   -0.12    5.35
  11  16   3    1.58    5.31
  11 -16  -3    7.42    4.14
 -11  16  -3    1.46    4.34
  11 -16   4   15.33    5.68
 -11  16   4    7.34    4.05
 -11 -16  -4   14.11    6.65
  11  16   4   21.21    7.95
  11 -16  -4    6.77    4.38
 -11  16  -4    7.26    4.87
  11 -16   5    5.80    4.99
 -11  16   5    7.26    4.30
 -11 -16  -5   13.50    6.37
  11  16   5    5.92    5.15
  11 -16  -5    2.07    3.93
 -11  16  -5   12.37    6.28
  11 -16   6   15.61    6.45
 -11  16   6    2.92    3.97
 -11 -16  -6    5.23    5.15
  11  16   6   10.66    5.80
  11 -16  -6    9.29    4.62
 -11  16  -6    3.45    4.66
 -11  16   7    0.16    3.93
 -11 -16  -7   20.60    6.97
  11  16   7    7.22    5.43
  11 -16  -7   10.75    4.83
 -11  16   8    2.76    4.30
 -11 -16  -8   -1.42    3.89
  11  16   8   -1.09    4.22
  11 -16  -8    2.76    4.18
 -11 -16  -9    2.35    4.18
  11  16   9    2.15    4.74
  11 -16  -9    1.46    4.42
 -11 -16 -10    3.16    4.70
  11  16  10    7.14    5.07
 -11 -16 -11   -1.26    3.77
  11  16  11    7.54    4.46
 -11 -16 -12    2.96    4.05
  11  16  12   -0.57    3.57
 -11 -16 -13    2.39    3.93
  11  16  13    5.80    4.34
  11  17   0   15.12    7.30
 -11 -17   0   14.64    7.42
  11 -17   0   -5.27    4.05
 -11  17   0   -1.46    4.18
  11 -17   1   27.65    7.10
 -11  17   1    9.57    4.83
 -11 -17  -1    4.22    6.61
  11  17   1    8.60    6.73
  11 -17  -1    8.96    4.74
 -11  17  -1   11.39    5.27
  11 -17   2    1.09    4.01
 -11  17   2    5.03    4.05
 -11 -17  -2   -0.53    5.56
  11  17   2    0.85    5.80
  11 -17  -2   -3.57    3.65
 -11  17  -2    0.16    4.01
  11 -17   3    6.65    4.83
 -11  17   3    1.87    3.57
 -11 -17  -3    0.65    5.35
  11  17   3   -0.53    5.11
  11 -17  -3   -2.55    3.57
 -11  17  -3   -1.95    4.30
  11 -17   4   -4.74    4.18
 -11  17   4    6.16    4.05
 -11 -17  -4    3.00    5.35
  11  17   4   -4.26    5.19
  11 -17  -4   -0.77    3.77
 -11  17  -4    0.08    3.73
  11 -17   5    0.65    4.18
 -11  17   5    0.89    3.81
 -11 -17  -5    2.84    4.66
  11  17   5    4.87    5.35
  11 -17  -5    2.88    4.10
 -11  17  -5    0.61    4.18
  11 -17   6    2.11    4.22
 -11  17   6    2.51    4.05
 -11 -17  -6    0.97    4.78
  11  17   6    4.95    4.95
  11 -17  -6    2.03    3.57
 -11  17  -6   -1.50    3.93
 -11  17   7    1.26    3.49
 -11 -17  -7   -0.41    3.93
  11  17   7   -1.34    4.14
  11 -17  -7    0.32    3.81
 -11  17  -7    5.72    4.38
 -11  17   8    4.54    4.34
 -11 -17  -8   -3.49    3.85
  11  17   8   -1.62    3.97
  11 -17  -8    1.22    4.10
 -11  17   9    0.45    4.10
 -11 -17  -9   -0.57    3.93
  11  17   9   -0.69    3.85
  11 -17  -9    1.05    4.18
 -11 -17 -10    0.65    4.74
  11  17  10    7.01    4.66
  11 -17 -10    0.12    4.05
 -11 -17 -11    6.69    4.78
  11  17  11    2.27    4.18
 -11 -17 -12    1.62    3.85
  11  17  12   -0.73    3.45
  11  18   0    1.99    5.76
 -11 -18   0    3.28    5.92
  11 -18   0    5.96    4.14
 -11  18   0   -4.22    3.49
  11 -18   1    4.34    4.46
 -11  18   1    3.28    4.14
 -11 -18  -1    4.78    6.20
  11  18   1    4.58    5.96
  11 -18  -1    0.49    3.89
 -11  18  -1   11.27    5.03
  11 -18   2    4.50    4.54
 -11  18   2   16.14    5.47
 -11 -18  -2    8.11    6.24
  11 -18  -2    6.57    4.38
 -11  18  -2    7.26    4.54
  11 -18   3    0.77    3.81
 -11  18   3    3.04    4.10
 -11 -18  -3    1.46    4.91
  11  18   3   -2.31    4.42
  11 -18  -3    2.51    4.05
 -11  18  -3    0.36    4.22
  11 -18   4    9.04    5.03
 -11 -18  -4    7.95    5.39
  11  18   4    1.91    5.23
  11 -18  -4    7.34    4.66
 -11  18  -4    6.81    4.42
  11 -18   5    2.92    4.14
 -11  18   5    1.30    3.73
 -11 -18  -5    0.00    4.14
  11  18   5    0.73    4.46
  11 -18  -5    2.60    3.93
 -11  18  -5    1.22    3.81
  11 -18   6   12.98    5.47
 -11  18   6    6.65    4.54
 -11 -18  -6    3.24    4.42
  11  18   6    5.23    4.91
  11 -18  -6   -0.36    3.77
 -11  18  -6    0.00    4.14
 -11  18   7    1.58    4.05
 -11 -18  -7    1.50    4.22
  11  18   7   -0.69    4.58
  11 -18  -7   -0.69    3.81
 -11  18  -7    1.38    4.14
 -11  18   8    2.68    4.26
 -11 -18  -8   -3.45    3.77
  11  18   8    4.46    4.26
  11 -18  -8   -0.93    3.73
 -11  18   9   -0.93    3.77
 -11 -18  -9    2.68    3.97
  11  18   9    2.72    4.22
  11 -18  -9    3.85    4.01
 -11  18  10   22.67    6.85
 -11 -18 -10   38.72    8.88
  11  18  10   24.69    7.38
  11 -18 -10   27.61    7.91
 -11 -18 -11    4.10    4.70
  11  18  11    2.11    4.14
  11 -18 -11    0.53    4.34
  11  19   0    4.05    5.23
 -11 -19   0    5.80    5.51
  11 -19   0    5.39    4.42
 -11  19   0    2.35    4.22
  11 -19   1    4.66    4.58
 -11  19   1    1.30    3.97
  11  19  -1   11.56    6.16
 -11 -19  -1    2.35    4.74
  11  19   1    6.65    6.04
  11 -19  -1   -1.34    4.18
 -11  19  -1    5.15    4.30
  11 -19   2    0.32    4.18
 -11  19   2   -2.92    3.65
 -11 -19  -2    1.09    5.39
  11  19   2    2.84    4.62
  11 -19  -2    0.20    3.77
 -11  19  -2    1.05    3.81
  11 -19   3    5.43    4.58
 -11  19   3    4.38    4.26
 -11 -19  -3    3.77    5.27
  11  19   3    1.38    4.54
  11 -19  -3    3.20    4.30
 -11  19  -3   10.54    5.31
  11 -19   4    0.77    4.14
 -11  19   4    5.92    3.97
 -11 -19  -4    0.45    4.10
  11  19   4    1.26    4.95
  11 -19  -4    0.49    3.61
 -11  19  -4    0.65    3.77
  11 -19   5    1.58    3.85
 -11  19   5    2.92    3.65
 -11 -19  -5   -0.73    4.14
  11  19   5    4.66    4.95
  11 -19  -5    1.46    3.85
 -11  19  -5    5.84    4.10
  11 -19   6    1.05    4.18
 -11  19   6    4.74    4.22
 -11 -19  -6    0.36    4.54
  11  19   6    3.57    4.70
  11 -19  -6    1.46    4.22
 -11  19  -6    4.78    4.18
  11 -19   7   -0.85    4.05
 -11  19   7   -0.93    3.65
 -11 -19  -7    1.78    4.18
  11  19   7   -1.74    4.05
  11 -19  -7    2.96    4.05
 -11  19  -7    5.27    4.10
 -11  19   8    4.34    4.54
 -11 -19  -8    5.19    4.22
  11  19   8    0.97    4.05
  11 -19  -8    0.77    3.77
 -11  19   9   -0.12    3.65
 -11 -19  -9   -1.58    3.93
  11  19   9    2.51    4.05
  11 -19  -9    3.97    4.01
 -11  19  10   -0.85    3.69
 -11 -19 -10   -2.84    3.49
  11  19  10   -1.66    3.81
  11 -19 -10    3.45    4.14
 -11 -19 -11    4.66    5.31
  11  19  11   -1.18    4.18
  11  20   0   -0.28    5.19
 -11 -20   0   -1.09    5.19
  11 -20   0    0.65    4.18
 -11  20   0    5.84    4.14
  11 -20   1    1.01    3.77
 -11  20   1    4.83    4.14
  11  20  -1    6.57    5.47
 -11 -20  -1   -2.23    4.50
  11  20   1    0.45    5.03
  11 -20  -1   -0.73    3.93
 -11  20  -1    1.46    3.97
  11 -20   2   -0.12    3.89
 -11  20   2    6.00    4.42
 -11 -20  -2    1.66    4.70
  11  20   2    2.80    4.26
  11 -20  -2    0.53    4.26
 -11  20  -2    3.81    4.10
  11 -20   3    4.62    4.26
 -11  20   3    7.22    4.58
 -11 -20  -3    1.30    4.74
  11  20   3   18.17    6.41
  11 -20  -3   22.54    6.85
 -11  20  -3    3.89    4.18
  11 -20   4    3.77    4.01
 -11  20   4    1.74    4.01
 -11 -20  -4   -2.51    4.91
  11  20   4    2.47    4.83
  11 -20  -4    0.20    4.14
 -11  20  -4   -1.99    3.61
  11 -20   5    9.00    5.23
 -11  20   5   15.25    5.64
 -11 -20  -5   18.21    6.16
  11  20   5    2.68    4.58
  11 -20  -5   12.57    5.60
 -11  20  -5   18.37    5.80
  11 -20   6    1.30    4.30
 -11  20   6    0.24    3.53
 -11 -20  -6   -3.28    4.54
  11  20   6    2.51    4.18
  11 -20  -6    2.68    3.93
 -11  20  -6    6.81    4.50
  11 -20   7    0.41    4.50
 -11  20   7    2.43    4.10
 -11 -20  -7    1.62    4.38
  11  20   7    3.08    4.70
  11 -20  -7   10.42    5.56
 -11  20  -7    1.18    4.78
 -11  20   8   11.39    5.03
 -11 -20  -8   -0.81    4.38
  11  20   8    4.99    5.23
  11 -20  -8    5.60    4.54
 -11  20   9    7.30    4.83
 -11 -20  -9   -0.69    4.01
  11  20   9   -4.38    3.69
  11 -20  -9    4.54    4.05
 -11  20  10    3.28    4.38
 -11 -20 -10   -2.72  513.74
  11  20  10   -2.23    4.30
  11  21   0    3.81    5.03
 -11 -21   0    7.10    5.31
  11 -21   0    2.43    4.42
 -11  21   0    4.66    4.34
  11 -21   1   14.15    5.39
 -11  21   1    9.33    4.78
  11  21  -1    3.32    5.07
 -11 -21  -1    6.81    5.11
  11  21   1    2.96    4.78
  11 -21  -1    1.74    4.22
 -11  21  -1    5.31    4.38
  11 -21   2    2.47    4.01
 -11  21   2    1.30    3.93
 -11 -21  -2    3.04    4.46
  11  21   2    6.20    4.66
  11 -21  -2    7.70    4.54
 -11  21  -2    1.58    3.61
  11 -21   3   -2.39    4.38
 -11  21   3    3.04    4.18
 -11 -21  -3    0.85    4.62
  11  21   3    4.05    4.34
  11 -21  -3    3.41    4.34
 -11  21  -3    3.45    4.42
  11 -21   4    5.68    4.54
 -11  21   4    2.92    3.93
 -11 -21  -4    7.26    5.23
  11  21   4    0.69    5.31
  11 -21  -4    3.81    4.46
 -11  21  -4    3.37    4.38
  11 -21   5   16.87    6.28
 -11  21   5    3.32    4.26
 -11 -21  -5    4.42    5.19
  11  21   5    4.05    4.83
  11 -21  -5    5.88    4.62
 -11  21  -5    4.05    4.46
  11 -21   6    0.00    4.22
 -11  21   6    1.22    3.61
 -11 -21  -6    6.73    5.19
  11  21   6    2.96    4.18
  11 -21  -6    0.49    3.81
 -11  21  -6    3.73    4.70
  11 -21   7   16.71    6.24
 -11  21   7    7.38    4.99
 -11 -21  -7    2.31    4.18
  11  21   7    7.01    4.87
  11 -21  -7   14.15    5.47
 -11  21  -7    8.35    5.07
 -11  21   8    2.27    4.05
 -11 -21  -8    2.55    4.22
  11  21   8    6.20    4.95
  11 -21  -8    2.51    4.58
 -11  21  -8    3.65    4.05
 -11  21   9   -0.69    3.97
 -11 -21  -9    0.08    4.34
  11  21   9    1.09    3.85
  11 -21  -9    1.26    3.85
  11  22   0   -0.24    4.95
 -11 -22   0   -0.73    5.27
  11 -22   0    2.19    4.66
 -11  22   0   -0.36    3.85
  11 -22   1    2.96    3.85
 -11  22   1   -0.93    3.57
  11  22  -1    4.26    5.27
 -11 -22  -1   -0.93    4.74
  11  22   1   -0.32    4.87
 -11 -22   1   -1.18    4.95
  11 -22  -1    1.30    3.73
 -11  22  -1   -0.73    3.45
  11 -22   2    5.19    4.30
 -11  22   2    3.81    4.42
 -11 -22  -2   -3.49    4.95
  11  22   2    5.11    5.15
  11 -22  -2    0.16    4.18
 -11  22  -2    1.99    3.65
  11 -22   3    6.85    4.66
 -11  22   3    2.55    3.73
 -11 -22  -3   -0.81    4.83
  11  22   3   -1.54    4.70
  11 -22  -3   -0.85    4.18
 -11  22  -3    0.81    4.10
  11 -22   4    2.76    4.38
 -11  22   4   -5.15    3.61
 -11 -22  -4    3.45    5.03
  11  22   4    4.10    5.19
  11 -22  -4   -3.41    3.73
 -11  22  -4    7.50    4.91
  11 -22   5   -2.84    4.46
 -11  22   5   -0.28    3.65
 -11 -22  -5    0.16    4.05
  11  22   5   -4.42    3.81
  11 -22  -5   -5.60    3.85
 -11  22  -5    2.07    3.89
  11 -22   6    5.11    4.58
 -11  22   6    2.92    3.85
 -11 -22  -6    8.68    5.27
  11  22   6    0.77    4.18
  11 -22  -6    1.74    3.81
 -11  22  -6    3.41    4.18
  11 -22   7    0.32    4.22
 -11  22   7    2.76    3.97
 -11 -22  -7   -3.12    3.77
  11  22   7   -2.96    4.05
  11 -22  -7   -1.38    3.77
 -11  22  -7    3.57    4.30
 -11  22   8    5.68    4.58
 -11 -22  -8   -3.08   11.84
  11  22   8   -0.45    4.26
  11 -22  -8    7.91    4.95
 -11  22  -8    1.95    4.91
  11  23   0   26.32    8.19
 -11 -23   0    2.96    5.23
  11 -23   0   -2.80    4.26
 -11  23   0    0.41    3.97
  11 -23   1    5.68    4.74
 -11  23   1    1.34    4.10
  11  23  -1   -0.20    4.99
 -11 -23  -1    8.15    5.43
  11  23   1    1.01    4.99
 -11 -23   1    3.77    5.39
  11 -23  -1    4.74    4.46
 -11  23  -1    1.99    3.97
  11 -23   2   -1.34    4.01
 -11  23   2   -1.18    4.38
 -11 -23  -2    1.78    4.83
  11  23   2   -0.81    4.38
  11 -23  -2    1.18    3.97
 -11  23  -2    0.65    3.53
  11 -23   3    5.15    4.83
 -11  23   3    4.87    4.34
 -11 -23  -3    3.77    4.91
  11  23   3    0.69    4.62
  11 -23  -3    4.74    4.46
 -11  23  -3   -1.74    3.77
  11 -23   4    5.11    4.58
 -11  23   4    4.22    4.34
 -11 -23  -4    2.68    4.74
  11  23   4   -2.92    4.46
  11 -23  -4    2.60    4.10
 -11  23  -4    5.31    4.78
  11 -23   5    2.19    4.26
 -11  23   5    6.57    4.42
 -11 -23  -5   -0.32    4.22
  11  23   5   -3.93    4.01
  11 -23  -5   19.46    6.37
 -11  23  -5    9.16    5.23
  11 -23   6    1.87    4.05
 -11  23   6    2.07    3.69
 -11 -23  -6   -2.47    4.05
  11  23   6   -4.26    4.05
  11 -23  -6   -0.41    4.01
 -11  23  -6    3.61    4.38
  11 -23   7    2.96    4.91
 -11  23   7   -2.27    3.73
  11  23   7    1.54    5.43
  11  24   0   -1.01    4.78
 -11 -24   0    2.27    5.11
  11 -24   0    0.61    4.26
 -11  24   0   -2.51    3.85
  11 -24   1    0.12    4.26
 -11  24   1    3.49    4.26
  11  24  -1    0.36    5.07
 -11 -24  -1    3.81    5.15
  11  24   1    2.47    5.11
 -11 -24   1   -0.81    4.70
  11 -24  -1    0.97    4.46
 -11  24  -1    4.78    3.97
  11 -24   2    3.73    4.46
 -11  24   2    2.15    4.10
  11  24  -2    3.41    5.23
 -11 -24  -2    2.64    4.66
  11  24   2    3.97    4.62
  11 -24  -2   -0.53    4.14
 -11  24  -2    6.77    4.58
  11 -24   3    0.28    4.54
 -11  24   3   -0.36    3.65
 -11 -24  -3   -1.34    4.46
  11  24   3    8.27    4.99
  11 -24  -3   -4.58    3.69
 -11  24  -3   -0.41    3.89
  11 -24   4    1.74    4.54
 -11  24   4    0.49    4.18
 -11 -24  -4   -2.23    4.14
  11  24   4    3.24    5.03
  11 -24  -4   -0.12    4.10
 -11  24  -4    2.68    4.34
  11 -24   5    1.95    4.58
 -11  24   5   -0.85    3.85
 -11 -24  -5    0.65    3.93
  11  24   5   -0.24    4.58
  11 -24  -5    1.82    4.46
 -11  24  -5   -1.99    3.89
  11  25   0    4.66    4.87
  11 -25   0    3.69    4.78
 -11  25   0   -0.32    4.22
  11 -25   1    6.69    5.03
 -11  25   1    3.32    4.10
  11  25  -1   11.35    6.69
  11  25   1    1.05    4.62
  11 -25  -1    6.08    5.19
 -11  25  -1   -1.58    3.73
  11 -25   2    5.60    4.95
 -11  25   2   -0.69    4.54
  11  25  -2    1.42    5.07
  11  25   2    5.27    5.35
  11 -25  -2    0.61    4.54
 -11  25  -2    2.19    4.42
  12   0   4  746.48   90.10
 -12   0  -4  770.00   92.98
  12   0   5  609.43   73.55
 -12   0  -5  637.41   76.96
 -12   0  -6   55.39    7.58
  12  -1   4   40.83    5.43
 -12  -1  -4   40.55    6.20
  12   1   4   46.26    6.97
 -12   1  -4   46.31    6.08
 -12  -1  -5    6.16    2.92
  12   1   5    4.58    3.04
 -12   1  -5    3.32    1.78
 -12  -1  -6    4.91    2.72
  12   1   6    8.92    2.76
 -12  -1  -7   64.63    9.08
 -12  -2  -4   24.73    4.99
  12   2   4   22.50    4.95
 -12  -2  -7   33.33    5.60
  12   2   7   39.05    6.24
  12   3   3  171.80   22.18
  12  -3   4    6.33    1.91
  12   3   4   13.30    4.74
 -12   3  -4    3.37    1.34
 -12  -3  -6  110.37   14.72
  12   3   6  114.14   15.08
 -12  -3  -8   30.37    6.28
  12   3   8   20.76    4.95
  12  -4   3    7.34    2.31
 -12  -4  -3   11.80    4.95
  12   4   3    9.00    4.99
 -12   4  -3    6.24    1.95
  12  -4   4    9.93    2.51
  12   4   4   25.91    6.28
 -12   4  -4    9.04    2.47
 -12  -4  -5    4.50    3.65
  12   4   5    8.96    4.01
 -12  -4  -6    4.54    4.22
  12   4   6    3.73    4.38
 -12  -4  -7   42.01    7.22
  12   4   7   33.74    6.24
 -12  -4  -8   13.42    4.38
  12   4   8    6.49    3.73
 -12  -4  -9    1.18    4.14
  12   4   9   10.46    4.38
  12  -5   2  126.87   16.02
 -12   5  -2  199.37   24.57
  12  -5   3   50.32    7.18
 -12  -5  -3   58.55    9.77
  12   5   3   38.28    7.54
 -12   5  -3   56.08    7.54
  12   5   4  131.17   17.92
 -12   5  -4  132.71   16.62
 -12  -5  -6   78.74   11.72
  12   5   6  127.24   17.11
 -12  -5  -7  698.23   85.31
  12   5   7  692.55   84.38
 -12  -5  -8   42.33    7.74
  12   5   8   22.83    5.39
 -12  -5  -9   17.92    5.27
 -12  -5 -10   22.67    5.80
  12   5  10   23.72    5.47
  12  -6   1   21.13    4.42
 -12   6  -1   17.19    3.89
  12  -6   2    4.58    2.68
 -12   6  -2    1.05    2.51
  12  -6   3    8.43    3.28
 -12  -6  -3    9.65    5.35
  12   6   3   -0.85    4.54
 -12   6  -3    4.54    2.88
  12  -6   4    4.95    3.16
  12   6   4    8.47    5.07
 -12   6  -4   -1.74    2.92
 -12  -6  -5    2.31    4.30
  12   6   5    4.18    4.01
 -12  -6  -6    8.92    4.87
  12   6   6   21.86    5.64
 -12  -6  -7   41.24    8.27
  12   6   7   39.13    7.87
 -12  -6  -8   38.76    7.54
  12   6   8   21.04    5.35
 -12  -6  -9    6.81    4.66
  12   6   9    8.11    4.05
 -12  -6 -10   -4.95    3.20
  12   6  10    1.01    3.32
 -12  -6 -11    5.92    3.85
  12  -7   0  577.40   70.39
 -12   7   0  542.52   66.13
  12   7   2   59.16   10.34
 -12   7  -2   82.27   11.07
  12  -7   3    9.69    3.69
 -12  -7  -3   15.12    6.20
  12   7   3   16.67    5.80
 -12   7  -3    3.97    3.16
 -12  -7  -4   21.25    6.49
  12   7   4   45.13    8.72
 -12   7  -4   21.90    4.95
 -12  -7  -5    0.65    4.54
  12   7   5    2.51    4.14
 -12   7  -5    0.65    4.10
 -12  -7  -6   75.82   11.96
  12   7   6   81.05   12.25
 -12  -7  -7   -0.53    4.87
  12   7   7    1.70    4.38
 -12  -7  -8   66.58   10.87
  12   7   8   71.69   10.87
 -12  -7  -9    0.53    4.10
  12   7   9    5.39    4.18
 -12  -7 -10   42.25    7.74
  12   7  10   38.36    7.10
 -12  -7 -11    2.64    3.45
  12   7  11    3.12    3.37
 -12  -7 -12    7.14    4.18
  12  -8   0   65.40    9.53
 -12   8   0   85.92   11.80
 -12   8   1  654.03   79.80
  12  -8  -1  540.50   66.17
  12  -8   2  237.04   29.76
 -12  -8  -2  160.53   22.30
  12   8   2  147.23   20.44
  12  -8   3  239.76   30.13
 -12  -8  -3  230.03   30.33
  12   8   3  330.18   42.05
  12  -8   4   89.41   12.65
 -12  -8  -4  102.59   15.41
  12   8   4  104.82   15.53
 -12   8  -4  104.77   14.48
  12  -8   5  207.64   26.52
 -12  -8  -5  246.33   32.03
  12   8   5  211.98   27.65
 -12   8  -5  170.46   22.38
 -12  -8  -6    7.34    5.19
  12   8   6   21.21    6.24
 -12  -8  -8   46.59    9.00
  12   8   8   34.83    7.18
 -12  -8  -9  177.64   23.60
  12   8   9  171.52   22.67
 -12  -8 -10    2.19    3.77
  12   8  10    1.74    3.57
 -12  -8 -11   29.68    6.53
  12   8  11   58.27    9.77
 -12  -8 -12   25.59    6.24
  12   8  12   17.88    5.35
 -12  -8 -13   26.27    6.45
  12  -9   0    9.93    3.85
 -12   9   0    2.55    3.16
  12  -9   1    1.54    3.28
 -12   9   1    1.30    3.28
  12  -9  -1   -3.49    3.08
 -12   9  -1   -4.14    3.20
  12  -9   2    2.27    3.77
 -12  -9  -2    6.00    6.12
  12   9   2    4.30    5.68
  12  -9  -2    5.60    4.05
 -12   9  -2    5.15    3.77
  12  -9   3    2.07    3.77
 -12  -9  -3    9.77    6.41
  12   9   3    9.04    5.92
 -12   9  -3    5.15    3.81
  12  -9   4    5.27    4.70
 -12  -9  -4   10.38    5.96
  12   9   4   15.77    6.93
 -12   9  -4    7.79    4.95
  12  -9   5    3.08    4.91
 -12  -9  -5   11.80    6.00
  12   9   5    4.62    5.03
 -12   9  -5   18.69    5.76
 -12  -9  -6    2.96    5.39
  12   9   6    5.03    5.03
 -12  -9  -7   13.22    6.04
  12   9   7   14.76    5.51
 -12  -9  -8   -0.97    4.99
  12   9   8    1.38    4.26
 -12  -9  -9    5.76    4.22
  12   9   9    4.91    3.89
 -12  -9 -10   -0.97    3.69
  12   9  10    8.23    4.10
 -12  -9 -11    1.50    3.73
  12   9  11    7.79    4.01
 -12  -9 -12    0.81    3.24
  12   9  12   -1.46    3.24
 -12  -9 -13    2.51    3.97
  12   9  13    1.82    3.93
 -12  -9 -14    0.61    3.85
  12 -10   0    2.47    3.57
 -12  10   0   -0.61    3.16
  12 -10   1    4.50    4.01
 -12  10   1    6.49    3.61
  12 -10  -1    2.03    3.57
 -12  10  -1    4.99    3.93
  12 -10   2  179.34   23.40
 -12  10   2  213.24   27.37
 -12 -10  -2  128.29   19.54
  12  10   2  220.46   29.64
  12 -10  -2  211.41   27.13
 -12  10  -2  159.39   21.00
  12 -10   3   33.53    7.01
 -12 -10  -3   52.02   10.87
  12  10   3   62.16   12.25
  12 -10  -3   48.29    8.43
 -12  10  -3   42.25    7.66
  12 -10   4   51.50    9.16
 -12 -10  -4   50.28   10.14
  12  10   4   49.55   10.26
  12 -10   5  174.92   23.15
 -12 -10  -5  210.64   28.34
  12  10   5  178.21   24.21
 -12  10  -5  181.73   24.04
 -12 -10  -6   45.90    9.41
  12  10   6   20.64    6.73
 -12 -10  -7   19.06    6.16
  12  10   7   26.15    6.53
 -12 -10  -8   15.45    5.96
  12  10   8   13.58    5.27
 -12 -10  -9    5.27    4.22
  12  10   9    0.77    3.65
 -12 -10 -10    5.76    4.26
  12  10  10   -0.20    3.45
 -12 -10 -11    2.35    3.65
  12  10  11    5.11    4.01
 -12 -10 -12    9.73    4.46
  12  10  12   13.34    5.23
 -12 -10 -13    0.93    3.57
  12  10  13    2.47    3.57
 -12 -10 -14    2.84    4.30
  12  10  14    5.56    4.30
 -12 -10 -15   -0.41    3.97
  12 -11   0    6.00    4.10
 -12  11   0    5.92    4.14
  12 -11   1   25.14    6.53
 -12  11   1    7.46    3.85
  12 -11  -1   10.42    4.54
 -12  11  -1    2.84    4.38
  12 -11   2   39.86    8.03
 -12  11   2   12.12    4.83
 -12 -11  -2   16.42    7.70
  12  11   2   35.48    9.65
 -12  11  -2   20.31    5.80
  12 -11   3    1.58    4.58
 -12  11   3    0.93    4.26
 -12 -11  -3    3.69    6.93
  12  11   3    1.42    5.27
  12 -11  -3    0.20    4.22
 -12  11  -3   10.30    4.70
  12 -11   4    1.34    5.07
 -12 -11  -4    2.64    6.08
  12  11   4   15.57    7.38
  12 -11  -4   -7.79    4.18
 -12  11  -4    6.89    5.27
  12 -11   5    4.38    4.62
 -12 -11  -5    4.46    5.43
  12  11   5    1.01    5.03
 -12  11  -5   -3.16    4.42
 -12 -11  -6    6.33    5.27
  12  11   6    7.66    5.35
 -12  11  -6   12.25    5.43
 -12 -11  -7    5.68    4.95
  12  11   7    9.73    4.95
 -12 -11  -8   24.90    6.69
  12  11   8    6.04    4.74
 -12 -11  -9   14.84    5.88
  12  11   9   15.08    5.27
 -12 -11 -10    3.12    4.01
  12  11  10    4.46    4.05
 -12 -11 -11   -1.70    3.53
  12  11  11    7.50    4.26
 -12 -11 -12    5.72    3.93
  12  11  12    1.05    3.77
 -12 -11 -13    4.99    3.73
  12  11  13   -0.12    3.65
 -12 -11 -14    6.49    4.30
  12  11  14   -1.46    3.28
 -12 -11 -15   -0.53    4.14
  12  11  15   -0.20    4.34
  12 -12   0  179.26   23.68
 -12  12   0  137.13   18.77
  12 -12   1  243.28   31.51
 -12  12   1  208.98   27.09
  12  12   1  201.20   28.02
  12 -12  -1  194.18   25.38
 -12  12  -1  248.60   32.03
  12 -12   2    4.38    5.23
 -12  12   2    6.97    4.58
 -12 -12  -2   -0.53    6.89
  12  12   2    6.93    6.69
  12 -12  -2   10.46    4.87
 -12  12  -2   12.98    5.19
  12 -12   3  102.95   14.92
 -12  12   3  133.20   18.45
 -12 -12  -3   79.64   13.95
  12  12   3   79.47   13.50
  12 -12  -3   95.53   13.91
 -12  12  -3  110.21   15.77
  12 -12   4    6.73    5.03
 -12  12   4    9.61    5.19
 -12 -12  -4   18.08    6.97
  12  12   4   46.02   10.10
  12 -12  -4   12.49    5.11
 -12  12  -4   10.30    5.47
 -12 -12  -5  104.49   16.18
  12  12   5  110.69   16.71
  12 -12  -5  119.70   17.07
 -12  12  -5  152.82   20.96
 -12 -12  -6   18.08    6.37
  12  12   6   13.26    5.88
 -12  12  -6    7.58    5.11
 -12 -12  -7   19.95    6.65
  12  12   7   26.48    6.85
 -12 -12  -8   -4.22    4.01
  12  12   8    2.55    4.30
 -12 -12  -9   67.02   11.76
  12  12   9   69.82   11.84
 -12 -12 -10    4.54    4.30
  12  12  10    1.91    3.73
 -12 -12 -11    0.93    3.85
  12  12  11    4.78    4.26
 -12 -12 -12   -0.41    3.57
  12  12  12    0.89    4.10
 -12 -12 -13    2.96    3.85
  12  12  13    6.69    4.30
 -12 -12 -14    1.09    3.69
  12  12  14    3.65    3.89
  12 -13   0 1925.60  233.11
 -12  13   0 1861.53  225.36
  12 -13   1   44.03    8.72
 -12  13   1   38.68    7.95
  12 -13  -1   23.36    6.33
 -12  13  -1   24.90    6.73
  12 -13   2   22.22    6.69
 -12  13   2   38.80    7.95
  12  13   2   40.67    9.69
  12 -13  -2   42.29    8.27
  12 -13   3  137.78   19.14
 -12  13   3  114.71   16.38
 -12 -13  -3  112.03   17.76
  12  13   3  192.03   26.56
  12 -13  -3   94.31   13.95
 -12  13  -3  131.58   18.33
  12 -13   4   11.96    5.56
 -12  13   4    6.93    4.78
 -12 -13  -4   36.82    9.00
  12 -13  -4    4.74    4.34
 -12  13  -4    4.95    4.87
  12 -13   5   42.94    8.60
 -12  13   5   13.91    5.23
 -12 -13  -5   19.22    6.77
  12  13   5    8.80    5.68
  12 -13  -5   20.31    6.00
  12 -13   6  186.88   25.18
 -12 -13  -6  249.53   33.21
  12  13   6  212.79   28.99
  12 -13  -6  271.42   35.68
 -12  13  -6  237.45   31.18
 -12 -13  -7   57.37   10.66
  12  13   7   56.32   10.79
 -12 -13  -8  147.96   21.17
  12  13   8  129.02   18.85
 -12 -13  -9   23.27    6.77
  12  13   9    9.33    5.27
 -12 -13 -10    7.06    4.74
  12  13  10    3.20    3.97
 -12 -13 -11   10.38    5.19
  12  13  11    2.07    4.14
 -12 -13 -12    8.23    4.46
  12  13  12   10.14    4.99
 -12 -13 -13    7.42    4.42
  12  13  13   -1.34    3.77
  12 -14   0   13.62    5.68
 -12  14   0    9.85    5.23
  12 -14   1    3.49    4.50
 -12  14   1    8.39    4.99
 -12 -14  -1   -2.19    6.20
  12  14   1    5.03    6.69
  12 -14  -1    4.66    4.54
 -12  14  -1   11.11    5.27
  12 -14   2   16.46    6.04
 -12  14   2    6.08    4.34
 -12 -14  -2   -0.53    6.28
  12  14   2    2.55    6.41
  12 -14  -2   -2.92    4.10
 -12  14  -2    6.28    4.70
  12 -14   3    3.89    4.50
 -12  14   3    9.65    5.07
  12  14   3    2.80    5.68
  12 -14  -3   20.76    6.08
 -12  14  -3    1.74    4.05
  12 -14   4    5.19    4.91
 -12  14   4    3.24    4.42
 -12 -14  -4    7.50    6.24
  12  14   4   -1.95    6.00
  12 -14  -4    0.28    4.10
 -12  14  -4    6.49    5.39
  12 -14   5    4.01    4.78
 -12  14   5    3.28    3.81
 -12 -14  -5   -1.70    5.35
  12  14   5    5.03    5.56
  12 -14  -5    3.04    3.77
 -12  14  -5   -0.93    4.01
  12 -14   6    5.11    5.23
 -12  14   6    8.11    4.54
 -12 -14  -6    7.42    5.31
  12  14   6    9.41    5.47
  12 -14  -6    4.10    3.97
 -12  14  -6    8.64    5.51
 -12 -14  -7    3.61    4.91
  12  14   7    3.45    4.50
 -12 -14  -8    2.35    4.54
  12  14   8    0.53    4.22
 -12 -14  -9    1.74    4.05
  12  14   9    3.61    4.10
 -12 -14 -10    0.08    4.22
  12  14  10    4.14    4.38
 -12 -14 -11    1.70    4.22
  12  14  11    1.09    3.93
 -12 -14 -12    3.97    4.05
  12  14  12   -0.28    3.85
 -12 -14 -13   -0.53    3.49
  12  14  13    3.08    4.18
  12 -15   0   11.64    5.19
 -12  15   0    2.72    4.38
  12 -15   1    3.04    4.34
 -12  15   1   -1.58    4.05
 -12 -15  -1    3.73    6.08
  12  15   1   -0.69    6.00
  12 -15  -1    5.60    4.38
 -12  15  -1    0.69    3.65
  12 -15   2   22.79    6.28
 -12  15   2   16.75    5.51
 -12 -15  -2   25.26    8.31
  12  15   2    9.61    6.97
  12 -15  -2   15.45    5.31
 -12  15  -2   11.88    4.99
  12 -15   3   -0.28    4.50
 -12  15   3    1.82    3.53
 -12 -15  -3    1.70    5.72
  12  15   3    8.43    6.41
  12 -15  -3    4.42    4.01
 -12  15  -3    3.45    4.14
  12 -15   4    9.77    5.60
 -12  15   4    1.22    3.41
 -12 -15  -4    6.97    6.08
  12  15   4   24.94    8.19
  12 -15  -4    3.00    3.61
 -12  15  -4    3.57    4.95
  12 -15   5   -0.20    4.14
 -12  15   5    2.27    3.45
 -12 -15  -5    5.80    5.43
  12  15   5   -0.24    4.87
  12 -15  -5    3.37    3.69
 -12  15  -5    7.06    4.66
  12 -15   6   31.63    7.42
 -12  15   6   16.06    5.27
 -12 -15  -6   20.84    7.06
  12  15   6   22.50    6.81
  12 -15  -6   18.49    5.60
 -12  15  -6   36.53    8.23
 -12  15   7    4.38    3.97
 -12 -15  -7    3.65    4.74
  12  15   7    0.32    4.78
  12 -15  -7   -0.28    3.61
 -12  15  -7   -1.95    4.10
 -12 -15  -8    3.81    4.74
  12  15   8    4.10    4.42
 -12 -15  -9    3.12    4.46
  12  15   9   -2.27    3.89
 -12 -15 -10    4.01    4.70
  12  15  10    5.19    4.26
 -12 -15 -11   -3.97    3.89
  12  15  11    1.01    3.89
 -12 -15 -12    2.51    3.77
  12  15  12   -3.00    4.14
 -12 -15 -13    0.85    3.77
  12  15  13    4.34    4.05
  12  16   0    5.23    7.06
  12 -16   0   14.72    5.39
 -12  16   0    4.74    4.50
  12 -16   1   23.48    6.45
 -12  16   1   27.57    6.73
 -12 -16  -1   32.88    9.45
  12  16   1   31.14    9.29
  12 -16  -1   24.57    6.37
 -12  16  -1    9.69    4.62
  12 -16   2   15.25    5.60
 -12  16   2   17.72    5.51
 -12 -16  -2   22.10    7.83
  12  16   2   10.50    6.93
  12 -16  -2   19.22    5.51
 -12  16  -2   15.41    5.60
  12 -16   3    3.93    4.87
 -12  16   3    0.97    3.41
 -12 -16  -3   24.69    7.91
  12  16   3    0.41    4.99
  12 -16  -3   -1.70    3.49
 -12  16  -3    3.08    4.05
  12 -16   4   10.79    5.23
 -12  16   4   25.14    6.00
 -12 -16  -4   14.84    7.01
  12  16   4    5.88    6.41
  12 -16  -4   13.02    4.87
  12 -16   5   14.80    5.43
 -12  16   5   22.63    6.08
  12  16   5   14.48    6.57
  12 -16  -5   11.11    4.54
 -12  16  -5    9.77    4.99
  12 -16   6    2.31    4.26
 -12  16   6    3.32    3.97
 -12 -16  -6    1.26    4.58
  12  16   6    0.20    4.50
  12 -16  -6    4.10    3.73
 -12  16  -6   -0.93    4.01
 -12  16   7    2.60    3.85
 -12 -16  -7    4.83    4.58
  12  16   7    0.04    4.38
  12 -16  -7   -4.78    3.69
 -12  16  -7    3.89    4.87
 -12 -16  -8    5.80    4.42
  12  16   8   -3.57    4.10
  12 -16  -8   -3.41    3.93
 -12 -16  -9   10.42    5.23
  12  16   9    7.58    4.83
 -12 -16 -10    1.42    4.05
  12  16  10   -2.68    3.81
 -12 -16 -11    3.77    4.34
  12  16  11    3.08    4.50
 -12 -16 -12    2.55    4.05
  12  16  12    7.38    4.26
  12  17   0  111.75   18.61
  12 -17   0  138.31   19.62
 -12  17   0   97.88   14.96
  12 -17   1    4.42    4.30
 -12  17   1   -3.45    3.69
 -12 -17  -1    5.27    6.08
  12  17   1    5.39    5.96
  12 -17  -1    2.76    3.93
 -12  17  -1    5.51    4.10
  12 -17   2    5.15    4.38
 -12  17   2    3.28    3.93
 -12 -17  -2    3.77    5.56
  12  17   2    4.70    5.72
  12 -17  -2    7.22    4.58
 -12  17  -2    7.01    4.46
  12 -17   3    4.54    4.46
 -12  17   3    1.26    3.49
 -12 -17  -3    2.11    5.11
  12  17   3    9.69    5.47
  12 -17  -3    8.43    4.14
 -12  17  -3    7.54    4.70
  12 -17   4    1.54    4.10
 -12  17   4    4.54    3.85
 -12 -17  -4    6.37    5.39
  12  17   4    5.07    5.39
  12 -17  -4    1.78    3.49
 -12  17  -4   -2.39    4.10
  12 -17   5   -3.89    3.73
 -12  17   5   -0.77    3.49
 -12 -17  -5    1.14    4.74
  12  17   5   -0.97    4.99
  12 -17  -5    2.64    3.89
 -12  17  -5   -1.91    3.45
  12 -17   6    1.78    4.34
 -12  17   6    1.09    4.05
 -12 -17  -6    4.99    4.95
  12  17   6    6.69    5.07
  12 -17  -6    1.09    3.61
 -12  17  -6    4.62    4.62
 -12  17   7    5.56    4.42
 -12 -17  -7    4.78    4.18
  12  17   7    2.88    4.74
  12 -17  -7   -2.55    3.93
 -12  17  -7    4.18    4.18
 -12  17   8    1.50    4.01
 -12 -17  -8    0.61    4.05
  12  17   8    4.42    4.66
  12 -17  -8   -3.28    4.05
 -12 -17  -9    3.69    4.46
  12  17   9   -1.01    3.53
  12 -17  -9   -0.12    3.93
 -12 -17 -10    5.03    4.42
  12  17  10    4.83    4.38
 -12 -17 -11    1.26    4.30
  12  17  11    4.26    4.38
 -12 -17 -12   -1.18    3.53
  12  17  12    0.36    3.97
  12  18   0    4.46    5.76
 -12 -18   0    4.83    5.92
  12 -18   0    2.80    4.10
 -12  18   0   -0.57    4.01
  12 -18   1   80.49   13.02
 -12  18   1  106.72   16.02
 -12 -18  -1   81.82   14.39
  12  18   1   68.97   13.22
  12 -18  -1   88.72   14.11
 -12  18  -1   60.98   11.07
  12 -18   2   16.99    5.64
 -12  18   2    6.45    4.74
 -12 -18  -2    2.76    5.31
  12  18   2    9.45    5.96
  12 -18  -2   14.80    5.35
 -12  18  -2   13.46    5.51
  12 -18   3   17.92    5.92
 -12  18   3   24.61    6.33
 -12 -18  -3   25.59    7.54
  12  18   3   29.48    7.95
  12 -18  -3   10.95    4.99
 -12  18  -3   18.29    5.68
  12 -18   4   33.98    7.79
 -12  18   4   16.02    5.35
 -12 -18  -4   33.69    8.92
  12 -18  -4   16.18    5.72
 -12  18  -4   12.85    5.35
  12 -18   5   40.30    8.43
 -12  18   5   25.95    6.85
 -12 -18  -5   11.84    5.76
  12  18   5   21.04    7.22
  12 -18  -5   18.65    6.00
  12 -18   6    1.54    3.45
 -12  18   6    5.76    4.18
 -12 -18  -6   -2.84    3.81
  12  18   6    2.72    4.46
  12 -18  -6    2.76    3.69
 -12  18  -6    2.72    3.61
  12 -18   7   23.03    6.28
 -12  18   7   38.07    8.76
 -12 -18  -7   17.03    6.24
  12  18   7   20.44    6.45
  12 -18  -7   51.21    9.97
 -12  18  -7   19.50    6.04
 -12  18   8   13.95    5.64
 -12 -18  -8    9.85    5.51
  12  18   8   -2.84    4.50
  12 -18  -8    7.58    4.87
 -12  18   9   45.17    9.77
 -12 -18  -9   52.23   10.46
  12  18   9   83.49   14.11
  12 -18  -9   63.86   11.76
 -12 -18 -10    2.43    3.73
  12  18  10   -2.88    3.77
  12 -18 -10    0.49    4.38
 -12 -18 -11    7.38    4.87
  12  18  11   10.91    5.35
  12  19   0   -1.46    5.07
 -12 -19   0    1.95    5.60
  12 -19   0    0.61    3.77
 -12  19   0    5.56    3.81
  12 -19   1    0.53    3.85
 -12  19   1   -1.42    3.53
 -12 -19  -1   11.52    6.33
  12  19   1    3.12    5.47
  12 -19  -1   -1.05    3.61
 -12  19  -1    0.04    3.89
  12 -19   2    6.08    4.05
 -12  19   2    0.81    3.61
 -12 -19  -2    6.89    5.27
  12  19   2    0.00    4.78
  12 -19  -2    0.85    3.73
 -12  19  -2   -1.18    3.69
  12 -19   3    1.95    3.81
 -12  19   3    0.12    3.32
 -12 -19  -3    1.46    4.70
  12  19   3    3.49    4.26
  12 -19  -3    0.89    3.85
 -12  19  -3    3.53    3.93
  12 -19   4    3.89    4.30
 -12  19   4    5.60    3.93
 -12 -19  -4   11.52    5.84
  12  19   4    4.01    5.19
  12 -19  -4   -0.49    3.73
 -12  19  -4    2.96    3.93
 -12  19   5    5.88    3.97
 -12 -19  -5   -0.61    4.54
  12  19   5    1.91    4.95
  12 -19  -5    2.43    4.50
 -12  19  -5   -0.89    3.45
  12 -19   6    2.96    3.85
 -12  19   6   -0.73    3.73
 -12 -19  -6    4.42    4.62
  12  19   6    5.88    4.70
  12 -19  -6    7.18    4.83
 -12  19  -6   -1.91    3.97
  12 -19   7   -0.32    4.10
 -12  19   7   -4.46    3.32
 -12 -19  -7    1.95    4.30
  12  19   7    1.91    4.38
  12 -19  -7    2.03    3.69
 -12  19  -7   -1.14    4.38
 -12  19   8    3.04    4.30
 -12 -19  -8    3.12    4.18
  12  19   8    1.62    4.34
  12 -19  -8   -4.46    3.65
 -12  19   9    3.65    4.14
 -12 -19  -9    1.26    3.61
  12  19   9    1.50    4.01
  12 -19  -9    6.49    4.87
 -12  19  10    4.30    4.18
 -12 -19 -10   -1.26    3.81
  12  19  10   -3.00    3.65
  12 -19 -10   -1.50    3.89
  12  20   0    7.87    5.56
 -12 -20   0    7.58    5.39
  12 -20   0    1.34    3.97
 -12  20   0    5.60    4.05
  12 -20   1    1.05    4.26
 -12  20   1    4.42    4.54
 -12 -20  -1    3.37    4.99
  12  20   1    0.32    5.27
  12 -20  -1   10.95    5.27
 -12  20  -1    6.08    4.22
  12 -20   2   -2.88    3.69
 -12  20   2    1.09    3.97
 -12 -20  -2    3.93    4.74
  12  20   2    1.78    4.22
  12 -20  -2   -3.08    3.57
 -12  20  -2    0.93    3.69
  12 -20   3    6.93    4.30
 -12  20   3    6.41    4.38
 -12 -20  -3    5.88    4.99
  12  20   3    0.24    4.26
  12 -20  -3    4.62    4.70
 -12  20  -3    1.09    3.81
  12 -20   4   16.26    5.64
 -12  20   4    9.53    4.91
 -12 -20  -4    5.92    5.11
  12  20   4    9.37    6.08
  12 -20  -4    1.42    4.70
 -12  20  -4   12.81    5.15
  12 -20   5    5.35    4.38
 -12  20   5   16.62    5.92
 -12 -20  -5    4.74    5.11
  12  20   5   12.93    5.92
  12 -20  -5   -0.57    4.01
 -12  20  -5    8.80    4.78
  12 -20   6    6.08    4.58
 -12  20   6    4.18    3.81
 -12 -20  -6    2.03    3.97
  12  20   6    4.05    4.99
  12 -20  -6    5.68    4.50
 -12  20  -6    3.00    4.58
  12 -20   7   25.75    7.58
 -12  20   7   16.10    5.96
 -12 -20  -7   16.26    6.53
  12  20   7   11.19    5.88
  12 -20  -7   20.27    6.53
 -12  20  -7   42.78    9.29
 -12  20   8   -1.50    3.61
 -12 -20  -8    4.38    4.74
  12  20   8   -0.16    4.14
  12 -20  -8    6.45    4.70
 -12  20  -8    3.28    4.18
 -12  20   9   -1.30    3.73
 -12 -20  -9   -1.18    4.01
  12  20   9    6.33    4.34
  12 -20  -9   -0.49    3.53
  12  21   0    7.62    6.04
 -12 -21   0   15.53    7.01
  12 -21   0   25.02    6.77
 -12  21   0   22.34    6.37
  12 -21   1    1.09    4.01
 -12  21   1    6.20    4.14
  12  21  -1    0.49    4.66
 -12 -21  -1    0.77    4.38
  12  21   1    1.58    4.74
  12 -21  -1   -0.32    3.77
 -12  21  -1    0.45    3.65
  12 -21   2    3.04    4.01
 -12  21   2    7.01    4.38
 -12 -21  -2   -0.20    4.18
  12  21   2    0.28    4.83
  12 -21  -2    4.50    4.26
 -12  21  -2    0.45    3.69
  12 -21   3    3.41    4.26
 -12  21   3   -1.50    3.45
 -12 -21  -3   -3.89    4.14
  12  21   3   -2.96    4.30
  12 -21  -3   -2.92    4.14
 -12  21  -3   -3.04    3.65
  12 -21   4    8.64    5.23
 -12  21   4   10.54    5.23
 -12 -21  -4   12.61    6.57
  12  21   4    2.51    4.70
  12 -21  -4    2.55    3.93
 -12  21  -4   -4.62    4.10
  12 -21   5   -0.32    4.01
 -12  21   5    1.91    3.08
 -12 -21  -5    2.76    4.66
  12  21   5    0.28    4.78
  12 -21  -5    2.31    4.01
 -12  21  -5    1.30    3.81
  12 -21   6    8.64    4.95
 -12  21   6   18.85    6.20
 -12 -21  -6   14.68    6.33
  12  21   6    6.12    5.35
  12 -21  -6   24.77    7.26
 -12  21  -6    4.38    4.70
  12 -21   7   14.35    6.04
 -12  21   7    8.07    5.03
 -12 -21  -7   19.54    6.77
  12  21   7   26.96    7.87
  12 -21  -7   25.91    7.34
 -12  21  -7   28.38    7.46
 -12  21   8    3.81    4.22
 -12 -21  -8    4.58    4.30
  12  21   8    0.89    4.30
  12 -21  -8   -0.41    3.77
 -12  21  -8    2.27    4.46
  12  22   0    8.51    6.49
 -12 -22   0   10.18    6.45
  12 -22   0    2.68    4.30
 -12  22   0    3.65    4.54
  12 -22   1   -1.54    3.45
 -12  22   1    6.57    4.54
  12  22  -1   16.87    7.38
 -12 -22  -1    4.18    5.31
  12  22   1    2.11    5.31
  12 -22  -1    0.65    3.89
 -12  22  -1    1.87    3.81
  12 -22   2    1.38    4.01
 -12  22   2    5.96    4.26
 -12 -22  -2    1.74    4.66
  12  22   2    0.97    4.30
  12 -22  -2    4.74    4.26
 -12  22  -2   -1.34    3.37
  12 -22   3    1.30    4.10
 -12  22   3    5.35    4.18
 -12 -22  -3    2.15    5.11
  12  22   3    1.78    4.30
  12 -22  -3    2.68    4.54
 -12  22  -3    1.46    4.05
  12 -22   4   -0.20    4.10
 -12  22   4    2.47    3.97
 -12 -22  -4   -0.16    4.78
  12  22   4    1.01    4.78
  12 -22  -4    1.22    4.30
 -12  22  -4    2.55    4.34
  12 -22   5   -0.81    3.93
 -12  22   5    2.80    4.14
 -12 -22  -5    1.99    4.54
  12  22   5    0.61    4.62
  12 -22  -5    2.72    4.18
 -12  22  -5    3.24    3.81
  12 -22   6   -2.55    3.97
 -12  22   6    3.37    3.85
 -12 -22  -6   -3.12    4.38
  12  22   6    0.36    3.73
  12 -22  -6    2.15    4.26
 -12  22  -6    3.57    4.50
  12 -22   7    1.22    4.42
 -12  22   7    2.43    4.05
 -12 -22  -7   -0.20    3.81
  12  22   7    5.76    4.99
  12 -22  -7    2.60    4.01
 -12  22  -7   -1.66    4.05
  12  23   0   49.67   11.15
 -12 -23   0   55.59   11.88
  12 -23   0   36.70    8.68
  12 -23   1   -0.69    3.85
 -12  23   1    3.37    4.10
  12  23  -1   -0.89    4.83
 -12 -23  -1    0.16    4.74
  12  23   1   -1.70    4.58
 -12 -23   1    0.57    5.19
  12 -23  -1   -0.49    4.05
 -12  23  -1    1.34    4.30
  12 -23   2    1.70    4.01
 -12  23   2    4.34    3.97
 -12 -23  -2    1.42    5.15
  12  23   2   -0.41    4.58
  12 -23  -2    8.88    5.15
 -12  23  -2    4.34    4.42
  12 -23   3    1.30    4.34
 -12  23   3    1.38    4.22
 -12 -23  -3    0.12    4.14
  12  23   3   -1.46    4.14
  12 -23  -3    1.05    4.22
 -12  23  -3    6.69    4.46
  12 -23   4    3.69    4.54
 -12  23   4   -0.36    4.01
 -12 -23  -4    3.00    4.91
  12  23   4    3.37    4.78
  12 -23  -4    2.96    4.26
 -12  23  -4    1.54    4.26
  12 -23   5   -0.24    3.89
 -12  23   5    4.14    4.34
 -12 -23  -5   -4.22    4.22
  12  23   5   -0.53    4.38
  12 -23  -5   -1.78    3.77
 -12  23  -5   -0.81    3.73
  12 -23   6    7.14    5.31
 -12  23   6    3.04    3.85
 -12 -23  -6   10.54    6.37
  12  23   6    1.70    5.84
  12 -23  -6    6.16   11.23
 -12  23  -6    5.11    4.50
  12  24   0    6.24    5.31
 -12 -24   0   -4.42    5.15
  12 -24   0    5.11    5.11
 -12  24   0   -0.89    3.89
  12 -24   1    0.73    4.10
 -12  24   1    0.36    3.65
  12  24  -1    3.77    5.15
 -12 -24  -1   -3.12    4.78
  12  24   1   -2.27    4.74
 -12 -24   1   -0.20    4.99
  12 -24  -1    1.01    4.42
 -12  24  -1    2.03    3.77
  12 -24   2    1.38    4.14
 -12  24   2    2.64    4.18
 -12 -24  -2   -2.35    4.50
  12  24   2    3.85    4.22
  12 -24  -2    6.49    4.58
 -12  24  -2    1.82    3.85
  12 -24   3   -0.61    4.26
 -12  24   3   -3.93    3.53
 -12 -24  -3    0.77    4.26
  12  24   3   -1.26    4.18
  12 -24  -3   -0.20    4.14
 -12  24  -3    1.46    4.30
  12 -24   4    1.87    4.74
 -12  24   4   -1.42    3.53
 -12 -24  -4    3.57    5.39
  12  24   4   -2.60    3.69
  12 -24  -4   -1.54    4.42
 -12  24  -4    0.28    4.54
  13   0   5  717.28   86.57
 -13   0  -5  784.59   94.72
  13   0   6   80.65   10.38
 -13   0  -6   68.77    9.00
  13  -1   4   74.65    9.53
  13   1   4   68.89    9.53
  13  -1   5   13.79    2.47
 -13  -1  -5   12.57    3.37
  13   1   5   11.84    3.20
 -13   1  -5    8.43    2.15
 -13  -1  -6  400.20   48.74
  13   1   6  407.91   49.59
 -13  -1  -7    5.27    3.00
  13   1   7    7.50    3.12
 -13  -2  -4    9.49    4.14
  13   2   4   24.29    5.11
 -13  -2  -5   82.43   11.23
  13   2   5   48.58    7.38
 -13  -2  -6    8.68    3.69
  13   2   6    5.51    3.28
 -13  -2  -7   57.74    8.39
  13   2   7   60.33    8.64
 -13  -2  -8   18.29    4.58
  13  -3   4    4.38    1.42
 -13  -3  -4    7.46    4.38
  13   3   4   13.58    4.62
 -13  -3  -5   44.36    7.38
  13   3   5   50.52    8.07
 -13  -3  -6  182.42   23.27
  13   3   6  171.52   21.98
 -13  -3  -8   16.71    4.62
  13   3   8   23.80    5.07
 -13  -3  -9    4.95    3.97
  13  -4   3  119.82   14.88
  13   4   3  134.62   18.21
  13  -4   4   10.34    2.35
 -13  -4  -4    3.85    4.54
  13   4   4   16.34    5.27
 -13   4  -4    5.03    2.03
 -13  -4  -5    2.43    3.93
  13   4   5    8.47    4.14
 -13  -4  -6    9.24    4.30
  13   4   6   -0.08    4.01
 -13  -4  -7   77.36   11.27
  13   4   7   43.79    7.46
 -13  -4  -8    4.74    4.05
  13   4   8    2.11    3.45
 -13  -4  -9    1.42    3.57
  13   4   9   -1.46    3.12
 -13  -4 -10   -0.04    3.32
  13  -5   2 1734.62  208.82
  13  -5   3    5.51    2.43
  13   5   3    8.27    4.99
 -13   5  -3    8.51    2.35
  13  -5   4  336.67   40.99
 -13  -5  -4  455.35   56.48
  13   5   4  341.41   42.70
 -13   5  -4  320.81   39.01
 -13  -5  -5  231.53   29.68
  13   5   5  173.83   22.67
 -13   5  -5  161.74   20.19
 -13  -5  -7   14.48    5.47
  13   5   7    5.68    4.70
 -13  -5  -9    6.85    4.18
  13   5   9   12.65    4.26
  13   5  10    4.46    3.45
 -13  -5 -11    2.27    3.45
  13  -6   1   39.70    6.24
  13  -6   2   14.07    3.37
 -13   6  -2   15.65    3.49
  13  -6   3  123.02   15.85
 -13  -6  -3  178.57   23.80
  13   6   3  163.00   21.77
 -13   6  -3  162.31   20.23
  13  -6   4    3.20    3.16
 -13  -6  -4    2.27    4.87
  13   6   4   -0.65    4.30
 -13   6  -4    4.66    2.60
 -13  -6  -5   21.00    6.24
  13   6   5   14.84    5.23
 -13  -6  -6   11.15    5.47
  13   6   6    6.81    4.78
 -13  -6  -7  100.11   14.76
  13   6   7  128.09   17.48
 -13  -6  -8    3.12    4.26
  13   6   8    0.08    3.69
 -13  -6  -9   -1.58    3.61
  13   6   9   -0.61    3.32
 -13  -6 -10    4.99    3.65
  13   6  10    5.92    3.65
 -13  -6 -11   37.38    7.30
  13   6  11   18.04    4.87
 -13  -6 -12    0.32    3.49
  13  -7   1    7.18    3.08
 -13   7  -1    1.22    2.68
  13  -7   2   31.38    5.31
 -13   7  -2   32.19    5.35
  13  -7   3    9.45    3.57
 -13  -7  -3    7.42    5.84
  13   7   3    5.76    5.35
 -13   7  -3   10.54    3.97
  13  -7   4  161.34   20.56
 -13  -7  -4  190.53   25.50
  13   7   4  186.60   24.82
 -13   7  -4  194.99   24.53
  13  -7   5    1.70    3.73
 -13  -7  -5   -2.72    4.91
  13   7   5    0.28    4.58
 -13   7  -5    0.69    3.93
 -13  -7  -6   22.79    6.45
  13   7   6   17.44    5.60
 -13  -7  -7   12.93    5.31
  13   7   7    5.68    4.26
 -13  -7  -8    4.99    4.66
  13   7   8    5.92    3.93
 -13  -7  -9    7.18    4.18
  13   7   9    2.27    3.32
 -13  -7 -10   23.36    5.72
  13   7  10   29.64    6.16
 -13  -7 -11    4.91    3.49
  13   7  11    4.54    3.37
 -13  -7 -13    3.12    4.14
  13  -8   0    5.15    3.45
 -13   8   0    2.60    3.24
  13  -8   2   88.52   12.08
 -13   8  -2  108.91   14.39
  13  -8   3  314.61   39.01
 -13  -8  -3  318.14   41.16
  13   8   3  303.54   38.97
 -13   8  -3  376.93   46.43
  13  -8   4   94.60   13.22
 -13  -8  -4  110.29   16.46
  13   8   4   70.39   11.56
 -13   8  -4   67.92    9.93
  13  -8   5   18.57    4.99
  13   8   5   20.40    6.24
 -13   8  -5   24.73    5.84
 -13  -8  -6   25.34    6.81
  13   8   6   39.49    8.03
 -13  -8  -7   38.16    7.83
  13   8   7   46.47    8.51
 -13  -8  -8    3.81    4.74
  13   8   8    4.38    4.05
 -13  -8  -9   11.27    4.54
  13   8   9   14.07    4.42
 -13  -8 -10   12.85    4.70
  13   8  10    0.93    3.28
 -13  -8 -11    6.85    3.89
  13   8  11   13.54    4.58
 -13  -8 -12    7.70    4.10
  13   8  12   15.73    5.19
 -13  -8 -13   17.60    5.43
  13   8  13   27.41    6.81
 -13  -8 -14    0.36    4.22
  13  -9   0    2.88    3.20
 -13   9   0    3.41    3.32
  13  -9   1    8.51    3.73
 -13   9   1    3.24    3.53
  13  -9  -1    1.78    3.65
 -13   9  -1    2.60    2.96
  13  -9   2   10.50    4.26
 -13   9  -2    5.60    3.69
  13  -9   3    9.93    4.50
 -13  -9  -3    9.12    6.73
  13   9   3    1.66    5.72
 -13   9  -3    8.72    4.38
  13  -9   4   11.88    4.91
 -13  -9  -4   22.18    7.30
  13   9   4   15.94    6.20
 -13   9  -4   10.06    4.46
  13  -9   5    3.20    4.10
 -13  -9  -5    1.30    5.39
  13   9   5    1.82    4.78
 -13  -9  -6   10.18    5.31
  13   9   6   20.56    6.33
 -13  -9  -7    2.60    4.30
  13   9   7    3.16    4.22
 -13  -9  -8    1.46    4.46
  13   9   8    2.64    3.85
 -13  -9  -9    1.38    3.97
  13   9   9   -1.09    3.41
 -13  -9 -10   -1.34    3.53
  13   9  10    1.91    3.49
 -13  -9 -11   -0.12    3.28
  13   9  11   -3.20    3.16
 -13  -9 -12   22.54    5.96
  13   9  12   20.96    5.88
 -13  -9 -13   -1.99    3.20
  13   9  13    4.87    3.89
 -13  -9 -14    2.60    3.97
 -13  -9 -15    2.07    3.97
  13 -10   0   -0.04    3.65
 -13  10   0    3.89    3.49
  13 -10   1    6.00    3.77
 -13  10   1    2.23    3.85
  13 -10  -1   14.11    4.62
 -13  10  -1    9.04    4.01
  13 -10   2    9.69    4.70
 -13  10   2    9.20    4.62
 -13 -10  -2   19.34    7.83
  13  10   2   14.88    6.89
  13 -10  -2   15.04    4.99
 -13  10  -2   10.38    4.66
  13 -10   3 1000.71  121.56
 -13 -10  -3  984.49  120.91
  13  10   3 1132.08  138.39
  13 -10   4   58.27    9.69
 -13 -10  -4   68.53   12.04
  13  10   4   67.11   11.52
 -13  10  -4   74.65   11.31
  13 -10   5  303.01   37.99
 -13 -10  -5  303.66   39.21
 -13  10  -5  204.97   26.48
 -13 -10  -6    5.68    4.95
  13  10   6   23.03    6.53
 -13 -10  -8    4.78    4.42
  13  10   8    5.03    4.34
 -13 -10  -9   11.31    5.31
  13  10   9    9.37    4.26
 -13 -10 -10   -1.34    3.61
  13  10  10   -0.57    3.16
 -13 -10 -11    2.07    3.49
  13  10  11    9.81    4.66
 -13 -10 -12   10.14    4.54
  13  10  12   -2.27    3.12
 -13 -10 -13   12.81    4.91
  13  10  13   22.79    6.12
 -13 -10 -14    1.91    3.85
  13  10  14    1.87    3.77
  13 -11   0    3.81    3.93
 -13  11   0    1.42    3.49
  13 -11   1    5.19    4.74
 -13  11   1    6.08    4.22
  13 -11  -1    7.14    4.50
 -13  11  -1    4.18    4.26
  13 -11   2  102.30   14.72
 -13  11   2   65.48   10.46
 -13 -11  -2   46.02   10.95
  13  11   2   52.83   11.15
 -13  11  -2   73.55   11.43
  13 -11   3    7.14    4.99
 -13  11   3    4.42    4.50
 -13 -11  -3   10.70    6.69
  13  11   3    5.47    5.96
  13 -11  -3    5.56    4.66
 -13  11  -3    7.54    4.66
  13 -11   4    4.87    4.70
 -13 -11  -4   15.57    6.61
  13  11   4   14.23    5.88
 -13  11  -4   17.39    5.51
  13 -11   5   -2.96    3.97
 -13 -11  -5    5.72    5.60
  13  11   5   -4.01    5.07
 -13  11  -5    3.97    4.10
  13 -11   6   11.23    5.07
 -13 -11  -6   13.42    5.56
  13  11   6   13.38    5.43
 -13  11  -6   37.95    7.83
 -13 -11  -7    3.61    4.66
  13  11   7    6.73    4.78
 -13 -11  -8    3.61    4.34
  13  11   8    4.50    4.30
 -13 -11  -9    2.11    4.74
  13  11   9   -2.31    3.73
 -13 -11 -10   -0.28    3.73
  13  11  10    1.62    3.53
 -13 -11 -11    3.77    3.81
  13  11  11    2.19    3.61
 -13 -11 -12    4.58    3.97
  13  11  12    5.07    4.01
 -13 -11 -13   -0.49    3.81
  13  11  13    5.27    4.18
 -13 -11 -14    5.07    3.93
  13  11  14    6.85    4.54
  13 -12   0   -1.26    4.34
 -13  12   0   -3.04    4.38
  13 -12   1  213.97   27.98
 -13  12   1  145.44   19.67
  13 -12  -1  155.01   20.84
 -13  12  -1  167.87   22.42
  13 -12   2    9.37    5.19
 -13  12   2   13.26    5.31
 -13 -12  -2    2.19    6.28
  13  12   2    3.16    6.12
  13 -12  -2   11.76    4.74
 -13  12  -2   13.95    5.35
  13 -12   3   11.15    4.87
 -13 -12  -3    9.89    6.45
  13  12   3    3.69    5.92
  13 -12  -3   15.04    5.31
 -13  12  -3    0.85    4.22
  13 -12   4    7.38    4.83
 -13  12   4    0.36    4.10
 -13 -12  -4    7.10    5.60
  13  12   4    1.74    5.07
  13 -12  -4    4.99    4.30
 -13  12  -4    2.31    4.42
  13 -12   5   42.86    8.19
 -13 -12  -5   76.23   13.02
  13  12   5   49.06    9.85
 -13  12  -5   59.85   10.06
  13 -12   6    9.69    5.23
 -13 -12  -6   13.34    5.92
  13  12   6    5.11    5.15
 -13  12  -6    7.83    4.74
 -13 -12  -7    3.41    4.38
  13  12   7    9.16    5.31
 -13 -12  -8    2.23    3.85
  13  12   8    4.10    4.26
 -13 -12  -9    6.53    4.99
  13  12   9   -0.53    4.10
 -13 -12 -10    0.77    4.05
  13  12  10   -2.07    3.85
 -13 -12 -11   -1.34    3.69
  13  12  11    2.11    3.77
 -13 -12 -12    0.28    3.69
  13  12  12   -0.57    3.37
 -13 -12 -13    6.20    4.38
  13  12  13   14.31    5.23
 -13 -12 -14    0.61    3.57
  13  12  14    0.24    3.69
  13 -13   0    8.68    5.07
 -13  13   0    3.04    4.34
  13 -13   1   32.60    7.42
 -13  13   1   47.16    8.39
  13  13   1   25.26    8.60
  13 -13  -1   25.14    6.37
 -13  13  -1   35.93    7.54
 -13  13   2  188.91   25.10
 -13 -13  -2  135.87   20.60
  13  13   2  204.03   28.42
  13 -13  -2  199.41   26.23
 -13  13  -2  220.58   28.71
  13 -13   3   19.50    5.84
 -13  13   3    8.60    4.99
 -13 -13  -3   21.25    7.87
  13  13   3   20.80    7.70
  13 -13  -3   12.89    5.03
 -13  13  -3   12.49    5.15
  13 -13   4   41.52    8.23
 -13  13   4   43.22    8.27
 -13 -13  -4   47.12    9.93
  13  13   4   46.59    9.61
  13 -13  -4   40.71    7.91
 -13  13  -4   33.82    7.38
  13 -13   5    9.85    4.83
 -13 -13  -5   12.65    6.37
  13  13   5   11.27    6.12
  13 -13  -5   26.52    6.65
 -13  13  -5   14.92    5.47
  13 -13   6   42.41    8.51
 -13 -13  -6   80.20   13.50
  13  13   6   37.51    8.51
 -13 -13  -7   10.87    5.35
  13  13   7    6.08    5.03
 -13 -13  -8   75.90   12.73
  13  13   8   42.82    8.88
 -13 -13  -9   -0.49    3.77
  13  13   9   -1.58    3.61
 -13 -13 -10   38.84    8.39
  13  13  10   39.29    8.43
 -13 -13 -11    6.73    4.50
  13  13  11   23.60    6.65
 -13 -13 -12    1.38    3.69
  13  13  12    2.80    4.01
 -13 -13 -13    9.57    4.58
  13  13  13    3.49    3.89
  13 -14   0    0.24    4.54
 -13  14   0    3.28    4.58
  13 -14   1   -0.45    4.26
 -13  14   1    2.19    4.10
  13  14   1    1.78    6.28
  13 -14  -1    3.97    3.97
 -13  14  -1    1.74    3.93
  13 -14   2    3.77    4.34
 -13  14   2    3.61    3.97
 -13 -14  -2   -3.12    5.72
  13  14   2    6.00    6.45
  13 -14  -2   10.38    4.58
 -13  14  -2    1.50    3.81
  13 -14   3   53.36    9.29
 -13  14   3   41.97    8.03
 -13 -14  -3   48.29   10.91
  13  14   3   29.56    8.35
  13 -14  -3   36.86    7.26
 -13  14  -3   55.27    9.65
  13 -14   4   -2.03    4.22
 -13  14   4    2.92    3.65
 -13 -14  -4    6.28    5.76
  13  14   4   -2.76    4.87
  13 -14  -4    2.15    3.41
 -13  14  -4   -1.74    4.42
  13 -14   5   39.17    8.23
 -13  14   5   24.37    6.16
 -13 -14  -5   27.17    8.03
  13  14   5   33.37    8.72
  13 -14  -5   31.83    6.97
 -13  14  -5   33.65    7.42
  13 -14   6   -0.16    4.34
 -13 -14  -6    5.15    4.95
  13  14   6    1.14    4.34
  13 -14  -6    3.45    3.93
 -13  14  -6    5.11    4.62
 -13 -14  -7   10.22    5.56
  13  14   7   14.84    6.04
 -13  14  -7    8.68    4.54
 -13 -14  -8    1.14    4.10
  13  14   8    1.09    3.85
 -13 -14  -9    5.39    4.42
  13  14   9   -0.57    3.85
 -13 -14 -10   -3.00    3.65
  13  14  10   -2.07    3.97
 -13 -14 -11   14.68    5.80
  13  14  11   17.07    5.84
 -13 -14 -12   -1.50    3.32
  13  14  12    1.38    3.77
 -13 -14 -13    4.87    4.34
  13  14  13    3.04    4.26
  13 -15   0   11.23    4.87
 -13  15   0   -0.85    3.69
  13 -15   1   -1.26    4.01
 -13  15   1   -1.18    3.57
 -13 -15  -1   14.23    7.34
  13  15   1    3.45    5.96
  13 -15  -1   -1.18    3.65
  13 -15   2   -0.20    4.22
 -13  15   2    0.16    3.32
 -13 -15  -2    7.58    6.65
  13  15   2    3.57    6.69
  13 -15  -2    6.69    4.01
  13 -15   3    2.60    4.26
 -13  15   3   -2.15    3.53
 -13 -15  -3    4.99    5.84
  13  15   3   -2.76    4.78
  13 -15  -3    3.24    3.69
 -13  15  -3    2.80    3.85
  13 -15   4    8.03    4.95
 -13  15   4   10.50    4.58
 -13 -15  -4   33.09    8.84
  13  15   4   17.03    6.65
  13 -15  -4   14.31    4.78
 -13  15  -4   34.10    7.46
  13 -15   5    0.49    4.10
 -13  15   5    3.16    3.53
 -13 -15  -5    0.57    4.66
  13  15   5   -5.51    4.95
  13 -15  -5    0.81    3.24
 -13  15  -5    0.04    3.81
  13 -15   6    1.26    3.97
 -13 -15  -6   24.21    7.10
  13  15   6   -0.65    4.46
  13 -15  -6    3.24    3.77
 -13  15  -6    5.39    4.26
 -13 -15  -7    4.62    4.38
  13  15   7    1.54    4.26
  13 -15  -7   -0.97    3.85
 -13  15  -7    2.39    3.97
 -13 -15  -8   25.95    7.18
  13  15   8   13.54    5.56
 -13 -15  -9    0.28    3.61
  13  15   9   -0.93    4.05
 -13 -15 -10   29.84    7.62
  13  15  10   13.75    5.47
 -13 -15 -11   -1.01    4.22
  13  15  11    2.64    3.65
 -13 -15 -12   15.73    5.47
  13  15  12    9.53    4.66
  13 -16   0    0.89    3.89
 -13  16   0    8.88    4.58
  13 -16   1   18.81    5.76
 -13  16   1    3.37    3.97
 -13 -16  -1    8.43    6.37
  13  16   1    4.99    6.45
  13 -16  -1    8.47    4.34
 -13  16  -1    7.50    4.50
  13 -16   2    2.55    4.54
 -13  16   2    2.07    3.73
 -13 -16  -2    1.54    5.68
  13  16   2    0.00    5.76
  13 -16  -2    1.62    3.61
 -13  16  -2    0.04    3.53
  13 -16   3   61.92   10.62
 -13  16   3   89.12   13.50
 -13 -16  -3   60.29   11.80
  13  16   3   87.83   15.00
  13 -16  -3  104.09   15.12
 -13  16  -3  102.14   15.29
  13 -16   4    1.50    4.26
 -13  16   4    0.77    3.41
 -13 -16  -4    9.20    5.19
  13  16   4    6.97    4.91
  13 -16  -4    1.38    3.61
 -13  16  -4    2.23    4.10
  13 -16   5    7.87    4.62
 -13  16   5    5.76    3.85
 -13 -16  -5   11.35    5.51
  13  16   5    2.31    5.15
  13 -16  -5    1.78    3.41
 -13  16  -5    4.87    3.85
  13 -16   6    6.16    4.18
 -13  16   6    0.57    3.81
 -13 -16  -6   12.93    5.92
  13  16   6   10.87    5.60
  13 -16  -6   12.25    4.99
 -13  16  -6    3.49    4.30
  13 -16   7   -0.16    3.85
 -13  16   7    3.93    4.05
 -13 -16  -7    7.34    4.91
  13  16   7    4.34    4.54
  13 -16  -7    5.11    4.30
 -13  16  -7    9.45    4.78
 -13 -16  -8    5.19    4.62
  13  16   8   -0.08    4.14
  13 -16  -8    8.68    4.83
 -13 -16  -9    1.78    4.38
  13  16   9    4.83    4.10
 -13 -16 -10    3.53    4.34
  13  16  10   13.22    5.64
 -13 -16 -11   13.22    5.60
  13  16  11    8.43    4.95
 -13 -16 -12   -1.18    3.73
  13  16  12    2.43    3.61
  13  17   0   12.98    6.61
  13 -17   0    3.12    3.97
 -13  17   0    0.89    3.97
  13 -17   1    2.80    4.38
 -13  17   1   -0.89    3.69
 -13 -17  -1   -5.11    5.27
  13  17   1    4.14    5.43
  13 -17  -1    7.10    4.50
 -13  17  -1   -4.42    3.69
  13 -17   2   -0.16    3.97
 -13  17   2    1.42    3.49
 -13 -17  -2   -1.30    4.74
  13  17   2    6.24    5.39
  13 -17  -2    0.32    3.61
 -13  17  -2   10.83    4.74
  13 -17   3   -0.45    3.65
 -13  17   3    7.30    3.89
 -13 -17  -3    2.72    5.15
  13  17   3    2.51    4.74
  13 -17  -3    3.97    4.22
 -13  17  -3   -0.20    3.65
  13 -17   4    7.62    4.66
 -13  17   4   16.67    5.19
 -13 -17  -4   15.94    6.12
  13  17   4    9.93    5.43
  13 -17  -4    8.88    4.58
 -13  17  -4   12.25    5.03
  13 -17   5    0.49    3.93
 -13  17   5    2.84    3.81
 -13 -17  -5    4.95    4.87
  13  17   5    3.41    4.95
  13 -17  -5   -0.89    3.37
 -13  17  -5   -0.69    3.57
  13 -17   6    4.95    4.01
 -13  17   6    2.31    3.89
 -13 -17  -6    0.65    3.97
  13  17   6    2.84    4.38
  13 -17  -6   -0.49    3.37
 -13  17  -6   -0.85    3.65
  13 -17   7    6.28    4.30
 -13  17   7    5.19    4.34
 -13 -17  -7    9.81    4.99
  13  17   7    0.61    4.54
  13 -17  -7    3.81    4.18
 -13  17  -7    6.08    4.50
 -13  17   8    1.70    4.30
 -13 -17  -8    4.50    4.18
  13  17   8    1.30    4.50
  13 -17  -8    3.08    4.66
 -13 -17  -9   -1.14    3.37
  13  17   9   -2.51    3.69
  13 -17  -9   -2.84    4.14
 -13 -17 -10   12.00    5.11
  13  17  10   17.68    6.49
 -13 -17 -11    1.50    3.89
  13  17  11    1.82    4.10
  13  18   0   -1.05    4.87
  13 -18   0   -2.23    3.85
 -13  18   0    3.12    3.93
  13 -18   1   17.76    6.12
 -13  18   1   10.87    4.95
 -13 -18  -1    3.85    5.76
  13  18   1    4.91    5.64
  13 -18  -1    5.92    4.46
 -13  18  -1    6.04    4.30
  13 -18   2    6.61    4.26
 -13  18   2    6.04    4.14
 -13 -18  -2    7.99    5.64
  13  18   2    3.49    5.27
  13 -18  -2    1.99    3.97
 -13  18  -2    3.73    3.97
  13 -18   3   31.71    7.14
 -13  18   3   39.25    7.91
 -13 -18  -3   31.79    8.51
  13  18   3   39.17    9.37
  13 -18  -3   26.64    6.69
 -13  18  -3   25.63    6.53
  13 -18   4    1.87    3.77
 -13  18   4   14.76    5.19
 -13 -18  -4    6.12    5.23
  13  18   4    2.96    4.95
  13 -18  -4    3.53    4.18
 -13  18  -4    3.20    4.34
  13 -18   5    3.89    3.89
 -13  18   5    6.24    4.18
 -13 -18  -5    6.89    4.66
  13  18   5    2.80    4.99
 -13  18  -5    1.54    3.28
  13 -18   6    6.57    4.22
 -13  18   6    4.99    4.05
 -13 -18  -6    5.60    5.19
  13  18   6    5.84    5.03
  13 -18  -6    7.46    4.74
 -13  18  -6    6.41    4.18
  13 -18   7    9.85    4.74
 -13  18   7    4.46    3.97
 -13 -18  -7    8.27    4.66
  13  18   7    4.34    4.58
  13 -18  -7    2.51    3.85
 -13  18  -7   11.56    5.19
 -13  18   8   -1.26    3.16
 -13 -18  -8    4.91    4.26
  13  18   8    1.91    3.97
  13 -18  -8    1.99    4.30
 -13  18  -8    2.35    4.10
 -13  18   9    3.97    4.58
 -13 -18  -9    7.46    4.50
  13  18   9    6.08    5.03
  13 -18  -9    0.45    4.46
 -13 -18 -10   -2.60    3.45
  13  18  10    1.95    4.05
  13 -18 -10    6.28    5.03
 -13 -18 -11    7.34    5.72
  13  18  11   10.66    5.96
  13  19   0   -3.12    5.27
  13 -19   0   -0.45    3.53
 -13  19   0   -0.16    3.57
  13 -19   1   -1.05    3.81
 -13  19   1   -3.24    4.05
 -13 -19  -1   -0.85    5.11
  13  19   1   -0.12    4.70
  13 -19  -1    4.14    3.97
 -13  19  -1    2.68    3.65
  13 -19   2    4.10    4.05
 -13  19   2   -0.16    3.77
 -13 -19  -2    5.56    4.99
  13  19   2    3.57    4.74
  13 -19  -2   -0.12    3.89
 -13  19  -2    4.78    3.97
  13 -19   3   -0.57    3.73
 -13  19   3    0.08    3.69
 -13 -19  -3    3.16    4.46
  13  19   3    4.14    4.46
  13 -19  -3    0.57    3.77
 -13  19  -3    3.32    3.37
  13 -19   4    4.46    4.01
 -13  19   4   13.22    5.11
 -13 -19  -4   18.04    6.04
  13  19   4   -0.41    4.54
  13 -19  -4    8.15    4.62
 -13  19  -4    5.92    4.30
  13 -19   5    1.18    3.61
 -13  19   5    1.87    3.81
 -13 -19  -5    1.74    4.30
  13  19   5    0.41    4.54
  13 -19  -5    5.96    4.38
 -13  19  -5    1.54    3.41
  13 -19   6    0.28    4.01
 -13  19   6    5.64    4.01
 -13 -19  -6   31.38    8.23
  13  19   6    2.31    4.66
  13 -19  -6    5.15    4.42
 -13  19  -6   -0.12    4.05
  13 -19   7    0.16    4.42
 -13  19   7    3.12    3.69
 -13 -19  -7    3.93    4.42
  13  19   7    0.20    3.85
  13 -19  -7    2.23    3.57
 -13  19  -7    1.82    4.10
 -13  19   8   -1.62    3.65
 -13 -19  -8   -2.76    4.05
  13  19   8    7.91    5.11
  13 -19  -8    0.45    3.89
 -13  19  -8    1.87    4.46
 -13  19   9   -1.62    3.65
 -13 -19  -9   -2.64    3.41
  13  19   9    3.41    3.93
  13 -19  -9    4.87    4.74
 -13 -19 -10    2.31    3.89
  13  19  10   -3.00    3.61
  13 -19 -10    1.62    4.34
  13  20   0    2.92    4.95
 -13 -20   0    3.08    5.51
  13 -20   0    3.69    3.85
 -13  20   0    2.35    3.69
  13 -20   1    0.49    3.77
 -13  20   1   -2.07    3.65
 -13 -20  -1    3.04    5.07
  13  20   1    3.61    4.74
  13 -20  -1    1.42    3.61
 -13  20  -1   16.79    5.84
  13 -20   2   -2.68    3.45
 -13  20   2   -3.16    3.32
 -13 -20  -2    2.19    5.07
  13  20   2    6.89    5.11
  13 -20  -2    5.47    4.05
 -13  20  -2   -1.74    3.73
  13 -20   3   18.37    5.92
 -13  20   3   42.41    8.92
  13  20   3   26.23    7.62
 -13  20  -3   16.38    5.64
  13 -20   4    1.22    3.97
 -13  20   4    5.35    3.97
 -13 -20  -4    3.28    4.58
  13  20   4    8.88    6.04
  13 -20  -4    2.43    4.38
 -13  20  -4    0.77    3.73
  13 -20   5    3.37    4.26
 -13  20   5    5.15    3.85
 -13 -20  -5    2.76    4.66
  13  20   5    2.15    4.91
  13 -20  -5    1.30    3.93
 -13  20  -5    1.82    4.26
  13 -20   6   -2.84    3.89
 -13  20   6   -2.15    3.49
 -13 -20  -6    2.64    4.58
  13  20   6    2.92    4.26
  13 -20  -6   -0.32    3.61
 -13  20  -6    0.32    4.05
  13 -20   7   12.04    5.15
 -13  20   7    3.89    4.18
 -13 -20  -7    4.54    4.34
  13  20   7    1.62    3.81
  13 -20  -7   -3.28    3.69
 -13  20  -7    1.62    4.30
 -13  20   8   -3.61    3.45
 -13 -20  -8    1.58    3.85
  13  20   8    1.18    4.26
  13 -20  -8   -0.93    3.89
 -13  20  -8    1.95    4.30
 -13  20   9    9.08    5.23
 -13 -20  -9    1.62    4.50
  13  20   9    7.58    5.03
  13 -20  -9    4.78    4.78
  13  21   0    1.14    4.99
 -13 -21   0    0.28    5.15
  13 -21   0   -2.31    3.77
 -13  21   0   -0.69    3.61
  13 -21   1    3.69    4.05
 -13  21   1    6.24    4.38
 -13 -21  -1    3.37    5.23
  13  21   1    9.69    5.68
  13 -21  -1    0.69    3.53
 -13  21  -1    3.37    3.77
  13 -21   2    6.12    4.22
 -13  21   2    5.96    4.70
 -13 -21  -2   12.73    6.57
  13  21   2    2.76    5.27
  13 -21  -2   11.92    5.11
 -13  21  -2    7.18    4.14
  13 -21   3    2.07    4.18
 -13  21   3   -1.62    3.65
 -13 -21  -3   -0.28    4.58
  13  21   3    6.57    5.11
  13 -21  -3    5.80    4.22
 -13  21  -3    5.47    4.14
  13 -21   4    4.18    4.50
 -13  21   4    6.20    4.46
 -13 -21  -4   -2.68    4.34
  13  21   4    0.65    4.91
  13 -21  -4   25.95    6.93
 -13  21  -4    5.23    4.50
  13 -21   5    5.27    4.26
 -13  21   5    3.37    4.14
 -13 -21  -5    6.28    5.19
  13  21   5   13.75    6.08
  13 -21  -5    0.16    4.18
 -13  21  -5    8.68    4.91
  13 -21   6   44.08    9.45
 -13  21   6   22.99    6.65
 -13 -21  -6   21.13    7.10
  13  21   6   24.21    7.34
  13 -21  -6   25.14    7.46
 -13  21  -6   42.74    9.24
  13 -21   7    3.85    4.34
 -13  21   7    0.45    4.05
 -13 -21  -7   -1.05    4.14
  13  21   7    1.62    3.77
  13 -21  -7    1.30    4.10
 -13  21  -7   -0.97    3.65
 -13  21   8   22.18    7.34
 -13 -21  -8   22.18    7.34
  13  21   8   10.14    5.80
  13 -21  -8   18.04    6.97
 -13  21  -8    5.76    5.72
  13  22   0    3.45    5.27
 -13 -22   0    1.58    5.03
  13 -22   0   -1.58    3.93
 -13  22   0   -0.81    3.57
  13 -22   1   -0.57    3.61
 -13  22   1    0.24    3.69
  13  22  -1    6.08    5.51
 -13 -22  -1   -0.73    4.78
  13  22   1    3.53    4.95
  13 -22  -1    6.37    4.66
 -13  22  -1    5.23    4.38
  13 -22   2    2.15    3.81
 -13  22   2    0.73    3.81
 -13 -22  -2   -4.22    4.83
  13  22   2    1.30    4.34
  13 -22  -2    3.65    4.22
 -13  22  -2    0.12    3.32
  13 -22   3   -0.65    3.85
 -13  22   3    1.58    4.14
 -13 -22  -3    4.62    4.87
  13  22   3   -1.42    3.57
  13 -22  -3   -0.65    3.97
 -13  22  -3    0.08    3.61
  13 -22   4    0.85    4.22
 -13  22   4    4.62    4.26
 -13 -22  -4    7.30    4.95
  13  22   4    1.58    5.19
  13 -22  -4    5.07    4.74
 -13  22  -4   -2.84    3.57
  13 -22   5    1.95    3.89
 -13  22   5    1.91    3.41
 -13 -22  -5    7.26    4.91
  13  22   5    4.66    5.11
  13 -22  -5    1.78    3.89
 -13  22  -5    1.01    3.49
  13 -22   6    0.32    4.18
 -13  22   6   -1.38    3.65
 -13 -22  -6    4.54    4.58
  13  22   6    1.46    4.30
  13 -22  -6    4.34    4.54
 -13  22  -6    1.18    3.77
  13 -22   7   -1.30    4.58
  13  23   0   -0.45    4.54
 -13 -23   0    8.92    6.61
  13 -23   0    9.24    4.99
 -13  23   0   -0.73    3.45
  13 -23   1   -0.45    3.69
 -13  23   1   -2.39    3.69
  13  23  -1    5.27    5.31
 -13 -23  -1   -0.28    4.91
  13  23   1   -0.32    5.11
  13 -23  -1   19.67    6.57
 -13  23  -1    4.58    4.10
  13 -23   2    3.08    3.89
 -13  23   2    5.11    4.26
 -13 -23  -2    5.76    5.27
  13  23   2    3.12    5.11
  13 -23  -2    5.23    4.54
 -13  23  -2    5.19    4.38
  13 -23   3    0.73    3.77
 -13  23   3    3.37    4.26
 -13 -23  -3    3.32    4.78
  13  23   3    1.62    4.18
  13 -23  -3    1.66    3.97
 -13  23  -3    1.34    3.69
  13 -23   4   -2.11    4.42
 -13  23   4    2.88    4.10
 -13 -23  -4    0.36    4.87
  13  23   4    6.00    5.43
  13 -23  -4   -0.36    4.14
 -13  23  -4    0.73    3.73
  13 -23   5   -0.97    4.22
 -13  23   5    0.24    3.97
 -13 -23  -5    3.77    5.07
  13  23   5   -5.27    4.34
  13 -23  -5   -0.36    3.85
 -13  23  -5    2.43    4.14
  13  24   0    0.45    4.95
 -13 -24   0   -0.16    5.39
  13 -24   0   -1.50    3.81
 -13  24   0   -0.93    3.93
  13 -24   1    7.54    4.87
 -13  24   1    3.69    4.46
  13  24  -1    0.24    5.27
 -13 -24  -1    1.18    4.62
  13  24   1    2.55    5.15
  13 -24  -1    4.78    4.62
 -13  24  -1    6.33    5.19
  13 -24   2    5.88    4.58
 -13  24   2    4.05    4.70
 -13 -24  -2   -1.38    4.10
  13  24   2    3.28   13.95
  13 -24  -2    2.39    4.42
 -13  24  -2    1.14    4.14
  14   0   5  714.04   86.16
 -14   0  -5  671.06   81.14
  14   0   6  311.81   37.95
 -14   0  -6  377.54   45.86
 -14   0  -7  112.44   14.39
  14   1   4   58.06    8.35
  14  -1   5   15.21    2.88
 -14  -1  -5    4.66    3.41
  14   1   5   10.70    3.24
 -14   1  -5    9.20    2.23
 -14  -1  -6   10.83    3.93
  14   1   6    5.80    3.00
 -14   1  -6   10.38    2.47
 -14  -1  -7   12.25    3.65
  14   1   7   17.07    3.85
 -14  -1  -8    6.24    3.45
 -14  -2  -4    4.05    4.05
  14   2   4    2.76    3.65
 -14  -2  -6   44.52    7.22
  14   2   6   52.79    8.23
 -14  -2  -7   36.70    6.08
  14   2   7   25.22    4.99
 -14  -2  -8    8.15    3.49
  14   2   8    9.45    3.57
 -14  -3  -4    6.57    4.46
  14   3   4    5.07    4.54
 -14  -3  -5   51.29    8.35
  14   3   5   40.18    7.01
 -14  -3  -6  193.49   24.69
  14   3   6  238.91   29.92
 -14  -3  -7    9.29    4.05
  14   3   7    4.42    3.61
 -14  -3  -8    8.43    3.81
  14   3   8    5.72    3.41
 -14  -3  -9    9.81    4.05
  14   3   9    9.61    3.57
  14  -4   4    1.74    2.07
 -14  -4  -4    5.27    4.74
  14   4   4   -3.61    4.38
 -14   4  -4   -2.55    1.54
 -14  -4  -5   28.14    6.49
  14   4   5   36.49    7.30
 -14   4  -5   29.19    4.46
 -14  -4  -6    3.65    4.22
  14   4   6    4.14    4.18
 -14  -4  -7   16.18    5.27
  14   4   7   18.00    5.56
 -14  -4  -8    1.50    3.69
  14   4   8    2.19    3.53
 -14  -4  -9   11.35    3.85
  14   4   9    4.22    3.12
 -14  -4 -10    0.12    3.45
  14   4  10    2.03    3.04
  14  -5   3   27.78    4.30
  14   5   3   16.50    5.84
 -14   5  -3   16.46    3.08
  14  -5   4  212.63   26.11
 -14  -5  -4  173.42   23.15
  14   5   4  165.68   22.14
 -14   5  -4  223.66   27.37
  14  -5   5  173.83   21.57
 -14  -5  -5  121.12   16.91
  14   5   5  182.63   23.88
 -14   5  -5  164.26   20.44
 -14  -5  -6  248.39   31.67
  14   5   6  179.18   23.27
 -14  -5  -8   16.67    5.11
  14   5   8    4.14    3.53
 -14  -5  -9   18.00    4.83
  14   5   9    3.69    3.04
 -14  -5 -10   11.07    4.05
  14   5  10    2.31    2.92
 -14  -5 -11    2.68    3.57
  14   5  11    0.89    2.92
  14  -6   2   27.53    4.66
 -14   6  -2   19.91    3.97
  14  -6   3    3.97    2.64
 -14  -6  -3   11.03    5.84
  14   6   3    5.68    5.15
 -14   6  -3   -0.53    2.31
  14  -6   4   10.75    3.28
 -14  -6  -4    0.69    5.47
  14   6   4    9.45    5.11
 -14   6  -4    6.41    2.88
  14  -6   5   12.29    3.77
 -14  -6  -5    3.73    5.35
  14   6   5    4.99    4.99
 -14   6  -5   10.50    3.32
 -14  -6  -6    0.49    4.66
  14   6   6    7.58    4.62
 -14  -6  -7   17.52    5.47
  14   6   7   13.58    4.66
 -14  -6  -8    5.07    4.46
  14   6   8   11.52    4.22
 -14  -6  -9   22.50    5.43
  14   6   9   35.80    6.57
 -14  -6 -10    0.00    3.16
  14   6  10    6.12    3.24
 -14  -6 -11    1.62    3.16
  14   6  11   -1.82    2.84
 -14  -6 -12   -0.41    3.20
  14  -7   3   10.34    3.97
 -14  -7  -3    8.80    6.28
  14   7   3    6.65    5.60
 -14   7  -3   11.52    3.57
  14  -7   4   15.94    4.01
 -14  -7  -4   27.37    7.83
  14   7   4   13.62    5.56
 -14   7  -4   22.91    4.70
  14  -7   5   15.16    4.30
 -14  -7  -5   19.10    6.57
  14   7   5    9.20    5.56
 -14   7  -5   22.02    4.87
 -14  -7  -7    3.93    4.18
  14   7   7    4.10    3.81
 -14  -7  -8   -2.07    4.26
  14   7   8    1.95    3.53
 -14  -7  -9    7.91    4.14
  14   7   9    2.31    3.16
 -14  -7 -10    3.93    3.65
  14   7  10    1.58    3.08
 -14  -7 -11    1.05    3.45
  14   7  11    3.16    3.24
 -14  -7 -12    0.61    3.65
  14   7  12    7.38    3.69
 -14  -7 -13    1.74    3.61
  14  -8   0    1.38    3.32
 -14   8   0    8.35    3.65
  14  -8   1   11.56    3.77
 -14   8  -1    3.89    3.16
  14  -8   2   30.37    5.51
 -14   8  -2   42.37    6.73
  14  -8   3  429.80   52.79
 -14  -8  -3  459.00   57.62
  14   8   3  478.87   59.85
 -14   8  -3  489.41   59.85
  14  -8   4    1.09    3.41
 -14  -8  -4    8.92    6.12
  14   8   4    2.15    4.91
 -14   8  -4   -2.11    3.16
  14  -8   5  299.65   37.18
 -14  -8  -5  224.80   29.60
  14   8   5  259.38   33.41
 -14   8  -5  230.92   29.07
 -14  -8  -6    7.95    4.95
  14   8   6   25.54    6.28
 -14   8  -6    7.62    4.26
 -14  -8  -8    0.89    4.05
  14   8   8    1.18    3.57
 -14  -8 -10    2.88    3.41
  14   8  10    9.93    4.01
 -14  -8 -11   25.71    6.12
  14   8  11   13.50    4.58
 -14  -8 -12   -0.04    3.32
  14   8  12    4.74    3.85
 -14  -8 -14    0.73    3.73
  14  -9   0    6.00    3.81
 -14   9   0    2.84    3.32
  14  -9   1    3.49    3.45
  14  -9  -1    3.45    4.18
 -14   9  -1    0.00    2.96
  14  -9   2   10.99    4.26
 -14   9  -2    2.68    3.37
  14  -9   3    6.08    3.93
 -14  -9  -3    4.66    6.49
  14   9   3    5.72    5.72
 -14   9  -3    2.43    3.85
  14  -9   4   11.56    4.34
 -14  -9  -4    4.83    5.60
  14   9   4    8.31    5.07
 -14   9  -4   20.07    4.83
  14  -9   5    2.15    3.89
 -14  -9  -5    9.08    6.08
  14   9   5    4.42    5.35
 -14   9  -5    3.41    3.65
 -14  -9  -6    6.45    4.62
  14   9   6    9.65    4.83
 -14   9  -6    1.54    4.10
 -14  -9  -7    0.85    4.18
  14   9   7   -1.82    3.61
 -14  -9  -8    3.61    4.05
  14   9   8   -0.16    3.45
 -14  -9  -9    1.87    4.01
  14   9   9   -0.45    3.24
 -14  -9 -10    2.72    3.65
  14   9  10    0.77    3.28
 -14  -9 -11    3.65    3.73
  14   9  11    2.07    3.24
 -14  -9 -12   -1.87    3.32
  14   9  12    3.28    3.69
 -14  -9 -13    0.57    3.12
  14   9  13   -2.27    3.00
 -14  -9 -14    1.50    3.53
  14   9  14    0.41    3.49
  14 -10   0   16.87    5.07
 -14  10   0   10.14    4.05
  14 -10   1   12.57    4.54
 -14  10   1    9.24    4.38
  14 -10  -1    4.91    4.26
  14 -10   2    5.23    4.38
  14  10   2    2.23    6.04
  14 -10  -2    0.81    4.01
 -14  10  -2    3.45    3.93
  14 -10   3  101.25   14.23
 -14 -10  -3   76.19   13.10
  14  10   3   86.24   13.87
 -14  10  -3   74.16   11.03
  14 -10   4    3.57    3.85
 -14 -10  -4    1.62    5.23
  14  10   4   -0.65    4.26
 -14  10  -4    4.14    3.69
  14 -10   5  152.38   20.19
 -14 -10  -5  175.21   24.04
  14  10   5  166.57   22.83
 -14  10  -5  160.28   21.13
  14 -10   6   37.55    7.26
 -14 -10  -6   48.98    9.53
  14  10   6   63.90   10.66
 -14  10  -6   61.88    9.93
 -14 -10  -8   12.45    4.99
  14  10   8    5.43    4.10
 -14 -10  -9    4.18    4.46
  14  10   9    0.61    3.81
 -14 -10 -10    6.16    3.93
  14  10  10    1.22    3.24
 -14 -10 -11    1.74    3.65
  14  10  11   -0.36    3.20
 -14 -10 -12    1.50    3.53
  14  10  12    4.46    3.81
 -14 -10 -13    0.65    3.41
  14  10  13    3.85    3.73
 -14 -10 -14    0.73    3.53
  14  10  14    3.28    3.69
  14 -11   0    1.30    4.18
 -14  11   0    3.45    3.65
  14 -11   1   11.07    4.78
 -14  11   1    7.01    4.42
  14 -11  -1   12.49    4.70
 -14  11  -1   13.06    4.91
  14 -11   2   -1.09    4.18
 -14  11   2    3.28    4.18
 -14 -11  -2   12.81    6.85
  14  11   2    9.81    6.33
  14 -11  -2    1.91    4.18
 -14  11  -2   13.18    5.07
  14 -11   3    5.92    4.46
 -14 -11  -3   11.47    6.61
  14  11   3    6.77    5.96
  14 -11  -3    4.05    4.01
 -14  11  -3    4.66    4.05
  14 -11   4    6.77    4.26
 -14 -11  -4   -0.28    4.95
  14  11   4    1.26    5.03
 -14  11  -4    4.91    3.93
  14 -11   5    0.36    3.85
 -14 -11  -5    2.88    5.15
  14  11   5   -0.45    5.23
 -14  11  -5    1.26    3.65
  14 -11   6    3.20    4.46
 -14 -11  -6    7.74    5.03
  14  11   6   11.19    5.47
 -14  11  -6   10.83    5.07
 -14 -11  -7    4.34    4.78
  14  11   7   15.53    5.43
 -14 -11  -8    3.16    4.10
  14  11   8    1.42    3.73
 -14 -11  -9    4.50    4.30
  14  11   9    3.08    3.81
 -14 -11 -10    3.97    4.10
  14  11  10    0.81    3.53
 -14 -11 -11    2.64    3.61
  14  11  11    2.88    3.57
 -14 -11 -12    2.03    3.77
  14  11  12    4.70    3.85
 -14 -11 -13   -1.22    3.41
  14  11  13    0.73    3.53
 -14 -11 -14    7.34    4.30
  14  11  14   -1.95    3.28
  14 -12   0    4.74    4.50
 -14  12   0   10.87    4.46
  14 -12   1   14.48    5.19
 -14  12   1   14.39    5.19
 -14  12  -1    9.37    4.54
  14 -12   2    8.60    4.42
 -14  12   2    2.55    3.97
 -14 -12  -2   12.20    7.18
  14  12   2   10.79    6.65
  14 -12  -2   10.22    4.62
 -14  12  -2   12.69    4.87
  14 -12   3   61.51    9.93
 -14  12   3   47.93    8.84
 -14 -12  -3   49.10   10.46
  14  12   3   80.81   13.58
  14 -12  -3   50.85    9.12
 -14  12  -3   37.22    7.18
  14 -12   4    0.49    4.01
 -14 -12  -4    4.14    5.39
  14  12   4   -0.61    4.78
  14 -12  -4   -1.18    3.73
 -14  12  -4   -1.01    3.49
  14 -12   5   63.21   10.50
 -14 -12  -5   43.14    9.33
  14  12   5   80.97   13.58
 -14  12  -5   42.41    7.99
  14 -12   6    1.58    4.22
 -14 -12  -6   -0.28    4.74
  14  12   6   -0.28    4.54
 -14  12  -6    5.60    4.54
 -14 -12  -7    2.68    4.54
  14  12   7   11.96    5.51
 -14 -12  -8    4.26    4.46
  14  12   8   -0.32    4.14
 -14 -12  -9   22.63    6.20
  14  12   9   36.74    8.03
 -14 -12 -10    2.76    4.01
  14  12  10    0.97    4.05
 -14 -12 -11    4.99    4.22
  14  12  11   10.83    4.70
 -14 -12 -12   -0.28    3.53
  14  12  12    3.12    4.05
 -14 -12 -13   -0.12    3.57
  14  12  13    1.87    3.89
  14 -13   0  627.27   77.28
 -14  13   0  568.48   70.23
  14 -13   1   11.47    4.95
 -14  13   1   14.31    4.78
  14 -13  -1   18.81    5.47
 -14  13  -1   20.52    5.64
  14 -13   2    2.72    3.81
 -14  13   2   -3.61    3.49
 -14 -13  -2    2.35    6.08
  14  13   2   -6.69    5.80
  14 -13  -2    1.87    3.97
 -14  13  -2    6.37    4.05
  14 -13   3    3.37    4.01
 -14  13   3    0.65    3.77
 -14 -13  -3    4.91    6.08
  14  13   3    1.62    5.68
  14 -13  -3    5.51    3.77
 -14  13  -3    4.34    3.77
  14 -13   4   12.77    4.99
 -14  13   4    3.89    3.89
 -14 -13  -4   29.60    8.11
  14  13   4   15.73    6.57
  14 -13  -4   22.26    5.80
 -14  13  -4   15.98    5.07
  14 -13   5    6.81    4.58
 -14 -13  -5    5.92    5.39
  14  13   5    7.01    5.80
  14 -13  -5    3.16    3.53
 -14  13  -5   13.14    4.74
 -14 -13  -6  173.22   24.45
  14  13   6  226.21   30.49
 -14  13  -6  193.09   25.75
 -14 -13  -7    3.77    4.58
  14  13   7   -1.99    4.30
 -14  13  -7   15.12    5.15
 -14 -13  -8   24.94    6.73
  14  13   8   16.87    5.88
 -14 -13  -9    1.14    3.97
  14  13   9    3.08    4.01
 -14 -13 -10   13.75    5.51
  14  13  10    6.53    4.54
 -14 -13 -11   -0.24    3.93
  14  13  11    2.15    3.81
 -14 -13 -12    3.24    4.18
  14  13  12    2.55    3.93
 -14 -13 -13    1.95    3.73
  14  13  13    7.66   53.20
  14 -14   0    9.81    4.54
 -14  14   0    9.61    4.26
  14 -14   1    1.99    4.10
 -14  14   1    2.88    3.37
  14  14   1    6.77    6.33
  14 -14  -1    4.46    3.57
 -14  14  -1   -0.24    4.10
  14 -14   2    4.30    4.30
 -14  14   2   -1.05    3.24
 -14 -14  -2    6.53    6.16
  14  14   2    7.18    6.12
  14 -14  -2   -1.99    3.49
 -14  14  -2   -0.61    3.69
  14 -14   3    8.03    4.34
 -14  14   3   23.96    5.80
 -14 -14  -3    2.15    5.64
  14  14   3    5.19    6.12
  14 -14  -3    6.33    3.81
 -14  14  -3    3.61    3.89
  14 -14   4    2.43    4.10
 -14  14   4    3.65    3.49
 -14 -14  -4    5.39    5.31
  14  14   4    0.77    4.87
  14 -14  -4   12.04    4.58
 -14  14  -4    3.85    3.77
  14 -14   5    5.84    4.10
 -14  14   5    3.93    3.49
 -14 -14  -5    0.20    4.66
  14  14   5   -1.22    4.95
  14 -14  -5    1.01    3.49
 -14  14  -5    1.09    3.77
  14 -14   6    3.28    3.49
 -14 -14  -6    0.93    4.46
  14  14   6   -2.92    4.26
 -14  14  -6   -1.38    3.73
 -14 -14  -7    8.43    4.99
  14  14   7    3.04    4.70
 -14  14  -7    3.16    4.14
 -14 -14  -8    4.58    4.18
  14  14   8   -0.32    3.89
 -14 -14  -9    2.19    3.93
  14  14   9    0.00    4.10
 -14 -14 -10   -0.69    3.97
  14  14  10    0.77    3.81
 -14 -14 -11   -0.61    4.22
  14  14  11    3.85    4.22
 -14 -14 -12    2.96    4.01
  14  14  12    0.97    4.05
  14 -15   0   14.31    5.27
 -14  15   0   12.85    4.74
  14 -15   1    6.49    4.14
 -14  15   1    3.65    3.61
  14  15   1    4.10    6.20
  14 -15  -1    4.91    3.61
 -14  15  -1    3.49    3.93
 -14  15   2    3.85    3.61
 -14 -15  -2    3.45    6.04
  14  15   2   10.62    6.33
  14 -15  -2   10.30    4.38
 -14  15  -2    7.62    4.26
  14 -15   3    2.35    3.81
 -14  15   3   -1.14    3.24
 -14 -15  -3    3.53    5.64
  14  15   3    3.93    5.23
  14 -15  -3    7.50    3.89
 -14  15  -3   -1.42    3.69
  14 -15   4    3.65    4.26
 -14  15   4    1.01    3.32
 -14 -15  -4    4.50    5.11
  14  15   4    4.18    5.07
  14 -15  -4    7.70    4.26
 -14  15  -4    4.83    3.65
  14 -15   5    0.49    3.49
 -14  15   5    4.34    3.53
 -14 -15  -5    0.12    4.38
  14  15   5    2.55    4.78
  14 -15  -5    3.16    3.61
 -14  15  -5    6.04    3.85
  14 -15   6   10.30    4.62
 -14  15   6   14.56    5.19
 -14 -15  -6   15.12    6.16
  14  15   6   12.45    5.84
  14 -15  -6   31.22    7.34
 -14  15  -6    6.61    4.46
  14 -15   7   19.38    5.84
 -14 -15  -7   -0.57    3.89
  14  15   7    5.88    5.19
 -14  15  -7    3.16    3.97
 -14 -15  -8    3.49    4.30
  14  15   8    9.37    5.07
 -14 -15  -9    2.47    3.97
  14  15   9    3.37    4.22
 -14 -15 -10    6.61    4.34
  14  15  10    7.14    4.62
 -14 -15 -11   -0.04    3.81
  14  15  11    1.26    4.01
 -14 -15 -12    2.76    3.97
  14  15  12    1.54    3.73
  14 -16   0    5.07    4.34
 -14  16   0    7.34    4.18
  14 -16   1   14.11    5.15
 -14  16   1   24.53    6.08
 -14 -16  -1   16.91    7.22
  14  16   1   13.62    7.06
  14 -16  -1   14.52    4.91
 -14  16  -1    6.41    4.34
  14 -16   2   -0.28    3.81
 -14  16   2    1.82    3.12
 -14 -16  -2    1.05    5.07
  14  16   2    5.19    5.35
  14 -16  -2   -1.70    3.16
 -14  16  -2    3.24    3.97
  14 -16   3    2.60    3.77
 -14  16   3    0.57    3.32
 -14 -16  -3    2.11    5.11
  14  16   3   -1.62    4.58
  14 -16  -3    0.77    3.57
 -14  16  -3    2.07    3.89
  14 -16   4   -1.05    3.53
 -14  16   4    2.19    3.53
 -14 -16  -4    8.15    5.15
  14  16   4    0.20    4.18
  14 -16  -4    0.61    3.28
 -14  16  -4   -0.61    3.57
  14 -16   5    3.53    3.89
 -14  16   5   18.81    5.64
 -14 -16  -5    5.11    4.87
  14  16   5   23.64    7.50
  14 -16  -5    5.35    4.01
 -14  16  -5    5.19    4.14
  14 -16   6    2.51    3.61
 -14  16   6    5.76    4.01
 -14 -16  -6    6.37    4.62
  14  16   6    3.32    4.18
  14 -16  -6    2.19    3.89
 -14  16  -6    2.19    4.05
  14 -16   7   10.34    4.50
 -14 -16  -7    5.15    4.54
  14  16   7    3.08    4.46
  14 -16  -7    6.89    4.78
 -14  16  -7    4.42    4.18
 -14 -16  -8   -1.05    4.01
  14  16   8   -2.07    3.65
 -14 -16  -9   12.12    5.39
  14  16   9   12.25    5.35
 -14 -16 -10    4.22    3.89
  14  16  10    8.72    4.95
 -14 -16 -11    1.09    4.18
  14  16  11    6.49    4.74
  14 -17   0   11.03    4.78
 -14  17   0    5.23    4.18
  14 -17   1    5.27    4.01
 -14  17   1    1.46    3.37
 -14 -17  -1    8.47    5.68
  14  17   1    1.26    5.07
  14 -17  -1   -0.08    3.77
 -14  17  -1    4.05    3.97
  14 -17   2    2.43    4.14
 -14  17   2    2.60    3.45
 -14 -17  -2    1.22    5.19
  14  17   2    5.23    5.51
  14 -17  -2    0.24    3.32
  14 -17   3   -0.12    3.57
 -14  17   3    3.57    3.45
 -14 -17  -3    0.81    4.66
  14  17   3    5.23    5.15
  14 -17  -3    1.18    3.77
 -14  17  -3   -0.85    3.12
  14 -17   4    3.32    4.14
 -14  17   4    4.58    4.01
 -14 -17  -4    8.60    5.23
  14  17   4    6.24    4.74
  14 -17  -4   22.67    6.12
 -14  17  -4   20.92    6.04
  14 -17   5   -0.45    3.32
 -14  17   5   -0.65    3.32
 -14 -17  -5    3.61    4.54
  14  17   5    2.88    4.58
  14 -17  -5    0.04    3.41
 -14  17  -5   -0.08    3.61
  14 -17   6    3.73    3.61
 -14  17   6   12.69    5.03
 -14 -17  -6   17.27    6.41
  14 -17  -6   19.46    6.00
  14 -17   7    0.61    3.61
 -14  17   7    1.87    3.65
 -14 -17  -7   -1.09    3.69
  14  17   7    0.45    3.93
  14 -17  -7    1.87    4.14
 -14  17  -7    8.51    4.50
 -14 -17  -8    4.30    4.42
  14  17   8    2.03    4.34
  14 -17  -8   12.98    5.07
 -14  17  -8    3.04    4.38
 -14 -17  -9    2.27    3.89
  14  17   9   -2.80    3.85
 -14 -17 -10    0.32    3.97
  14  17  10    4.50    3.93
 -14 -17 -11    1.26    4.78
  14  17  11    4.10    4.26
  14 -18   0    3.00    3.49
 -14  18   0    1.34    3.45
  14 -18   1    4.91    4.50
 -14  18   1    6.20    4.22
 -14 -18  -1    9.89    5.84
  14  18   1    6.61    5.56
  14 -18  -1   11.43    4.78
 -14  18  -1    3.73    3.85
  14 -18   2    7.79    4.58
 -14  18   2    4.50    3.97
 -14 -18  -2   10.30    6.41
  14  18   2    5.39    5.19
  14 -18  -2   -0.45    3.53
 -14  18  -2    2.76    3.37
  14 -18   3    9.37    4.42
 -14  18   3   37.79    8.03
 -14 -18  -3   32.64    8.23
  14  18   3   16.91    6.20
  14 -18  -3   12.73    5.07
 -14  18  -3   11.39    4.83
  14 -18   4   -1.18    3.41
 -14  18   4    1.22    3.32
 -14 -18  -4    0.77    4.22
  14  18   4   -1.82    3.85
  14 -18  -4    4.22    3.93
 -14  18  -4   -0.77    3.57
  14 -18   5   60.33   10.42
 -14  18   5   34.14    7.83
 -14 -18  -5   40.83    9.16
  14  18   5   44.97    9.89
  14 -18  -5   30.65    7.46
 -14  18  -5   34.18    7.83
  14 -18   6    3.08    3.97
 -14  18   6    3.00    4.30
 -14 -18  -6    5.60    4.30
  14  18   6   -1.46    4.26
  14 -18  -6    0.89    3.93
 -14  18  -6    3.37    3.85
  14 -18   7    8.39    5.19
 -14  18   7   -0.28    3.85
 -14 -18  -7    8.35    4.87
  14  18   7    6.41    4.50
  14 -18  -7    4.34    4.01
 -14  18  -7   -0.69    3.81
 -14  18   8    0.08    3.73
 -14 -18  -8    3.65    4.05
  14  18   8   -1.62    3.81
  14 -18  -8   -1.50    3.77
 -14  18  -8    4.54    4.42
 -14 -18  -9    7.01    4.87
  14  18   9   21.45    6.61
  14 -18  -9   14.03    6.04
 -14 -18 -10    5.51    4.30
  14  18  10    0.16    3.89
  14  19   0    0.85    4.42
  14 -19   0    0.57    3.41
 -14  19   0    4.26    4.10
  14 -19   1    1.42    3.77
 -14  19   1    2.15    3.65
 -14 -19  -1    5.47    5.51
  14  19   1    4.10    5.19
  14 -19  -1   -0.81    3.61
 -14  19  -1    4.05    3.65
  14 -19   2    0.57    3.93
 -14  19   2   -1.46    3.53
 -14 -19  -2   -2.92    4.22
  14  19   2   -3.61    4.58
  14 -19  -2   -0.65    3.89
 -14  19  -2    0.77    3.57
  14 -19   3    1.70    3.41
 -14  19   3    3.89    4.01
 -14 -19  -3   -3.41    4.01
  14  19   3    1.50    4.05
  14 -19  -3    0.36    3.49
 -14  19  -3   -1.34    3.24
  14 -19   4   -3.24    3.69
 -14  19   4   -1.09    3.28
 -14 -19  -4    0.65    3.85
  14  19   4    2.27    4.18
  14 -19  -4   -0.08    3.81
 -14  19  -4    7.30    4.18
  14 -19   5    4.74    4.05
 -14  19   5    1.87    3.49
 -14 -19  -5    4.26    4.78
  14  19   5    6.97    5.60
  14 -19  -5   -0.20    3.73
 -14  19  -5    3.73    3.57
  14 -19   6   -0.93    3.77
 -14  19   6   -2.11    3.37
 -14 -19  -6    5.23    4.78
  14  19   6    1.91    4.26
  14 -19  -6    1.78    3.93
 -14  19  -6   -0.24    3.65
  14 -19   7    4.78    4.42
 -14  19   7    4.26    4.01
 -14 -19  -7   -0.49    4.01
  14  19   7    0.73    3.85
  14 -19  -7    1.46    3.97
 -14  19  -7    3.65    4.30
 -14  19   8    1.26    3.73
 -14 -19  -8   -0.08    4.10
  14  19   8    3.08    4.18
  14 -19  -8    3.81    4.18
 -14  19  -8    0.73    3.97
 -14  19   9    2.96    3.93
 -14 -19  -9    1.62    3.97
  14  19   9    5.88    4.58
  14 -19  -9    0.16    3.97
  14  20   0    2.43    4.91
  14 -20   0    0.93    3.65
 -14  20   0    2.35    3.41
  14 -20   1    3.20    4.22
 -14  20   1    6.49    4.54
 -14 -20  -1    3.77    4.95
  14  20   1    2.23    4.58
  14 -20  -1    0.08    3.65
 -14  20  -1   -0.45    4.05
  14 -20   2    2.96    3.65
 -14  20   2    1.30    3.41
 -14 -20  -2    3.89    4.54
  14  20   2    1.26    4.91
  14 -20  -2    1.09    4.01
 -14  20  -2    3.73    3.85
  14 -20   3    0.89    3.65
 -14  20   3    1.01    3.41
 -14 -20  -3    0.57    5.23
  14  20   3    2.11    4.42
  14 -20  -3    0.65    3.41
 -14  20  -3    0.65    3.65
  14 -20   4   -0.49    4.10
 -14  20   4    3.53    3.97
 -14 -20  -4   -1.09    4.38
  14  20   4    4.01    4.62
  14 -20  -4    4.14    4.10
 -14  20  -4   -1.66    4.01
  14 -20   5    0.73    4.05
 -14  20   5    4.30    3.85
 -14 -20  -5    0.16    4.78
  14  20   5    1.70    4.83
  14 -20  -5    3.28    4.10
 -14  20  -5    1.42    4.01
  14 -20   6    2.55    4.10
 -14  20   6   -1.09    3.69
 -14 -20  -6   -0.08    4.38
  14  20   6    0.97    4.38
  14 -20  -6    0.57    3.93
 -14  20  -6    0.08    3.61
  14 -20   7    6.00    4.62
 -14  20   7    3.69    4.38
 -14 -20  -7    5.76    4.87
  14  20   7    3.45    4.01
  14 -20  -7    3.08    4.14
 -14  20  -7    8.64    4.87
  14 -20   8    2.96    4.22
 -14  20   8    4.05    3.85
 -14 -20  -8    1.91    4.01
  14  20   8   -1.70    4.05
  14 -20  -8    2.43    3.81
 -14  20  -8   -3.77    3.89
  14  21   0   10.38    6.04
 -14 -21   0    3.41    6.45
  14 -21   0    9.89    4.91
 -14  21   0   17.96    5.64
  14 -21   1    0.81    3.81
 -14  21   1    0.73    3.61
 -14 -21  -1    6.33    5.88
  14  21   1    0.69    5.43
  14 -21  -1   -1.46    3.45
 -14  21  -1   -0.61    3.49
  14 -21   2    3.41    3.85
 -14  21   2    3.37    4.10
 -14 -21  -2    1.87    5.03
  14  21   2   -2.15    4.70
  14 -21  -2    1.05    3.61
 -14  21  -2    1.18    3.45
  14 -21   3   -0.93    3.32
 -14  21   3   -0.89    3.61
 -14 -21  -3    0.00    4.26
  14  21   3    2.23    3.93
  14 -21  -3    2.19    3.89
 -14  21  -3    0.57    3.45
  14 -21   4    5.60    4.66
 -14  21   4    0.89    3.77
 -14 -21  -4    4.05    4.66
  14  21   4   10.66    5.35
  14 -21  -4    8.03    4.66
 -14  21  -4    7.87    4.54
  14 -21   5    0.89    3.77
 -14  21   5    0.32    3.81
 -14 -21  -5    2.11    4.58
  14  21   5    3.24    4.58
  14 -21  -5    4.54    4.22
 -14  21  -5    4.05    4.05
  14 -21   6    0.77    4.01
 -14  21   6    9.97    5.07
 -14 -21  -6   25.71    7.66
  14  21   6    6.93    5.07
  14 -21  -6    3.65    4.46
 -14  21  -6    3.37    3.97
  14 -21   7    7.62    4.78
 -14  21   7    2.27    3.89
 -14 -21  -7    2.15    4.46
  14  21   7    1.09    3.93
  14 -21  -7    3.24    4.05
 -14  21  -7   -4.99    3.73
  14  22   0   -1.42    4.83
 -14 -22   0    7.26    5.76
  14 -22   0   -2.27    3.49
 -14  22   0    6.00    4.01
  14 -22   1    1.74    4.38
 -14  22   1    1.14    3.93
 -14 -22  -1    6.57    5.43
  14  22   1   -0.57    4.78
  14 -22  -1    4.01    4.46
 -14  22  -1    1.91    3.97
  14 -22   2   -0.49    3.73
 -14  22   2   -0.16    4.05
 -14 -22  -2   -1.38    4.50
  14  22   2    2.96    4.87
  14 -22  -2    5.47    4.38
 -14  22  -2    2.11    3.81
  14 -22   3    2.07    3.93
 -14  22   3    5.80    4.46
 -14 -22  -3    5.43    5.39
  14  22   3    7.01    5.27
  14 -22  -3   -2.35    3.93
 -14  22  -3    2.88    3.89
  14 -22   4    0.32    3.69
 -14  22   4    3.04    4.22
 -14 -22  -4    1.46    3.89
  14  22   4   -3.32    3.81
  14 -22  -4    0.04    4.01
 -14  22  -4    2.92    4.10
  14 -22   5   -0.57    3.97
 -14  22   5    0.65    3.69
 -14 -22  -5    5.72    4.83
  14  22   5   -2.19    4.34
  14 -22  -5    8.03    4.83
 -14  22  -5    4.34    4.54
  14 -22   6   -1.26    3.61
 -14 -22  -6   -0.57    4.14
  14  23   0    5.76    5.84
 -14 -23   0   17.56    6.85
  14 -23   0   10.10    5.35
 -14  23   0    6.12    4.38
  14 -23   1   -0.28    3.77
 -14  23   1    3.73    4.01
  14  23  -1    1.99    4.70
 -14 -23  -1    0.32    4.91
  14  23   1    1.46    4.42
  14 -23  -1    5.35    4.30
 -14  23  -1    0.24    3.20
  14 -23   2    3.00    3.89
 -14  23   2    4.74    4.38
 -14 -23  -2   -1.05    4.10
  14  23   2    1.14    4.83
  14 -23  -2    3.37    3.97
 -14  23  -2   -1.78    3.20
  14 -23   3    1.70    4.26
 -14  23   3   -3.32    3.81
 -14 -23  -3   -0.04    4.78
  14  23   3   -0.89    4.34
  14 -23  -3    2.47    3.97
 -14  23  -3    1.70    3.93
  15   0   5  631.32   76.31
 -15   0  -5  593.61   71.93
  15   0   6    2.11    2.23
 -15   0  -6    4.66    3.49
  15   0   7   41.24    6.00
 -15   0  -7   60.58    8.27
  15  -1   5   22.38    3.85
 -15  -1  -5   21.73    4.58
  15   1   5   12.08    4.01
 -15   1  -5   30.49    4.70
  15  -1   6    8.64    2.07
 -15  -1  -6   10.38    3.49
  15   1   6    9.29    3.57
 -15   1  -6    6.37    2.23
 -15  -1  -8   -0.77    2.64
  15   1   8    4.50    2.72
  15   2   4   19.14    5.11
 -15  -2  -5   40.99    6.89
  15   2   5   35.72    6.53
 -15  -2  -6    4.91    3.45
  15   2   6    5.60    3.49
 -15  -2  -7    5.31    3.85
  15   2   7    1.42    3.00
 -15  -2  -8    3.32    3.00
  15   2   8    9.73    3.32
 -15  -2  -9    6.49    3.24
 -15  -3  -4   19.83    5.84
  15   3   4   24.49    5.96
 -15  -3  -5    8.51    4.30
  15   3   5   10.99    4.58
 -15  -3  -6    6.49    3.85
  15   3   6   19.71    4.74
 -15  -3  -7    1.26    3.81
  15   3   7   -6.73    3.81
 -15  -3  -8   35.76    6.37
  15   3   8   30.69    5.72
 -15  -3  -9    3.08    2.96
  15   3   9    0.16    2.64
 -15  -3 -10   -1.87    2.80
  15  -4   4    6.73    1.91
 -15  -4  -4    9.73    5.31
  15   4   4   10.54    5.15
  15  -4   5   21.33    3.45
 -15  -4  -5   20.27    5.80
  15   4   5   17.03    5.51
 -15   4  -5   21.57    3.37
 -15  -4  -6    7.79    4.18
  15   4   6    3.85    4.01
 -15  -4  -7    0.93    3.57
  15   4   7    0.57    3.97
 -15  -4  -8    4.38    3.45
  15   4   8   -0.28    3.04
 -15  -4  -9   -0.73    2.92
  15   4   9    1.30    2.72
 -15  -4 -10    1.30    2.80
  15   4  10    0.16    2.84
 -15  -4 -11    1.01    3.16
  15  -5   3   13.71    3.08
  15  -5   4  681.20   82.27
 -15  -5  -4  512.93   63.46
  15   5   4  551.85   68.00
 -15   5  -4  586.32   70.80
  15  -5   5   10.34    2.72
  15   5   5   25.14    6.37
 -15   5  -5   15.69    3.20
 -15  -5  -6   49.91    8.64
  15   5   6   59.48    9.41
 -15  -5  -7    1.26    3.69
  15   5   7   15.12    4.50
 -15  -5  -8    7.95    4.14
  15   5   8    2.31    3.20
 -15  -5  -9    9.81    4.05
  15   5   9   21.13    4.70
  15   5  11   -0.08    2.72
 -15  -5 -12    3.93    3.65
  15  -6   2    4.66    2.92
  15  -6   3    8.51    3.00
 -15   6  -3    1.91    2.47
  15  -6   4   15.00    3.57
 -15  -6  -4   11.03    6.00
  15   6   4   32.60    7.30
 -15   6  -4   16.22    3.73
  15  -6   5    5.47    2.80
 -15  -6  -5    4.58    4.91
  15   6   5    5.68    4.66
 -15  -6  -6    6.00    4.78
  15   6   6    7.18    4.10
 -15  -6  -7   10.06    4.54
  15   6   7   13.18    4.22
 -15  -6  -8    4.91    3.97
  15   6   8    2.80    3.24
 -15  -6  -9    7.70    3.85
  15   6   9   10.18    3.69
 -15  -6 -10    4.22    3.41
  15   6  10    1.74    2.84
 -15  -6 -11   -1.58    2.96
  15   6  11   -1.78    3.69
 -15  -6 -12    3.04    3.49
  15   6  12    1.70    3.20
 -15  -6 -13    4.70    3.69
  15  -7   1   -0.20    3.28
  15  -7   2   13.58    3.65
 -15   7  -2   11.07    3.53
  15  -7   3   13.38    3.77
  15   7   3    9.73    6.04
 -15   7  -3   14.43    3.73
  15  -7   4   10.42    3.53
 -15  -7  -4    4.38    5.88
  15   7   4    6.93    5.11
  15  -7   5    6.65    3.04
 -15  -7  -5    3.20    4.95
  15   7   5    0.53    4.54
 -15   7  -5    4.50    3.12
 -15  -7  -6    7.50    4.83
 -15   7  -6    5.80    3.49
 -15  -7  -7    1.70    3.85
  15   7   7   -1.14    3.20
 -15  -7  -8    6.89    4.10
  15   7   8    9.73    4.05
 -15  -7  -9    6.93    4.62
  15   7   9    6.12    3.28
 -15  -7 -10    2.31    3.45
  15   7  10    6.16    3.41
 -15  -7 -11    1.82    3.41
  15   7  11    4.18    3.16
 -15  -7 -12   -1.62    3.00
  15   7  12    0.73    3.00
 -15  -7 -13    0.08    3.16
  15   7  13   -0.81    3.08
 -15  -7 -14    4.74    3.65
  15  -8   1  168.39   21.53
 -15   8  -1  183.76   23.36
  15  -8   2    3.77    3.28
 -15   8  -2    5.43    3.53
  15  -8   3   19.18    4.50
 -15  -8  -3   32.64    8.39
  15   8   3    9.33    5.68
  15  -8   4    9.33    3.65
 -15  -8  -4   11.07    5.88
  15   8   4    9.16    5.15
 -15   8  -4    8.68    3.69
  15   8   5   11.03    5.15
 -15   8  -5    4.26    3.41
 -15  -8  -6   14.64    5.31
  15   8   6    5.76    4.30
 -15   8  -6    7.38    3.81
 -15  -8  -7    5.56    4.46
  15   8   7   12.98    4.91
 -15  -8  -8   -0.32    3.69
  15   8   8    1.95    3.53
 -15  -8  -9    9.00    4.70
  15   8   9    2.35    3.45
 -15  -8 -10   10.38    4.18
  15   8  10    1.05    3.08
 -15  -8 -11    9.77    4.34
  15   8  11    5.03    3.97
 -15  -8 -12    7.79    4.01
  15   8  12   16.83    5.11
 -15  -8 -13    4.26    3.61
  15   8  13    1.91    3.53
 -15  -8 -14    0.93    3.45
  15   8  14    1.50    3.49
  15  -9   0   -0.45    3.69
 -15   9   0    5.23    3.85
  15  -9   1   -0.73    3.37
 -15   9  -1    0.24    3.16
  15  -9   2    3.28    3.53
 -15   9  -2    4.78    3.69
  15  -9   3    1.14    3.69
 -15  -9  -3    0.41    5.80
  15   9   3    1.38    4.87
 -15   9  -3    0.28    4.05
  15  -9   4   11.35    4.14
 -15  -9  -4   25.67    7.42
  15   9   4   11.23    5.84
 -15   9  -4   19.30    4.66
  15  -9   5    0.61    3.53
 -15  -9  -5   -3.97    4.91
  15   9   5    1.62    4.70
 -15   9  -5   -0.28    3.53
  15  -9   6    0.65    3.49
 -15  -9  -6    3.16    5.60
  15   9   6    0.77    3.85
 -15   9  -6    5.60    3.97
 -15  -9  -7   -1.38    4.14
  15   9   7   -1.46    3.61
 -15  -9  -8    0.00    3.61
  15   9   8   -0.77    3.20
 -15  -9  -9   -3.00    3.69
  15   9   9   -0.65    3.24
 -15  -9 -10    5.03    3.77
  15   9  10    0.61    3.24
 -15  -9 -11   -3.37    3.65
  15   9  11    0.85    3.57
 -15  -9 -12    1.01    3.45
  15   9  12    2.92    3.45
 -15  -9 -13   -0.20    3.41
  15   9  13    0.97    3.45
 -15  -9 -14    3.53    3.73
  15   9  14    2.35    3.32
  15 -10   0    2.80    3.89
 -15  10   0   -0.57    3.61
  15 -10   1   31.79    6.45
 -15  10   1   17.88    5.23
  15 -10  -1   37.95    7.42
 -15  10  -1   31.02    6.12
  15 -10   2    2.76    3.73
 -15  10  -2   -1.54    3.32
  15 -10   3   12.04    4.42
 -15 -10  -3    6.65    6.12
  15  10   3   -2.68    5.19
 -15  10  -3    7.18    4.54
  15 -10   4    2.60    3.24
 -15 -10  -4    1.18    5.35
  15  10   4   -2.27    4.01
 -15  10  -4    0.69    3.16
  15 -10   5   44.24    7.62
 -15 -10  -5   24.37    6.93
  15  10   5   41.16    8.56
 -15  10  -5   43.35    7.66
  15 -10   6   -0.49    3.69
 -15 -10  -6    8.15    4.95
  15  10   6    9.61    4.74
 -15  10  -6   10.87    4.42
 -15 -10  -7    1.18    4.22
  15  10   7    6.16    4.18
 -15 -10  -8    4.83    4.26
  15  10   8    2.96    3.85
 -15 -10  -9   -2.55    3.41
  15  10   9    0.69    3.41
 -15 -10 -10    3.37    4.22
  15  10  10    1.82    3.49
 -15 -10 -11    0.32    3.49
  15  10  11    2.27    3.45
 -15 -10 -12   -1.38    3.04
  15  10  12   -0.77    3.20
 -15 -10 -13    4.91    3.81
  15  10  13    5.72    4.14
 -15 -10 -14    4.46    3.73
  15  10  14    1.30    3.81
  15 -11   0    8.15    4.34
 -15  11   0    1.42    3.81
  15 -11   1    2.07    3.61
 -15  11   1    0.41    3.69
  15 -11  -1    1.99    3.85
 -15  11  -1   -0.65    3.32
  15 -11   2    4.58    3.81
 -15  11   2    7.01    4.10
  15  11   2    2.47    5.80
  15 -11  -2    4.10    4.30
 -15  11  -2    8.23    4.18
  15 -11   3   -0.81    3.37
 -15 -11  -3    6.77    6.16
  15  11   3    6.81    5.60
 -15  11  -3    0.24    3.45
  15 -11   4    5.60    3.57
 -15 -11  -4   -0.20    5.43
  15  11   4    1.38    4.46
 -15  11  -4   -0.08    3.16
  15 -11   5    2.35    3.65
 -15 -11  -5   -0.77    4.50
  15  11   5    0.12    4.87
 -15  11  -5   -0.45    3.73
  15 -11   6    2.39    3.57
 -15 -11  -6    3.73    4.38
  15  11   6    8.07    4.83
 -15  11  -6    4.01    4.22
 -15 -11  -7    2.60    4.10
  15  11   7    6.65    4.34
 -15  11  -7   -3.85    3.53
 -15 -11  -8    0.20    4.10
  15  11   8    1.38    3.81
 -15 -11  -9    7.34    3.97
  15  11   9    3.00    3.73
 -15 -11 -10    3.53    4.58
  15  11  10    2.15    3.69
 -15 -11 -11   -1.74    3.41
  15  11  11    2.76    3.69
 -15 -11 -12    0.81    3.37
  15  11  12    5.76    4.01
 -15 -11 -13    0.12    3.37
  15  11  13    0.36    3.45
  15 -12   0    1.38    3.81
 -15  12   0   -0.77    3.41
  15 -12   1    1.87    3.57
 -15  12   1    5.72    3.97
  15 -12  -1    6.08    3.97
 -15  12  -1    6.89    3.89
  15 -12   2    4.46    3.85
 -15  12   2    5.60    3.81
  15  12   2    5.80    5.80
  15 -12  -2    2.03    3.69
 -15  12  -2    4.91    3.81
  15 -12   3    6.04    4.14
 -15  12   3   11.96    4.54
  15  12   3   30.78    8.11
  15 -12  -3    8.15    4.42
 -15  12  -3   19.95    5.15
  15 -12   4    4.05    3.77
 -15 -12  -4    0.28    5.56
  15  12   4    0.57    4.91
 -15  12  -4    6.16    3.69
  15 -12   5    3.41    3.77
 -15 -12  -5    3.89    5.11
  15  12   5    5.47    5.60
 -15  12  -5    5.03    3.97
  15 -12   6    1.34    3.69
 -15 -12  -6    5.27    4.95
  15  12   6   18.25    6.12
 -15  12  -6    8.84    4.38
 -15 -12  -7    2.03    4.50
  15  12   7   20.15    6.12
 -15  12  -7    5.27    4.05
 -15 -12  -8    5.47    4.18
  15  12   8    2.07    3.28
 -15 -12  -9    1.46    3.81
  15  12   9    0.57    3.49
 -15 -12 -10    0.28    3.81
  15  12  10    0.65    3.41
 -15 -12 -11    3.00    4.38
  15  12  11    1.58    3.85
 -15 -12 -12    2.84    3.81
  15  12  12   -0.89    3.61
 -15 -12 -13    4.10    4.22
  15  12  13    6.69    4.22
  15 -13   1   -0.32    3.77
 -15  13   1    4.46    3.49
  15 -13  -1    2.19    3.57
 -15  13  -1    3.49    3.53
 -15  13   2   14.43    4.62
 -15 -13  -2    0.49    5.60
  15  13   2   18.81    7.30
  15 -13  -2    6.45    3.65
 -15  13  -2    5.80    4.05
  15 -13   3    6.93    3.97
 -15  13   3    9.24    4.14
 -15 -13  -3    7.95    6.04
  15  13   3    4.10    5.27
  15 -13  -3   13.30    4.70
 -15  13  -3    5.07    3.65
  15 -13   4    4.87    3.93
 -15 -13  -4   13.10    6.33
  15  13   4    2.80    4.74
  15 -13  -4   -1.34    3.53
 -15  13  -4    6.12    3.77
  15 -13   5    0.57    3.61
 -15 -13  -5   -0.97    4.46
  15  13   5    1.22    4.70
 -15  13  -5    3.37    3.89
  15 -13   6   12.85    4.58
 -15 -13  -6    8.19    5.15
  15  13   6   13.99    5.80
 -15  13  -6   25.18    6.33
  15 -13   7    3.00    3.65
 -15 -13  -7    0.12    4.18
  15  13   7    6.12    4.62
 -15  13  -7    8.23    4.22
 -15 -13  -8   38.11    8.19
  15  13   8   40.30    8.43
 -15 -13  -9    4.10    3.97
  15  13   9    1.54    3.93
 -15 -13 -10    9.69    4.66
  15  13  10   12.89    5.23
 -15 -13 -11    1.38    4.01
  15  13  11    1.14    3.53
 -15 -13 -12    9.97    4.62
  15  13  12   18.45    5.84
  15 -14   0   -3.04    3.61
 -15  14   0   -2.19    3.24
  15 -14   1    1.50    3.89
 -15  14   1   10.46    4.05
  15 -14  -1   13.06    4.58
 -15  14  -1    4.30    3.81
  15 -14   2    2.23    3.77
 -15  14   2   -1.74    3.16
 -15 -14  -2    3.53    5.56
  15  14   2    7.18    5.92
  15 -14  -2    5.35    3.73
 -15  14  -2   -2.88    3.53
  15 -14   3   -1.18    3.65
 -15  14   3   -1.01    3.00
 -15 -14  -3    4.95    5.27
  15  14   3    1.01    5.43
  15 -14  -3    2.31    3.45
 -15  14  -3    1.46    3.41
  15 -14   4   -2.60    3.41
 -15  14   4   -0.89    3.24
 -15 -14  -4    3.45    4.95
  15  14   4   -3.89    4.14
  15 -14  -4    2.80    3.61
 -15  14  -4    1.74    3.32
  15 -14   5    4.05    3.73
  15  14   5   12.04    5.88
  15 -14  -5    6.08    3.97
 -15  14  -5    7.62    4.38
  15 -14   6    3.77    3.61
 -15 -14  -6    1.99    4.34
  15  14   6   -2.51    3.69
 -15  14  -6    2.19    3.49
  15 -14   7    3.24    3.77
 -15 -14  -7   -2.07    4.01
  15  14   7    2.07    3.93
 -15  14  -7    1.66    3.77
 -15 -14  -8    3.04    4.10
  15  14   8   -2.07    4.10
 -15 -14  -9   -0.65    3.81
  15  14   9    4.74    3.89
 -15 -14 -10    0.65    3.53
  15  14  10    3.04    3.85
 -15 -14 -11    0.16    4.14
  15  14  11    2.23    3.85
 -15 -14 -12    0.89    3.85
  15  14  12    2.43    3.57
  15 -15   0    0.00    3.37
 -15  15   0   -1.42    3.28
  15 -15   1    4.62    4.01
 -15  15   1    3.08    3.24
  15 -15  -1    3.00    3.32
 -15  15  -1    3.89    3.93
  15 -15   2    0.00    3.61
 -15  15   2   -0.77    3.08
 -15 -15  -2   -3.12    5.43
  15  15   2    3.00    5.64
  15 -15  -2    1.87    3.41
 -15  15  -2    8.07    4.30
  15 -15   3    2.92    3.73
 -15  15   3    2.19    3.53
  15  15   3    4.50    4.83
  15 -15  -3    3.41    3.53
 -15  15  -3    0.36    3.32
  15 -15   4    2.19    3.81
 -15  15   4    6.24    3.77
 -15 -15  -4    8.39    5.03
  15  15   4    6.89    5.11
  15 -15  -4    6.89    3.85
 -15  15  -4    5.88    4.10
  15 -15   5    5.19    4.18
 -15  15   5    3.37    3.69
 -15 -15  -5    2.76    4.62
  15  15   5    2.84    5.11
  15 -15  -5    0.24    3.57
 -15  15  -5    2.55    3.97
  15 -15   6   -0.20    3.37
 -15 -15  -6    9.73    5.35
  15  15   6    0.12    4.18
  15 -15  -6   -1.46    3.41
 -15  15  -6   -1.87    3.41
  15 -15   7    1.70    3.57
 -15 -15  -7    1.34    4.22
  15  15   7    1.87    3.97
 -15  15  -7   -0.49    3.61
 -15 -15  -8    3.73    3.97
  15  15   8    6.49    4.66
 -15 -15  -9   -2.07    3.20
  15  15   9    1.62    3.77
 -15 -15 -10   -0.20    3.57
  15  15  10   -0.04    3.73
 -15 -15 -11    0.81    4.30
  15  15  11    2.43    3.89
  15 -16   0    0.85    3.53
 -15  16   0   -2.39    3.32
  15 -16   1    4.83    3.97
 -15  16   1   12.04    4.66
  15  16   1   -1.26    4.70
  15 -16  -1   -0.89    3.24
 -15  16  -1    6.00    4.14
  15 -16   2    3.20    3.93
 -15  16   2   -2.84    2.80
 -15 -16  -2    2.27    4.87
  15  16   2   -3.08    4.83
  15 -16  -2   -2.35    3.20
 -15  16  -2   -0.04    3.24
  15 -16   3    0.16    3.57
 -15  16   3    1.22    3.32
 -15 -16  -3    4.01    4.78
  15  16   3    7.42    5.39
  15 -16  -3   13.50    4.95
 -15  16  -3    3.69    3.73
  15 -16   4   -0.49    3.53
 -15  16   4    6.28    4.14
 -15 -16  -4    6.04    4.91
  15  16   4   -0.85    4.10
  15 -16  -4    3.73    3.69
 -15  16  -4   -0.57    3.37
  15 -16   5    4.14    3.81
 -15  16   5   11.43    4.78
  15  16   5    7.79    5.72
  15 -16  -5    4.66    3.97
  15 -16   6    1.09    3.41
 -15  16   6   -2.55    3.61
 -15 -16  -6    2.31    4.14
  15  16   6    1.46    4.38
  15 -16  -6   -0.73    3.81
 -15  16  -6    0.81    3.08
  15 -16   7    1.74    3.93
 -15 -16  -7   -1.05    3.49
  15  16   7    4.58    4.30
  15 -16  -7   -1.14    4.22
 -15  16  -7    0.00    3.61
 -15 -16  -8    4.46    4.01
  15  16   8    2.15    3.77
 -15  16  -8    0.69    4.10
 -15 -16  -9   15.29    5.60
  15  16   9    3.45    3.85
 -15 -16 -10   -0.08    3.89
  15  16  10    3.69    4.05
 -15 -16 -11    0.08    4.42
  15  16  11    0.49    3.89
  15 -17   0   -1.62    3.41
 -15  17   0    2.43    3.37
  15 -17   1    2.64    3.41
 -15  17   1    2.39    3.49
  15  17   1    5.19    4.74
  15 -17  -1   -2.15    3.20
 -15  17  -1   -0.20    3.41
  15 -17   2   -1.62    3.24
 -15  17   2    0.97    3.37
 -15 -17  -2   -1.26    4.74
  15  17   2    0.81    4.74
  15 -17  -2    6.89    4.14
 -15  17  -2    4.62    3.61
  15 -17   3    1.78    3.45
 -15  17   3    3.69    3.57
 -15 -17  -3    6.04    5.03
  15  17   3    7.58    5.56
  15 -17  -3    2.23    3.53
 -15  17  -3    8.92    4.26
  15 -17   4    3.28    3.65
 -15  17   4    2.88    3.65
 -15 -17  -4    3.57    4.58
  15  17   4    1.42    4.26
  15 -17  -4   -2.51    3.24
 -15  17  -4    1.26    3.04
  15 -17   5    0.65    3.53
 -15  17   5    2.96    3.85
 -15 -17  -5    2.35    4.54
  15  17   5    1.38    4.74
  15 -17  -5    3.28    3.57
 -15  17  -5    0.85    3.61
  15 -17   6    1.58    3.69
 -15  17   6    0.24    3.85
 -15 -17  -6    0.32    4.14
  15  17   6    7.30    5.31
  15 -17  -6    0.89    3.97
 -15  17  -6    5.96    3.77
  15 -17   7   -0.85    4.14
 -15  17   7   -0.24    3.69
 -15 -17  -7    4.05    4.18
  15  17   7   -0.41    3.81
  15 -17  -7    1.14    3.97
 -15  17  -7    0.16    4.22
 -15 -17  -8    6.49    4.50
  15  17   8    3.57    4.22
  15 -17  -8    4.14    4.30
 -15  17  -8    5.96    4.74
 -15 -17  -9    2.27    4.18
  15  17   9   -1.91    3.77
 -15 -17 -10    0.41    3.77
  15  17  10   -3.49    3.97
  15 -18   0    3.08    3.85
 -15  18   0    2.60    3.81
  15 -18   1   23.19    6.08
 -15  18   1   15.81    5.23
 -15 -18  -1    6.04    5.19
  15  18   1    2.27    5.07
  15 -18  -1   11.35    5.07
 -15  18  -1   16.14    5.31
  15 -18   2    0.65    3.61
 -15  18   2    3.53    3.81
 -15 -18  -2    6.33    5.03
  15  18   2    0.73    4.54
  15 -18  -2   -0.77    3.65
 -15  18  -2    2.51    3.77
  15 -18   3    6.85    4.05
 -15  18   3   12.57    4.83
 -15 -18  -3    6.16    5.07
  15  18   3   -3.41    4.10
 -15  18  -3    3.08    3.61
  15 -18   4   -0.57    3.53
 -15  18   4    7.50    4.22
 -15 -18  -4    0.53    4.10
  15  18   4   -0.24    4.18
  15 -18  -4    6.12    4.10
 -15  18  -4    2.15    3.65
  15 -18   5    5.64    4.30
 -15 -18  -5    7.66    5.31
  15  18   5   10.91    6.20
  15 -18  -5    1.91    3.77
 -15  18  -5   24.77    6.65
  15 -18   6    2.31    4.14
 -15  18   6   -4.05    3.53
 -15 -18  -6    1.26    4.50
  15  18   6    2.11    4.91
  15 -18  -6    4.54    3.89
 -15  18  -6    0.57    3.97
  15 -18   7    5.60    4.34
 -15  18   7    1.78    3.85
 -15 -18  -7    1.62    4.22
  15  18   7    2.15    4.30
  15 -18  -7    0.41    3.69
 -15  18  -7    0.08    3.73
 -15  18   8    2.19    3.89
 -15 -18  -8   -0.04    3.65
  15  18   8    8.31    4.87
  15 -18  -8   -1.01    3.89
 -15  18  -8    0.04    3.77
 -15 -18  -9    2.47    4.01
  15  18   9   21.13    6.69
  15 -18  -9    1.22    3.89
  15 -19   0   -3.69    3.12
 -15  19   0    1.66    3.61
  15 -19   1    0.36    3.61
 -15  19   1    2.84    3.49
 -15 -19  -1   -1.50    4.18
  15  19   1    3.41    5.07
  15 -19  -1    0.12    3.65
 -15  19  -1    2.43    3.32
  15 -19   2    2.64    3.49
 -15  19   2   -1.91    3.57
 -15 -19  -2    0.12    4.30
  15  19   2    1.82    4.78
  15 -19  -2    6.57    4.01
 -15  19  -2    0.32    3.49
  15 -19   3    1.82    3.41
 -15  19   3   -2.23    3.04
 -15 -19  -3    0.32    4.50
  15  19   3    2.47    4.78
  15 -19  -3   -0.45    3.32
 -15  19  -3   -3.57    3.20
  15 -19   4   -1.26    3.61
 -15  19   4    1.95    3.20
 -15 -19  -4    1.38    4.95
  15  19   4   -7.46    4.26
  15 -19  -4    0.41    3.57
 -15  19  -4    3.81    3.81
  15 -19   5    3.49    3.93
 -15  19   5   -2.43    3.20
 -15 -19  -5    0.45    4.38
  15  19   5    0.77    4.87
  15 -19  -5   -2.07    3.73
 -15  19  -5   -0.08    3.61
  15 -19   6   -0.08    3.28
 -15  19   6    0.16    3.45
 -15 -19  -6    0.24    3.85
  15  19   6   -1.78    4.38
  15 -19  -6    1.95    4.18
 -15  19  -6   -1.46    3.53
  15 -19   7    2.51    3.93
 -15  19   7    2.47    3.73
 -15 -19  -7    2.43    3.77
  15  19   7    4.10    4.26
  15 -19  -7    3.97    3.93
 -15  19  -7   -2.84    3.61
  15 -19   8   -0.04    4.05
 -15  19   8   -3.28    3.57
 -15 -19  -8    3.04    3.77
  15  19   8    0.49    3.97
  15 -19  -8   -0.16    3.89
 -15  19  -8   -0.08    3.73
  15  20   0    0.45    6.04
  15 -20   0   -0.93    3.57
 -15  20   0   -0.41    3.69
  15 -20   1    5.23    3.85
 -15  20   1   -0.57    3.53
 -15 -20  -1    8.23    5.92
  15  20   1   -6.85    4.74
  15 -20  -1   -1.18    3.69
 -15  20  -1    1.26    3.45
  15 -20   2    3.65    3.73
 -15  20   2    1.01    3.53
 -15 -20  -2    0.81    4.95
  15  20   2   -2.19    4.58
  15 -20  -2   -0.69    3.45
 -15  20  -2    1.78    3.32
  15 -20   3    1.09    3.49
 -15  20   3   -0.85    3.04
 -15 -20  -3   -3.37    4.46
  15  20   3   -4.14    4.54
  15 -20  -3    3.89    3.65
 -15  20  -3    5.27    3.85
  15 -20   4    0.85    4.01
 -15  20   4    7.18    3.85
 -15 -20  -4    0.12    4.18
  15  20   4    1.99    4.14
  15 -20  -4    3.20    3.97
 -15  20  -4   -0.77    3.41
  15 -20   5    0.77    3.89
 -15  20   5    0.28    3.41
 -15 -20  -5    3.37    4.22
  15  20   5    5.76    5.43
  15 -20  -5    2.11    4.38
 -15  20  -5    5.19    4.34
  15 -20   6    0.69    3.32
 -15  20   6   -1.14    3.28
 -15 -20  -6    4.05    4.54
  15  20   6    0.57    4.46
  15 -20  -6    0.97    3.77
 -15  20  -6    0.73    3.65
  15 -20   7   -3.93    3.45
 -15  20   7    1.38    3.73
 -15 -20  -7    0.81    4.30
  15  20   7    3.08    4.14
  15 -20  -7    0.36    3.81
 -15  20  -7   -1.14    3.77
  15  21   0    1.78    4.95
  15 -21   0    0.16    3.81
 -15  21   0    0.45    3.57
  15 -21   1    0.49    3.57
 -15  21   1    4.58    3.85
 -15 -21  -1    1.50    4.58
  15  21   1   -2.35    4.78
  15 -21  -1   -0.36    3.81
 -15  21  -1   -2.51    3.49
  15 -21   2    1.66    3.65
 -15  21   2    2.60    3.77
 -15 -21  -2    3.53    5.07
  15  21   2    4.22    4.70
  15 -21  -2    6.85    4.50
 -15  21  -2    4.05    3.89
  15 -21   3   -0.36    3.37
 -15  21   3   -2.27    3.57
 -15 -21  -3   -1.99    4.62
  15  21   3    1.78    4.18
  15 -21  -3    0.32    3.65
 -15  21  -3    2.31    3.77
  15 -21   4    8.07    4.83
 -15  21   4   12.89    5.23
 -15 -21  -4   15.89    6.57
  15  21   4    3.93    4.54
  15 -21  -4    8.31    4.78
 -15  21  -4    9.65    4.78
  15 -21   5   -3.12    3.89
 -15  21   5    2.72    3.65
 -15 -21  -5    4.10    4.66
  15  21   5    1.42    4.66
  15 -21  -5    1.95    4.22
 -15  21  -5    3.69    4.01
  15 -21   6   13.71    5.47
 -15  21   6    5.07    4.14
 -15 -21  -6   10.22    5.80
  15  21   6   10.06    5.96
  15 -21  -6    4.74    4.46
 -15  21  -6    3.97    4.22
  15  22   0    5.35    5.23
  15 -22   0    4.38    3.89
 -15  22   0    0.41    3.65
  15 -22   1    3.28    4.10
 -15  22   1   -0.16    3.81
 -15 -22  -1    0.93    5.27
  15  22   1    2.11    4.95
  15 -22  -1   -0.81    3.61
 -15  22  -1    2.92    3.85
  15 -22   2   -0.89    3.73
 -15  22   2    1.26    3.85
 -15 -22  -2   -3.65    4.46
  15  22   2    2.03    4.58
  15 -22  -2    1.01    3.85
 -15  22  -2    0.93    3.49
  15 -22   3    1.26    3.73
 -15  22   3    0.85    3.89
 -15 -22  -3   -2.07    4.01
  15  22   3   -0.85    4.34
  15 -22  -3   10.58    5.39
 -15  22  -3    0.04    3.65
  15 -22   4   -2.51    4.05
 -15  22   4    0.12    3.57
 -15 -22  -4   -1.95    4.10
  15  22   4    4.10    4.34
  15 -22  -4    3.04    3.93
 -15  22  -4    0.32    3.28
  15  23   0    3.61    5.56
 -15 -23   0   -1.50    5.07
  15 -23   0   -0.16    3.97
 -15  23   0    2.11    3.77
 -15  23   1    1.30    4.34
 -15 -23  -1   -0.04    5.19
  15  23   1    3.77    4.74
  15 -23  -1   -2.19    4.58
 -15  23  -1    0.49    4.78
  16   0   5   23.88    4.30
 -16   0  -5   28.10    4.87
  16   0   6   60.42    8.11
 -16   0  -6   52.95    7.34
  16   0   7    6.57    2.35
 -16   0  -7    7.42    2.72
 -16   0  -8  109.60   14.07
  16  -1   5    1.09    2.23
 -16  -1  -5    1.50    3.45
  16   1   5    2.72    2.84
  16  -1   6   -1.30    1.78
 -16  -1  -6    7.38    2.92
  16   1   6    1.01    2.68
 -16   1  -6    1.30    1.91
 -16  -1  -7   16.22    3.85
  16   1   7   10.95    3.24
 -16   1  -7   11.19    2.60
 -16  -1  -8    2.80    2.31
  16   1   8    0.65    2.31
 -16  -1  -9   16.99    3.81
 -16  -2  -5   18.57    4.95
  16   2   5   24.90    5.27
 -16  -2  -6    7.30    3.28
  16   2   6    2.07    3.12
 -16   2  -6    5.03    1.46
 -16  -2  -7    2.23    3.32
  16   2   7   14.76    4.14
 -16  -2  -8   13.58    3.65
  16   2   8   12.41    3.37
 -16  -2  -9    1.62    2.39
  16   2   9   -0.16    2.51
 -16  -2 -10    8.68    3.41
  16   3   4   13.99    5.15
 -16  -3  -5    2.88    4.14
  16   3   5    4.74    3.73
 -16  -3  -6    4.30    3.49
  16   3   6    4.74    3.24
 -16  -3  -7    5.56    3.08
  16   3   7   -3.41    3.53
 -16  -3  -9    3.85    2.84
  16   3   9    1.46    2.43
 -16  -3 -10    3.97    3.12
  16   3  10    1.62    2.80
  16   4   4   24.17    6.16
  16  -4   5    6.08    1.70
 -16  -4  -5    7.46    4.66
  16   4   5    3.57    4.05
 -16   4  -5    8.64    1.95
 -16  -4  -6    0.65    4.46
  16   4   6    2.88    3.28
 -16  -4  -7    3.37    3.45
  16   4   7   -0.85    3.00
 -16  -4  -8    2.76    3.41
  16   4   8    1.46    2.88
 -16  -4  -9   -1.91    2.68
  16   4   9    2.27    3.00
 -16  -4 -11    2.03    3.24
  16   4  11    1.14    2.84
  16  -5   4    0.81    2.11
 -16  -5  -4    5.96    5.19
  16   5   4   -1.91    4.62
 -16   5  -4    3.28    2.07
  16  -5   5   11.96    2.64
 -16  -5  -5    6.37    4.38
  16   5   5    7.99    4.30
 -16   5  -5    5.07    2.07
 -16  -5  -6    4.83    4.26
  16   5   6    7.99    3.73
 -16  -5  -7   44.48    7.74
  16   5   7   43.14    7.30
 -16  -5  -8    9.65    4.22
  16   5   8    4.58    3.85
 -16  -5  -9   23.84    5.35
  16   5   9   32.03    5.96
 -16  -5 -10   -0.57    3.00
  16   5  10   -0.85    2.51
 -16  -5 -11   14.72    4.30
  16   5  11    4.30    3.24
 -16  -5 -12   14.56    4.46
  16  -6   3    7.87    2.84
 -16   6  -3    2.07    2.64
  16  -6   4   17.31    3.93
 -16  -6  -4   28.26    7.26
  16   6   4   11.76    5.11
 -16   6  -4   13.66    3.12
  16  -6   5    6.00    2.64
 -16  -6  -5    4.18    4.87
  16   6   5    5.39    4.34
 -16   6  -5    3.89    2.19
 -16  -6  -6   -1.42    3.93
  16   6   6    6.24    3.69
 -16   6  -6   13.06    3.45
 -16  -6  -7    4.18    3.81
  16   6   7    9.00    3.77
 -16  -6  -8   27.61    6.04
  16   6   8   23.60    5.23
 -16  -6  -9    6.53    3.81
  16   6   9    1.46    3.00
 -16  -6 -10   10.14    3.85
  16   6  10    2.47    3.08
 -16  -6 -11    2.68    3.61
  16   6  11    1.87    3.24
 -16  -6 -12   -0.73    2.76
  16   6  12    1.22    3.00
 -16  -6 -13    0.77    3.24
  16  -7   2    4.91    3.24
 -16   7  -2    1.01    3.16
  16  -7   3    1.42    2.96
 -16   7  -3    7.30    3.04
  16  -7   4    2.15    2.84
 -16  -7  -4    8.47    5.68
  16   7   4    6.65    5.07
 -16   7  -4    7.66    3.28
  16  -7   5    0.81    2.51
 -16  -7  -5    2.64    4.74
  16   7   5    9.77    4.54
 -16   7  -5    4.50    2.55
  16  -7   6    5.60    2.92
 -16  -7  -6    1.09    4.26
  16   7   6   12.45    4.46
 -16   7  -6    5.68    3.08
 -16  -7  -7   24.25    6.20
  16   7   7   12.73    4.58
 -16  -7  -8    6.28    3.97
  16   7   8    3.20    3.28
 -16  -7  -9    6.33    4.05
  16   7   9    3.24    3.32
 -16  -7 -10    6.00    3.61
  16   7  10    4.01    3.12
 -16  -7 -11    1.50    3.45
  16   7  11    0.61    3.20
 -16  -7 -12    5.60    3.53
  16   7  12    2.47    3.20
 -16  -7 -13    3.37    3.69
  16   7  13   -1.34    3.04
 -16  -7 -14    4.58    3.53
  16  -8   1   77.32   11.07
  16  -8   2   16.83    4.18
 -16   8  -2   27.90    5.31
  16  -8   3    1.66    3.00
  16   8   3    7.38    5.43
 -16   8  -3    7.74    3.32
  16  -8   4   42.17    6.73
 -16  -8  -4   29.44    7.58
  16   8   4   34.14    7.58
 -16   8  -4   41.40    7.06
  16  -8   5    3.69    3.08
 -16  -8  -5   18.98    6.16
  16   8   5    0.77    3.89
 -16   8  -5    1.91    2.64
  16  -8   6    4.05    3.16
  16   8   6    8.31    4.58
 -16   8  -6   13.42    3.97
 -16  -8  -7   13.62    5.19
  16   8   7   12.65    4.58
 -16  -8  -8    3.69    4.05
  16   8   8    6.08    3.61
 -16  -8  -9    2.72    4.14
  16   8   9    4.95    3.61
 -16  -8 -10    7.10    3.89
  16   8  10    1.30    3.00
 -16  -8 -11   10.79    4.42
  16   8  11   14.15    4.66
 -16  -8 -12    1.95    3.53
  16   8  12    0.32    3.28
 -16  -8 -13   11.64    4.42
  16   8  13    6.89    3.97
 -16  -8 -14   -2.60    3.32
  16   8  14    0.57   20.80
  16  -9   0    6.28    4.10
  16  -9   1    6.37    3.65
 -16   9  -1    6.97    3.61
  16  -9   2    1.09    3.20
 -16   9  -2    6.24    3.65
  16  -9   3    6.16    3.45
 -16  -9  -3    8.84    6.04
  16   9   3    0.57    5.11
 -16   9  -3    3.53    3.28
  16  -9   4    0.89    2.92
 -16  -9  -4   -0.53    5.51
  16   9   4   -3.41    4.54
 -16   9  -4   -3.32    2.96
  16  -9   5   -0.57    3.00
 -16  -9  -5    7.10    5.03
  16   9   5    5.60    4.18
 -16   9  -5   -0.45    2.72
  16  -9   6   -2.23    2.92
 -16  -9  -6    2.84    4.70
  16   9   6   -0.12    3.85
 -16   9  -6   -0.32    3.08
 -16  -9  -7    0.77    3.89
  16   9   7    2.23    3.73
 -16  -9  -8   -0.04    3.61
  16   9   8    0.73    3.53
 -16  -9  -9    9.85    4.30
  16   9   9    4.99    3.49
 -16  -9 -10    1.38    3.73
  16   9  10    1.34    3.28
 -16  -9 -11    4.30    3.53
  16   9  11    3.45    3.61
 -16  -9 -12   -2.92    3.04
  16   9  12    0.45    3.41
 -16  -9 -13    2.11    3.20
  16   9  13    3.08    3.57
  16 -10   0  376.48   46.95
 -16  10   0  369.79   46.06
  16 -10   1   32.28    6.37
  16 -10  -1   52.14    8.88
 -16  10  -1   35.28    6.73
  16 -10   2  134.78   17.88
 -16  10  -2  141.55   18.61
  16 -10   3   12.25    3.85
 -16 -10  -3   11.76    6.08
  16  10   3   34.95    8.23
 -16  10  -3    6.12    3.89
  16 -10   4   32.11    6.16
 -16 -10  -4   22.87    7.38
  16  10   4   16.62    6.04
 -16  10  -4   21.57    4.95
  16 -10   5    4.58    3.49
 -16 -10  -5    9.37    5.23
  16  10   5    0.45    3.97
 -16  10  -5    2.43    3.20
  16 -10   6    2.43    3.28
 -16 -10  -6    2.27    4.34
  16  10   6    2.92    3.89
 -16  10  -6    7.01    3.45
  16  10   7    6.53    4.26
 -16  10  -7   12.12    4.18
 -16 -10  -8    6.69    4.30
  16  10   8    4.78    3.73
 -16 -10  -9    6.08    3.89
  16  10   9    7.91    4.30
 -16 -10 -10   -1.87    3.61
  16  10  10    2.15    3.69
 -16 -10 -11    4.83    3.77
  16  10  11    1.30    3.24
 -16 -10 -12    3.93    3.93
  16  10  12    5.39    3.85
 -16 -10 -13   -0.57    3.24
  16  10  13   -1.18    3.08
  16 -11   0    3.12    3.37
 -16  11   0    8.43    3.77
  16 -11   1   14.76    4.50
 -16  11   1   12.85    4.54
  16 -11  -1   14.56    4.95
 -16  11  -1   10.18    3.81
  16 -11   2   -0.08    3.45
  16 -11  -2   -1.62    3.57
 -16  11  -2    2.47    3.16
  16 -11   3    4.34    3.57
 -16 -11  -3   -3.69    4.99
  16  11   3    5.68    5.43
 -16  11  -3    1.26    3.28
  16 -11   4    4.58    3.61
 -16 -11  -4    3.89    5.31
  16  11   4    2.11    4.78
 -16  11  -4   -0.41    3.00
  16 -11   5    9.37    3.89
 -16 -11  -5   -0.36    4.70
  16  11   5    0.24    3.77
 -16  11  -5    0.69    3.28
  16 -11   6   10.26    3.85
 -16 -11  -6    5.60    4.50
  16  11   6    0.97    4.22
 -16  11  -6    2.43    3.20
 -16 -11  -7    4.66    4.26
  16  11   7   -3.20    3.45
 -16  11  -7    6.08    3.61
 -16 -11  -8    2.47    3.65
  16  11   8    5.03    4.14
 -16 -11  -9   -0.77    3.85
  16  11   9    5.39    3.85
 -16 -11 -10   -1.54    3.77
  16  11  10    9.65    4.50
 -16 -11 -11   -2.07    3.53
  16  11  11   -2.19    2.96
 -16 -11 -12    1.58    3.49
  16  11  12    1.78    3.49
 -16 -11 -13   -0.97    3.53
  16  11  13   -0.45    3.04
  16 -12   0   16.83    4.83
 -16  12   0   18.37    4.87
  16 -12   1   10.87    4.14
 -16  12   1   12.53    4.38
  16 -12  -1   15.85    4.70
 -16  12  -1   18.69    4.66
  16 -12   2    8.39    4.18
 -16  12   2    9.33    4.14
  16  12   2   16.38    6.77
  16 -12  -2    4.66    3.85
 -16  12  -2    5.96    3.49
  16 -12   3    1.09    3.41
 -16 -12  -3   -0.69    5.27
  16  12   3   -1.46    5.15
  16 -12  -3    2.15    3.45
 -16  12  -3    0.49    3.41
  16 -12   4   19.54    5.15
 -16 -12  -4    0.61    5.31
  16  12   4    1.66    5.19
 -16  12  -4   11.80    4.26
  16 -12   5    3.08    3.65
 -16 -12  -5    6.37    5.03
  16  12   5    7.46    4.83
 -16  12  -5    7.83    4.05
  16 -12   6    2.64    3.16
 -16 -12  -6    7.91    4.95
  16  12   6    0.00    4.26
 -16  12  -6    4.42    3.28
  16 -12   7    3.61    3.89
 -16 -12  -7    6.28    4.50
  16  12   7    2.76    3.81
 -16  12  -7    8.56    4.14
 -16 -12  -8    9.08    4.87
  16  12   8    6.41    4.66
 -16 -12  -9    2.84    3.89
  16  12   9    2.11    3.65
 -16 -12 -10    0.69    3.53
  16  12  10    3.00    3.89
 -16 -12 -11    4.34    4.26
  16  12  11    5.51    4.05
 -16 -12 -12    0.89    3.61
  16  12  12   -4.54    3.41
  16 -13   0  146.94   19.83
 -16  13   0  117.83   16.22
  16 -13   1   12.12    4.38
 -16  13   1    6.89    3.65
  16 -13  -1   13.22    4.70
 -16  13  -1   23.40    5.39
  16 -13   2   20.84    5.51
 -16  13   2   37.63    7.10
  16  13   2   25.38    7.91
  16 -13  -2   39.41    7.26
 -16  13  -2   24.41    5.72
  16 -13   3   -2.96    3.28
 -16  13   3    2.07    3.53
 -16 -13  -3    1.01    5.23
  16 -13  -3   14.07    4.62
 -16  13  -3    0.97    3.37
  16 -13   4    7.66    3.97
 -16 -13  -4   18.25    6.61
  16  13   4   24.37    6.93
  16 -13  -4   20.56    5.43
 -16  13  -4   12.61    4.62
  16 -13   5    5.11    3.49
 -16 -13  -5    2.27    4.38
  16  13   5    4.74    4.54
 -16  13  -5    7.46    3.89
  16 -13   6    3.28    3.24
 -16 -13  -6   12.73    5.31
  16  13   6   15.16    5.76
 -16  13  -6   10.46    4.14
  16 -13   7   14.07    4.74
 -16 -13  -7    1.18    3.97
  16  13   7   11.60    5.03
 -16  13  -7    3.16    3.57
 -16 -13  -8    9.69    4.66
  16  13   8   13.02    5.92
 -16 -13  -9    3.61    4.14
  16  13   9    0.93    3.85
 -16 -13 -10   -1.42    3.57
  16  13  10   -0.69    3.73
 -16 -13 -11    3.65    4.05
  16  13  11    0.16    3.77
 -16 -13 -12   11.19    4.95
  16  13  12   21.08    6.24
  16 -14   0    0.20    3.32
 -16  14   0    1.62    3.04
  16 -14   1   -1.26    3.41
 -16  14   1   -1.62    2.92
  16 -14  -1    0.73    3.28
 -16  14  -1    2.64    3.28
  16 -14   2    2.39    3.53
 -16  14   2    2.47    3.53
 -16 -14  -2    8.27    5.68
  16  14   2    0.57    5.31
  16 -14  -2   -1.05    2.92
 -16  14  -2    0.89    3.61
  16 -14   3    2.15    3.65
 -16  14   3   -2.15    2.92
 -16 -14  -3   -4.26    4.58
  16  14   3    1.99    4.46
  16 -14  -3    3.69    3.32
 -16  14  -3    4.22    3.41
  16 -14   4    3.85    3.49
 -16  14   4    3.73    3.65
 -16 -14  -4   -3.77    4.38
  16  14   4    4.42    4.54
  16 -14  -4    2.68    3.49
 -16  14  -4    4.05    3.65
  16 -14   5    0.08    3.37
 -16 -14  -5    4.10    4.54
  16  14   5   -1.05    3.69
  16 -14  -5    1.87    3.73
 -16  14  -5   -1.38    3.28
  16 -14   6    6.04    3.77
 -16 -14  -6    7.14    4.87
  16  14   6    3.89    4.74
 -16  14  -6    3.37    3.32
  16 -14   7    0.57    3.20
 -16 -14  -7   -3.89    3.73
  16  14   7    1.34    4.05
 -16  14  -7    2.60    3.37
 -16 -14  -8    3.53    3.93
  16  14   8   -4.78    3.93
 -16  14  -8    1.50    3.69
 -16 -14  -9    1.38    4.01
  16  14   9    0.28    3.65
 -16 -14 -10    1.09    3.45
  16  14  10   -0.89    3.57
 -16 -14 -11    2.07    4.01
  16  14  11    1.05    3.65
  16 -15   0    6.00    3.61
 -16  15   0    6.97    3.81
  16 -15   1    2.68    3.81
 -16  15   1    1.42    2.92
  16 -15  -1    1.01    3.49
 -16  15  -1    1.30    3.69
  16 -15   2   28.99    6.49
 -16  15   2   26.40    6.12
 -16 -15  -2   21.61    7.34
  16  15   2   12.29    6.24
  16 -15  -2   18.69    5.35
 -16  15  -2   23.96    6.16
  16 -15   3    2.35    3.49
 -16  15   3    3.53    3.49
 -16 -15  -3   21.17    7.01
  16  15   3    1.34    5.03
  16 -15  -3    2.76    3.32
 -16  15  -3    9.69    4.22
  16 -15   4   -0.85    3.16
 -16  15   4    1.74    3.53
 -16 -15  -4    4.42    4.62
  16  15   4    0.16    3.89
  16 -15  -4    1.42    3.49
 -16  15  -4   -1.18    3.24
  16 -15   5    5.80    3.89
 -16  15   5   -0.04    3.65
 -16 -15  -5   10.87    5.31
  16  15   5    4.26    4.26
  16 -15  -5    7.54    4.42
 -16  15  -5    4.99    3.93
 -16 -15  -6    1.66    4.14
  16  15   6   -3.41    3.97
 -16  15  -6    0.53    3.16
  16 -15   7    2.11    3.73
 -16 -15  -7   10.75    5.23
  16  15   7   12.04    5.35
 -16  15  -7    9.93    4.22
 -16 -15  -8   -1.01    3.37
  16  15   8    2.19    3.97
 -16  15  -8   11.43    5.19
 -16 -15  -9    8.43    4.58
  16  15   9    2.11    3.57
 -16 -15 -10   -0.24    3.85
  16  15  10   -0.32    3.57
 -16 -15 -11    1.66    3.85
  16  15  11    6.04    4.62
  16 -16   0    2.60    3.53
 -16  16   0    0.04    3.32
  16 -16   1    2.68    3.61
 -16  16   1    3.04    3.28
  16 -16  -1    0.69    3.24
 -16  16  -1    5.27    3.65
  16 -16   2   -1.95    3.32
 -16  16   2    2.03    3.32
 -16 -16  -2    7.30    5.60
  16  16   2   10.75    6.08
  16 -16  -2    6.53    3.69
 -16  16  -2    5.80    3.93
  16 -16   3    3.41    3.53
 -16  16   3   -1.42    3.16
 -16 -16  -3    1.66    4.18
  16  16   3    1.58    4.42
  16 -16  -3    0.16    3.24
 -16  16  -3    2.51    3.37
  16 -16   4   10.62    4.22
 -16  16   4    4.34    3.69
 -16 -16  -4    0.73    4.34
  16  16   4    4.70    4.22
  16 -16  -4   11.43    4.66
 -16  16  -4   15.85    5.03
  16 -16   5   -1.95    3.16
 -16  16   5    4.42    3.89
 -16 -16  -5    4.54    4.34
  16  16   5   -0.65    3.97
  16 -16  -5    0.85    3.65
 -16  16  -5   12.49    4.58
  16 -16   6    0.41    3.45
 -16 -16  -6    1.54    4.50
  16  16   6    9.24    5.43
 -16  16  -6    6.08    3.73
  16 -16   7    0.20    3.81
 -16 -16  -7    1.66    4.22
  16  16   7    1.74    3.93
 -16  16  -7   -2.96    3.53
 -16 -16  -8   -2.51    3.69
  16  16   8    3.93    4.14
 -16  16  -8   -0.85    3.77
 -16 -16  -9    7.99    4.58
  16  16   9    1.05    3.97
 -16 -16 -10    0.93    3.57
  16  16  10    4.18    4.18
  16 -17   0    7.74    4.10
 -16  17   0    0.65    3.28
  16 -17   1    2.39    3.49
 -16  17   1    2.68    3.57
  16  17   1    6.00    5.23
  16 -17  -1    4.54    3.69
 -16  17  -1    3.49    3.49
  16 -17   2   -0.69    3.20
 -16  17   2    5.43    3.57
 -16 -17  -2    3.04    4.78
  16  17   2   -0.12    4.87
  16 -17  -2    3.37    3.57
 -16  17  -2    2.15    3.61
  16 -17   3    2.07    3.53
 -16  17   3    6.57    4.10
 -16 -17  -3    3.32    4.54
  16  17   3   -3.00    4.30
  16 -17  -3    4.18    3.97
 -16  17  -3    2.96    3.37
  16 -17   4    2.72    3.32
 -16  17   4    2.23    3.69
 -16 -17  -4    4.34    4.70
  16  17   4    3.08    3.85
  16 -17  -4    1.18    3.45
 -16  17  -4    2.23    3.49
  16 -17   5   -2.55    3.20
 -16  17   5   -3.00    3.08
 -16 -17  -5    3.57    4.26
  16  17   5    2.84    4.34
  16 -17  -5   -0.28    3.49
 -16  17  -5    1.34    3.61
  16 -17   6   -0.41    3.57
 -16  17   6    0.53    3.69
 -16 -17  -6    1.74    4.10
  16  17   6    3.85    4.66
  16 -17  -6    0.08    3.57
 -16  17  -6    1.87    3.53
  16 -17   7    6.61    4.01
 -16 -17  -7   13.54    5.72
  16  17   7    3.32    4.10
  16 -17  -7    6.00    4.70
 -16  17  -7    5.19    4.58
  16 -17   8   -2.80    3.53
 -16 -17  -8   -3.81    3.45
  16  17   8    0.65    3.93
 -16  17  -8    0.49    3.65
 -16 -17  -9    1.22    3.77
  16  17   9    5.88    4.50
  16 -18   0    4.34    3.81
 -16  18   0    1.87    3.41
  16 -18   1   21.41    5.84
 -16  18   1   26.64    6.65
  16  18   1   13.58    5.92
  16 -18  -1   23.31    6.04
 -16  18  -1   12.89    4.91
  16 -18   2    5.35    3.93
 -16  18   2    2.55    3.41
 -16 -18  -2    4.58    4.66
  16  18   2   -2.60    4.54
  16 -18  -2   -0.12    3.28
 -16  18  -2    0.45    3.20
  16 -18   3   -1.95    2.80
 -16  18   3    1.05    3.28
 -16 -18  -3    0.04    4.54
  16  18   3    1.54    4.99
  16 -18  -3    0.12    3.57
 -16  18  -3    1.74    3.32
  16 -18   4    2.27    3.53
 -16  18   4   -0.57    3.32
 -16 -18  -4    3.16    4.70
  16  18   4    0.45    4.18
  16 -18  -4   -1.01    3.49
 -16  18  -4    3.24    3.65
  16 -18   5   -1.87    3.53
 -16  18   5   -0.41    3.41
 -16 -18  -5   -1.34    4.34
  16  18   5    7.14    6.04
  16 -18  -5   -2.27    3.24
 -16  18  -5    0.16    3.89
  16 -18   6    1.05    3.37
 -16  18   6    0.00    3.61
 -16 -18  -6    3.81    4.38
  16  18   6    5.39    4.95
  16 -18  -6    0.12    3.53
 -16  18  -6    5.56    3.65
  16 -18   7    7.30    4.42
 -16  18   7   13.66    5.51
 -16 -18  -7    4.99    4.46
  16  18   7    4.70    4.54
  16 -18  -7   14.35    5.60
 -16  18  -7   12.93    5.15
  16 -18   8    4.34    4.01
 -16 -18  -8    1.38    3.61
  16  18   8    2.15    4.30
  16 -18  -8    3.04    4.01
 -16  18  -8   -0.53    3.81
  16 -19   0    0.20    3.53
 -16  19   0   -3.61    3.24
  16 -19   1    0.89    3.77
 -16  19   1    2.51    3.53
 -16 -19  -1    1.99    5.15
  16  19   1    9.04    6.08
  16 -19  -1   -3.04    3.20
 -16  19  -1    0.89    3.45
  16 -19   2    3.24    3.45
 -16  19   2    1.38    3.45
 -16 -19  -2   -1.78    4.99
  16  19   2   -0.16    4.87
  16 -19  -2   -1.09    3.00
 -16  19  -2    0.97    3.45
  16 -19   3    1.62    3.37
 -16  19   3    2.68    3.45
 -16 -19  -3    1.82    4.74
  16  19   3    3.24    5.19
  16 -19  -3   -1.87    3.16
 -16  19  -3    0.20    3.12
  16 -19   4    5.76    3.81
 -16  19   4    1.74    3.20
 -16 -19  -4    2.92    4.66
  16  19   4   -1.09    4.14
  16 -19  -4    1.42    3.77
 -16  19  -4   -0.57    3.04
  16 -19   5   -0.08    3.81
 -16  19   5    0.16    3.57
 -16 -19  -5    2.64    4.54
  16  19   5    2.39    4.87
  16 -19  -5    1.01    3.49
 -16  19  -5    0.85    3.77
  16 -19   6   -1.05    3.53
 -16  19   6    0.45    3.24
 -16 -19  -6    1.87    4.42
  16  19   6    0.12    4.22
  16 -19  -6    1.38    3.65
 -16  19  -6   -1.42    3.28
  16 -19   7    0.12    3.65
 -16  19   7    1.30    3.65
 -16 -19  -7    2.88    4.10
  16  19   7    1.09    4.14
  16 -19  -7    7.22    4.30
 -16  19  -7    1.95    3.69
  16 -19   8   -0.61    3.77
 -16  19   8   -1.34    3.57
 -16 -19  -8    0.32    3.77
  16  19   8   -4.26    3.41
  16 -19  -8    1.58    4.50
 -16  19  -8   -0.41    4.05
  16 -20   0   12.00    4.99
 -16  20   0    3.04    3.89
  16 -20   1    2.19    3.77
 -16  20   1    1.78    3.61
 -16 -20  -1   -4.54    5.35
  16  20   1   -1.18    4.62
  16 -20  -1    3.12    3.81
 -16  20  -1    3.24    3.53
  16 -20   2    3.57    4.22
 -16  20   2    3.16    3.97
 -16 -20  -2   11.84    6.49
  16  20   2    5.07    4.99
  16 -20  -2    6.61    4.26
 -16  20  -2    8.23    4.38
  16 -20   3   -3.61    3.04
 -16  20   3    3.32    3.57
 -16 -20  -3   -0.49    4.18
  16  20   3   -1.74    4.70
  16 -20  -3    1.58    3.57
 -16  20  -3    0.41    3.32
  16 -20   4   -0.28    3.57
 -16  20   4    0.69    3.37
  16  20   4   -1.91    4.10
  16 -20  -4    2.27    3.81
 -16  20  -4    2.19    3.57
  16 -20   5   -0.85    3.69
 -16  20   5   -0.12    3.41
 -16 -20  -5    3.12    4.10
  16  20   5    1.66    4.46
  16 -20  -5    1.54    3.97
 -16  20  -5   -0.12    3.73
  16 -20   6    7.54    4.54
 -16  20   6    8.27    5.11
 -16 -20  -6   10.42    5.39
  16  20   6    3.85    5.11
  16 -20  -6    7.46    4.62
 -16  20  -6    3.45    4.14
  16  21   0   -6.28    4.95
  16 -21   0    7.46    4.05
 -16  21   0    1.18    3.73
  16 -21   1    3.49    3.89
 -16  21   1    6.33    4.10
 -16 -21  -1    8.27    5.64
  16  21   1    1.74    5.07
  16 -21  -1    7.18    4.54
 -16  21  -1    5.92    4.18
  16 -21   2    7.06    4.46
 -16  21   2   -0.04    3.57
 -16 -21  -2    3.65    5.31
  16  21   2   -1.82    4.22
  16 -21  -2    1.26    3.73
 -16  21  -2    2.76    3.85
  16 -21   3    4.05    3.61
 -16  21   3    3.93    4.05
 -16 -21  -3    2.92    4.95
  16  21   3   -0.89    4.38
  16 -21  -3   -0.81    3.77
 -16  21  -3    0.73    3.41
  16 -21   4    0.77    3.57
 -16  21   4    1.50    3.61
 -16 -21  -4    1.91    3.97
  16  21   4    3.00    3.73
  16 -21  -4   11.39    5.19
 -16  21  -4    2.47    3.81
  16 -21   5    2.92    4.18
 -16  21   5    3.97    3.97
 -16 -21  -5    0.77    4.26
  16  21   5    1.09    4.87
  16 -21  -5   -0.12    4.01
 -16  21  -5    0.61    3.69
  16  22   0   -2.31    4.22
  16 -22   0   -3.04    3.89
 -16  22   0   -2.80    3.89
  16 -22   1   -0.81    3.69
 -16  22   1   -3.85   13.34
 -16 -22  -1    2.43    5.35
  16  22   1    1.50    4.87
  16 -22  -1    0.81    3.49
 -16  22  -1    0.65    3.65
  16 -22   2    3.45    4.22
 -16  22   2   -3.41    3.77
 -16 -22  -2   -0.53    4.38
  16  22   2   -1.70    4.74
  16 -22  -2    1.26    3.97
 -16  22  -2    1.66    3.69
  17   0   5    5.23    2.80
  17   0   7    1.82    2.03
 -17   0  -7    4.14    2.43
  17   0   8    4.74    2.23
 -17   0  -8    3.12    2.03
  17   1   5    4.54    3.28
  17  -1   6   -3.00    1.62
 -17  -1  -6   -0.20    2.80
  17   1   6    2.88    2.43
 -17   1  -6    2.51    2.07
  17  -1   7    1.38    1.50
 -17  -1  -7    8.03    2.92
  17   1   7    2.76    2.80
 -17   1  -7    1.26    1.70
 -17  -1  -8   -1.14    2.23
  17   1   8    1.87    2.07
 -17  -1  -9    4.30    2.47
 -17  -2  -5    0.93    3.61
  17   2   5    0.45    3.41
  17  -2   6   11.64    1.95
 -17  -2  -6   10.06    3.65
  17   2   6    9.65    3.24
 -17   2  -6    6.16    1.46
 -17  -2  -7    2.15    2.80
  17   2   7    3.04    3.24
 -17  -2  -8    6.49    2.84
  17   2   8    9.16    3.00
 -17  -2  -9    0.77    2.60
  17   2   9    2.68    2.35
 -17  -2 -10    8.27    3.16
 -17  -3  -5    7.58    4.62
  17   3   5    7.18    4.05
 -17  -3  -6    0.65    3.20
  17   3   6    4.34    3.08
 -17  -3  -7   20.72    4.62
  17   3   7   27.41    5.27
 -17  -3  -8    4.91    3.16
  17   3   8    5.72    2.88
 -17  -3  -9   25.22    5.11
  17   3   9   15.94    3.81
 -17  -3 -10   -1.30    2.35
  17   3  10   -0.04    2.47
 -17  -3 -11    1.87    2.96
  17  -4   5    0.32    1.38
 -17  -4  -5   -0.61    4.10
  17   4   5   -0.81    3.53
 -17  -4  -6    0.73    3.57
  17   4   6    1.34    3.45
 -17  -4  -7    0.97    3.28
  17   4   7   -0.12    2.96
 -17  -4  -8    2.51    3.20
  17   4   8    0.16    3.28
 -17  -4  -9    2.55    2.92
  17   4   9    3.00    2.88
 -17  -4 -10    0.49    2.76
  17   4  10    0.81    2.43
 -17  -4 -11   -0.41    2.72
  17   4  11    1.42    2.84
 -17  -4 -12    3.69    3.32
  17  -5   4   -1.38    1.95
  17   5   4    2.76    4.42
  17  -5   5    2.88    1.74
 -17  -5  -5   13.71    5.11
  17   5   5    5.64    3.97
 -17   5  -5    5.15    1.78
 -17  -5  -6    6.93    4.34
  17   5   6   25.54    5.84
 -17   5  -6    8.35    2.11
 -17  -5  -7   25.50    5.60
  17   5   7   14.35    4.22
 -17  -5  -8   16.42    4.50
  17   5   8   11.19    4.18
 -17  -5  -9    2.84    3.28
  17   5   9    7.46    3.41
 -17  -5 -10    3.08    2.96
  17   5  10    4.99    3.28
 -17  -5 -11    1.01    2.84
  17   5  11    3.28    3.16
  17   5  12    3.89    3.28
 -17  -5 -13   -1.22    2.96
  17  -6   3    4.46    2.76
  17  -6   4   10.54    2.92
 -17  -6  -4    6.97    5.35
  17   6   4   16.75    5.47
 -17   6  -4    5.23    2.27
  17  -6   5    1.70    2.03
 -17  -6  -5    1.78    4.50
  17   6   5   -0.08    3.49
 -17   6  -5    4.10    2.47
  17  -6   6    3.85    2.27
 -17  -6  -6    3.57    4.05
  17   6   6    9.33    4.50
 -17   6  -6    2.76    1.91
 -17  -6  -7   -2.72    3.69
  17   6   7   -0.24    3.04
 -17  -6  -8    0.08    3.24
  17   6   8   10.75    3.93
 -17  -6  -9    1.46    3.32
  17   6   9    1.99    2.84
 -17  -6 -10   -1.46    3.00
  17   6  10    6.16    3.32
 -17  -6 -11    4.26    3.32
  17   6  11   -0.69    2.80
 -17  -6 -12    1.82    2.68
  17   6  12   -0.45    2.80
 -17  -6 -13    0.69    3.28
  17   6  13    2.92    3.24
 -17  -6 -14   -1.38    3.24
  17  -7   2    7.87    3.41
  17  -7   3   81.46   10.99
 -17   7  -3   78.30   10.62
  17  -7   4    7.66    3.16
 -17  -7  -4   10.70    5.68
  17   7   4   -0.69    4.66
 -17   7  -4   10.46    3.04
 -17  -7  -5   55.35   10.02
  17   7   5   44.03    8.11
 -17   7  -5   65.93    8.96
  17  -7   6    0.93    2.43
 -17  -7  -6    5.35    4.46
  17   7   6    0.57    3.65
 -17   7  -6    2.55    2.35
 -17  -7  -7   12.49    4.66
  17   7   7    3.41    3.41
 -17  -7  -8    2.72    3.57
  17   7   8   -2.43    3.16
 -17  -7  -9   11.92    4.54
  17   7   9   10.26    3.81
 -17  -7 -10    3.37    3.37
  17   7  10    2.47    2.92
 -17  -7 -12   13.95    4.66
  17   7  12    5.80    3.49
 -17  -7 -13   26.32    6.04
  17   7  13   26.68    6.12
  17  -8   1    0.16    3.00
  17  -8   2   65.28    9.45
 -17   8  -2   64.79    9.41
  17  -8   3   31.55    5.60
 -17   8  -3   40.91    6.53
 -17  -8  -4  239.31   31.59
 -17   8  -4  247.87   30.78
  17  -8   5   13.95    3.57
 -17  -8  -5    8.11    5.31
  17   8   5    1.54    3.85
 -17   8  -5    4.99    2.60
 -17  -8  -6   14.92    5.51
  17   8   6   26.68    6.41
 -17   8  -6   28.83    5.11
 -17  -8  -7    2.92    3.85
  17   8   7    2.23    3.69
 -17  -8  -9   18.90    5.15
  17   8   9    5.11    3.77
 -17  -8 -11    2.68    3.20
  17   8  11    2.35    3.16
 -17  -8 -12   21.13    5.43
  17   8  12   10.46    4.18
 -17  -8 -13    1.30    3.04
  17   8  13   -0.08    3.32
  17  -9   1    7.06    3.77
 -17   9  -1    4.74    3.28
  17  -9   2    7.95    3.45
 -17   9  -2    2.11    2.80
  17  -9   3    1.62    2.76
  17   9   3    1.62    4.66
 -17   9  -3    3.00    2.96
  17  -9   4    2.15    2.84
 -17  -9  -4    6.12    5.68
  17   9   4    1.05    4.50
 -17   9  -4    4.46    3.32
  17  -9   5    1.30    2.68
 -17  -9  -5    3.93    4.58
  17   9   5   -3.00    3.57
 -17   9  -5    1.58    2.55
  17  -9   6   -2.23    2.76
 -17  -9  -6    2.64    4.22
  17   9   6    1.01    3.89
 -17   9  -6    2.31    2.76
 -17  -9  -7    3.53    3.85
  17   9   7    3.65    3.57
 -17   9  -7    2.51    2.84
 -17  -9  -8    4.58    3.89
  17   9   8    0.65    3.41
 -17  -9  -9    5.31    3.65
  17   9   9    0.32    3.12
 -17  -9 -10    3.57    3.81
  17   9  10    0.73    3.37
 -17  -9 -11    6.20    3.65
  17   9  11    2.76    3.28
 -17  -9 -12    3.89    3.57
  17   9  12    6.45    3.85
 -17  -9 -13    3.61    3.49
  17   9  13    0.61    2.96
  17 -10   0    1.62    3.20
 -17  10   0    9.53    3.65
  17 -10   1    3.65    3.12
 -17  10  -1    6.81    3.20
  17 -10   2    5.80    3.12
 -17  10  -2   -1.18    2.39
  17 -10   3    2.07    3.08
  17  10   3    1.34    5.07
  17 -10   4   36.74    6.49
 -17 -10  -4   38.44    8.76
  17  10   4   70.39   11.96
 -17  10  -4   62.32    9.29
  17 -10   5   -0.41    2.84
 -17 -10  -5   10.70    5.31
  17  10   5    2.15    4.05
 -17  10  -5    9.08    3.37
 -17 -10  -6   10.38    4.99
  17  10   6    2.76    4.46
 -17  10  -6   19.99    4.46
 -17 -10  -7    9.33    4.62
  17  10   7    1.01    3.28
 -17  10  -7    4.14    3.12
 -17 -10  -9    0.69    3.41
  17  10   9    0.45    3.16
 -17 -10 -10    3.85    3.85
  17  10  10    0.61    3.28
 -17 -10 -11    3.61    3.77
  17  10  11    0.36    3.12
 -17 -10 -12    2.68    3.61
  17  10  12    3.77    3.65
 -17 -10 -13    0.49    3.32
  17  10  13   -0.45    3.77
  17 -11   0    2.55    3.12
 -17  11   0    2.39    3.08
  17 -11   1    4.50    3.41
 -17  11   1    4.74    3.45
  17 -11  -1    2.43    3.49
 -17  11  -1    7.42    3.45
  17 -11   2   -1.09    3.04
 -17  11  -2    1.50    2.68
  17 -11   3    5.56    3.49
 -17 -11  -3   11.43    5.96
  17  11   3    5.23    5.43
 -17  11  -3    4.05    3.73
  17 -11   4    4.34    3.20
 -17 -11  -4   10.42    5.35
  17  11   4    1.18    4.42
 -17  11  -4    5.72    3.28
  17 -11   5    7.46    3.61
 -17 -11  -5    6.00    4.58
  17  11   5   13.79    5.23
 -17  11  -5    7.18    3.20
  17 -11   6    2.55    2.80
 -17 -11  -6    4.50    3.97
  17  11   6    0.12    3.89
 -17  11  -6    1.99    2.80
  17 -11   7   -1.54    3.00
 -17 -11  -7    2.92    3.93
  17  11   7    7.99    4.38
 -17  11  -7    4.46    3.37
 -17 -11  -8    8.72    4.62
  17  11   8    3.32    3.93
 -17 -11  -9    4.26    4.01
  17  11   9    1.82    3.77
 -17 -11 -10    0.45    3.37
  17  11  10    4.34    3.73
 -17 -11 -11    1.05    4.05
  17  11  11    0.04    3.16
 -17 -11 -12    0.20    3.20
  17  11  12   -0.69    3.57
  17 -12   0    1.42    2.80
 -17  12   0    0.57    3.00
  17 -12   1   -1.91    2.96
 -17  12   1    2.27    3.04
  17 -12  -1    0.20    2.96
 -17  12  -1    3.41    3.04
  17 -12   2   26.32    5.64
  17 -12  -2   25.18    5.88
 -17  12  -2   33.25    6.20
  17 -12   3    4.58    3.49
 -17 -12  -3    7.70    5.84
  17  12   3    5.15    5.19
 -17  12  -3    5.03    3.37
  17 -12   4  124.48   16.99
 -17  12  -4  102.71   14.43
  17 -12   5    4.54    3.45
 -17 -12  -5   -2.76    3.97
  17  12   5   -1.62    3.69
 -17  12  -5    2.88    3.04
  17 -12   6    9.77    3.93
 -17 -12  -6    0.08    3.85
  17  12   6    5.92    4.70
 -17  12  -6    7.18    3.65
  17 -12   7    3.12    3.49
 -17 -12  -7    2.39    3.81
  17  12   7    0.20    3.57
 -17  12  -7    2.39    3.24
 -17 -12  -8    2.84    4.18
  17  12   8    3.49    4.34
 -17 -12  -9   -0.04    3.28
  17  12   9    2.92    3.53
 -17 -12 -10   48.45    9.24
  17  12  10   24.94    6.45
 -17 -12 -11    1.30    3.93
  17  12  11    6.41    4.14
 -17 -12 -12    9.85    4.74
  17  12  12   15.41    5.43
  17 -13   0    0.41    3.28
 -17  13   0    1.50    3.04
  17 -13   1  132.83   18.08
 -17  13   1  119.33   16.58
  17 -13  -1  130.40   17.84
 -17  13  -1  158.42   21.00
  17 -13   2   32.56    6.53
 -17  13   2   45.01    8.07
  17 -13  -2   23.31    5.60
 -17  13  -2   43.95    7.74
  17 -13   3  224.75   29.07
 -17 -13  -3  147.63   21.53
  17  13   3  231.24   31.26
  17 -13  -3  242.80   31.42
 -17  13  -3  172.00   22.91
  17 -13   4    1.46    3.20
 -17 -13  -4    7.46    5.35
  17  13   4   18.08    6.33
 -17  13  -4    1.34    3.12
  17 -13   5   61.83    9.85
 -17 -13  -5   65.16   11.52
  17  13   5   39.98    8.88
 -17  13  -5   79.55   11.76
  17 -13   6    8.84    3.65
 -17 -13  -6   10.70    5.15
  17  13   6    5.64    4.54
 -17  13  -6    5.27    3.49
  17 -13   7    1.74    3.41
 -17 -13  -7    4.38    3.97
  17  13   7   13.06    5.39
 -17  13  -7    6.81    3.61
 -17 -13  -8    0.97    4.10
  17  13   8    3.97    4.14
 -17  13  -8    1.82    3.41
 -17 -13  -9   36.98    8.07
  17  13   9   46.51    9.16
 -17 -13 -10    0.20    3.61
  17  13  10    2.43    3.77
 -17 -13 -11   29.15    7.54
  17  13  11   29.52    7.26
  17 -14   0    2.84    3.28
 -17  14   0    2.96    2.96
  17 -14   1    0.77    3.08
 -17  14   1   -0.45    2.76
  17 -14  -1    0.41    3.08
 -17  14  -1    1.34    3.28
  17 -14   2    2.51    3.53
 -17  14   2   -0.32    3.20
  17  14   2   -3.97    4.50
  17 -14  -2   -0.77    2.92
 -17  14  -2    1.38    3.37
  17 -14   3    2.11    3.20
 -17  14   3    1.14    3.37
 -17 -14  -3   -1.62    4.74
  17  14   3    0.97    4.87
  17 -14  -3    3.20    3.65
 -17  14  -3    0.28    3.08
  17 -14   4    2.43    3.16
 -17 -14  -4    3.93    4.74
  17  14   4    3.93    4.54
  17 -14  -4    2.88    3.53
 -17  14  -4    1.46    3.08
  17 -14   5    6.33    3.57
 -17 -14  -5   -2.11    3.81
  17  14   5   -0.36    3.85
 -17  14  -5    1.46    3.08
  17 -14   6    0.57    2.92
 -17 -14  -6    0.24    3.65
  17  14   6    5.27    4.62
 -17  14  -6    2.84    3.37
  17 -14   7   -3.85    3.73
 -17 -14  -7    0.77    3.53
  17  14   7   -1.26    3.45
 -17  14  -7   -1.82    3.08
 -17 -14  -8    0.81    3.77
  17  14   8    0.65    3.81
 -17  14  -8   -0.49    3.57
 -17 -14  -9   -1.58    3.37
  17  14   9    0.57    4.34
 -17 -14 -10    0.49    3.77
  17  14  10    4.14    3.81
 -17 -14 -11   -3.61    7.10
  17  14  11   -0.85    3.53
  17 -15   0   -1.09    3.08
 -17  15   0    4.91    3.28
  17 -15   1    0.32    3.08
 -17  15   1   -2.43    2.80
  17 -15  -1   13.50    4.62
 -17  15  -1    1.54    3.08
  17 -15   2    4.58    3.53
 -17  15   2    1.42    3.04
  17  15   2   -1.18    4.66
  17 -15  -2    1.95    3.24
 -17  15  -2    0.77    3.24
  17 -15   3   36.86    7.34
 -17  15   3   35.76    7.30
 -17 -15  -3   24.65    7.50
  17  15   3   24.94    7.26
  17 -15  -3   25.14    6.00
 -17  15  -3   26.27    6.08
  17 -15   4    0.61    2.96
 -17  15   4    3.41    3.57
 -17 -15  -4    1.18    4.34
  17  15   4   -1.99    4.42
  17 -15  -4   -2.11    3.37
 -17  15  -4    2.43    3.24
  17 -15   5    4.78    3.45
 -17 -15  -5    3.61    4.34
  17  15   5    1.54    4.30
  17 -15  -5    2.64    3.69
 -17  15  -5    2.88    3.41
  17 -15   6    0.89    3.24
 -17 -15  -6    2.31    4.30
  17  15   6    0.49    4.54
 -17  15  -6    2.03    3.49
  17 -15   7    2.15    3.45
 -17 -15  -7    0.20    4.01
  17  15   7    3.49    4.18
 -17  15  -7   10.30    4.26
 -17 -15  -8    2.11    4.01
  17  15   8    5.27    4.18
 -17  15  -8    1.14    3.49
 -17 -15  -9    1.54    3.73
  17  15   9   -3.41    3.77
 -17 -15 -10    4.38    4.10
  17  15  10    1.91    3.81
  17 -16   0    5.60    3.69
 -17  16   0   -0.61    3.04
  17 -16   1    5.51    3.73
 -17  16   1    1.14    3.04
  17 -16  -1    3.00    3.32
 -17  16  -1    4.18    3.61
  17 -16   2   26.36    6.28
 -17  16   2    6.20    3.81
 -17 -16  -2   11.03    5.56
  17  16   2   13.30    5.92
  17 -16  -2   10.87    4.50
 -17  16  -2   18.17    5.51
  17 -16   3    6.45    4.26
 -17  16   3    6.61    4.01
 -17 -16  -3    4.30    4.95
  17  16   3    9.49    5.27
  17 -16  -3    7.14    4.10
 -17  16  -3    6.85    3.93
  17 -16   4    9.61    4.26
 -17  16   4   10.79    4.62
 -17 -16  -4    9.77    5.23
  17  16   4   18.17    6.57
  17 -16  -4   16.83    5.47
 -17  16  -4   10.26    4.34
  17 -16   5    1.87    3.57
 -17  16   5   -0.81    3.37
 -17 -16  -5   13.06    5.56
  17  16   5    6.33    4.46
  17 -16  -5    2.11    3.81
 -17  16  -5   -0.32    3.16
  17 -16   6    2.92    3.77
 -17 -16  -6    8.88    5.31
  17  16   6   -1.05    4.78
  17 -16  -6   -2.60    3.57
 -17  16  -6    4.05    3.89
  17 -16   7    1.66    3.37
 -17 -16  -7   -1.82    4.18
  17  16   7   -2.72    3.65
 -17  16  -7    0.00    3.32
  17 -16   8    3.81    3.85
 -17 -16  -8    1.01    3.53
  17  16   8    3.45    3.97
 -17  16  -8    3.93    3.61
 -17 -16  -9   -0.32    3.73
  17  16   9    5.51    4.22
  17 -17   0    2.96    3.41
 -17  17   0    0.93    3.20
  17 -17   1    1.70    3.37
 -17  17   1    2.72    3.12
  17 -17  -1    1.58    3.57
 -17  17  -1   -0.32    3.16
  17 -17   2    4.46    3.77
 -17  17   2    0.73    3.20
 -17 -17  -2    0.85    4.62
  17  17   2   -3.45    4.70
  17 -17  -2    1.14    3.24
 -17  17  -2    3.73    3.53
  17 -17   3   12.98    4.58
 -17  17   3    4.58    3.85
 -17 -17  -3   11.35    5.88
  17  17   3    3.85    4.91
  17 -17  -3    6.16    4.05
  17 -17   4    2.88    3.32
 -17  17   4    2.27    3.49
 -17 -17  -4   -1.87    4.42
  17  17   4    0.81    4.42
  17 -17  -4   -0.04    3.28
 -17  17  -4    0.65    3.16
  17 -17   5    1.91    3.61
 -17  17   5   -0.93    3.00
 -17 -17  -5    2.11    4.34
  17  17   5    6.53    5.11
  17 -17  -5    3.45    3.77
 -17  17  -5    1.78    3.24
  17 -17   6   -0.53    3.49
 -17  17   6    1.30    3.53
 -17 -17  -6   -4.14    3.93
  17  17   6    0.12    4.50
  17 -17  -6    0.45    3.45
 -17  17  -6    2.31    3.69
  17 -17   7    1.50    3.49
 -17 -17  -7   -0.12    3.97
  17  17   7   15.69    6.04
  17 -17  -7    4.26    3.89
 -17  17  -7    8.92    4.14
  17 -17   8   -0.53    3.73
 -17 -17  -8   -0.08    3.69
  17  17   8    1.58    3.85
 -17  17  -8    0.41    3.45
 -17 -17  -9    0.08    4.14
  17  17   9    2.92    4.38
 -17  17  -9   -1.38    3.49
  17 -18   0    0.16    3.32
 -17  18   0    0.65    3.41
  17 -18   1    2.07    3.41
 -17  18   1    1.46    3.28
  17  18   1    6.57    5.64
  17 -18  -1    2.39    3.49
 -17  18  -1    0.65    3.49
  17 -18   2   28.02    6.57
 -17  18   2   42.94    8.23
 -17 -18  -2   32.52    8.96
  17  18   2   37.34    9.49
  17 -18  -2   25.95    6.53
 -17  18  -2   30.21    6.69
  17 -18   3    5.72    4.01
 -17  18   3    2.47    3.57
 -17 -18  -3    1.95    5.27
  17  18   3   17.52    7.01
  17 -18  -3    6.12    4.30
 -17  18  -3    5.07    3.77
  17 -18   4   53.85    9.61
 -17  18   4   55.02   10.06
 -17 -18  -4   49.10   10.42
  17  18   4   38.44    9.53
  17 -18  -4   52.14    9.85
 -17  18  -4   63.50   10.70
  17 -18   5    1.14    3.65
 -17  18   5    0.20    3.61
 -17 -18  -5    1.74    4.05
  17  18   5    1.42    3.69
  17 -18  -5    2.47    3.89
 -17  18  -5    0.53    3.61
  17 -18   6    0.85    3.41
 -17  18   6    1.50    3.69
 -17 -18  -6   10.95    4.95
  17  18   6    4.01    5.15
  17 -18  -6    6.85    4.46
 -17  18  -6    6.00    4.14
  17 -18   7    4.26    3.65
 -17  18   7   -2.51    3.85
 -17 -18  -7    1.14    4.10
  17  18   7    1.50    4.18
  17 -18  -7   -0.93    3.81
 -17  18  -7   -2.47    2.92
  17 -18   8    0.97    3.81
 -17 -18  -8    6.24    6.37
  17  18   8    5.07    4.18
  17 -18  -8    0.04    3.69
 -17  18  -8    1.50    3.81
  17 -19   0    2.47    3.49
 -17  19   0    0.89    3.49
  17 -19   1    1.42    3.49
 -17  19   1   -0.16    3.32
  17  19   1    3.12    5.03
  17 -19  -1   -0.08    3.41
 -17  19  -1   -1.54    3.12
  17 -19   2   -0.04    3.41
 -17  19   2    4.22    3.53
 -17 -19  -2    2.92    4.78
  17  19   2   -0.61    4.38
  17 -19  -2   -2.35    3.28
 -17  19  -2    0.16    3.28
  17 -19   3    6.97    4.05
 -17  19   3    5.07    3.65
 -17 -19  -3   -1.54    4.38
  17  19   3    2.03    4.38
  17 -19  -3    3.77    3.77
 -17  19  -3    0.36    3.53
  17 -19   4    0.57    3.49
 -17  19   4    2.92    3.81
 -17 -19  -4    3.04    4.58
  17  19   4   -1.78    4.05
  17 -19  -4   -0.97    3.69
 -17  19  -4   -3.32    3.04
  17 -19   5    3.20    4.10
 -17  19   5    0.16    3.45
 -17 -19  -5   -1.22    3.81
  17  19   5   -2.39    4.01
  17 -19  -5    3.65    3.73
 -17  19  -5    3.41    3.49
  17 -19   6    2.68    3.81
 -17  19   6    2.27    3.69
 -17 -19  -6    4.95    4.10
  17  19   6    6.33    4.74
  17 -19  -6    0.81    3.81
 -17  19  -6    1.30    3.61
  17 -19   7    4.54    3.89
 -17  19   7    0.65    3.49
 -17 -19  -7   -1.05    4.38
  17  19   7   -0.16    3.93
 -17  19  -7    0.20    3.00
  17 -20   0    0.45    3.53
 -17  20   0   -2.27    3.16
  17 -20   1    1.66    3.85
 -17  20   1    5.11    3.73
  17  20   1   -0.24    4.74
  17 -20  -1    1.46    3.65
 -17  20  -1    2.03    4.05
  17 -20   2   28.18    6.93
 -17  20   2    2.19    3.41
 -17 -20  -2    7.50    5.39
  17  20   2    3.65    4.78
  17 -20  -2    5.35    3.85
 -17  20  -2    4.91    3.93
  17 -20   3   -0.45    3.61
 -17  20   3   -0.08    3.53
 -17 -20  -3   -0.49    4.01
  17  20   3    3.20    4.78
  17 -20  -3    0.65    3.61
 -17  20  -3    0.93    3.41
  17 -20   4    4.05    3.77
 -17  20   4    4.87    4.01
 -17 -20  -4   12.81    5.92
  17  20   4    4.18    4.70
  17 -20  -4    5.60    4.66
 -17  20  -4    3.73    3.89
  17 -20   5    2.19    3.57
 -17  20   5    4.38    3.97
 -17 -20  -5    5.27    3.93
  17  20   5    0.81    4.10
  17 -20  -5    3.77    4.10
 -17  20  -5   -0.61    3.16
  17 -21   0    2.55    3.69
 -17  21   0    0.16    3.61
  17 -21   1    6.33    4.14
 -17  21   1    3.32    3.65
 -17 -21  -1    0.41    4.34
  17  21   1    2.68    4.91
  17 -21  -1   -1.58    3.81
 -17  21  -1    1.09    3.41
  17 -21   2   -1.78    3.53
 -17  21   2    2.47    3.65
 -17 -21  -2    1.87    4.62
  17  21   2    2.35    4.87
  17 -21  -2   -1.42    3.32
 -17  21  -2   -0.89    3.41
  17 -21   3    0.93    3.73
 -17  21   3    4.91    4.30
 -17 -21  -3   -0.69    4.30
  17  21   3    0.85    4.34
  17 -21  -3    4.46    3.73
 -17  21  -3    0.57    3.53
  18   0   6   49.06    6.93
 -18   0  -6   54.25    7.62
  18   0   7   -0.32    2.27
 -18   0  -7    0.41    2.07
  18   0   8   74.16    9.73
 -18   0  -8   70.63    9.37
 -18   0  -9   17.15    3.45
  18   1   5    3.65    3.04
  18  -1   6    1.34    1.95
 -18  -1  -6    5.43    2.72
  18   1   6    2.84    2.76
 -18   1  -6    2.88    2.11
  18  -1   7   31.51    4.42
 -18  -1  -7   29.56    4.99
  18   1   7   33.53    5.35
 -18   1  -7   35.80    5.15
 -18  -1  -8    2.31    2.19
  18   1   8    0.89    2.11
 -18   1  -8    2.92    1.74
 -18  -1  -9    2.72    2.31
  18   1   9    2.88    2.27
 -18  -1 -10   -0.16    2.47
  18   2   5    4.34    3.37
  18  -2   6    3.53    1.34
 -18  -2  -6    3.32    3.00
  18   2   6   -0.16    3.12
 -18   2  -6    0.69    1.38
 -18  -2  -7    0.24    2.43
  18   2   7    0.08    2.51
 -18   2  -7    1.58    1.30
 -18  -2  -8   21.08    4.54
  18   2   8   14.52    3.49
 -18  -2  -9    5.47    2.72
  18   2   9    4.74    2.43
 -18  -2 -10    2.23    2.51
  18   2  10    2.03    2.43
 -18  -2 -11    8.88    3.24
 -18  -3  -8    4.22    3.08
  18   3   8   10.42    3.61
 -18  -3  -9    4.05    2.64
  18   3   9    4.91    2.68
 -18  -3 -10    1.14    2.47
  18   3  10    3.85    2.80
 -18  -3 -11    3.45    3.24
  18   3  11    1.87    2.68
 -18  -3 -12    2.03    2.96
 -18  -4  -5    4.91    4.22
  18   4   5    1.22    3.69
 -18  -4  -6    2.76    3.77
  18   4   6    2.80    3.69
 -18  -4  -7   -0.24    3.00
  18   4   7   -0.12    3.00
 -18  -4  -8    3.93    3.12
  18   4   8   -0.32    3.32
 -18  -4  -9    0.32    2.88
  18   4   9    0.57    2.64
 -18  -4 -10   -0.49    2.51
  18   4  10    1.91    2.84
 -18  -4 -11   -0.28    2.60
  18   4  11    0.53    2.80
 -18  -4 -12   -0.28    2.84
 -18  -4 -13   -0.69    2.88
  18  -5   5    1.46    1.50
 -18  -5  -5   11.39    4.87
  18   5   5   -3.08    3.69
 -18   5  -5    2.55    1.38
  18  -5   6    6.53    1.87
 -18  -5  -6   10.66    4.38
  18   5   6   12.45    4.46
 -18   5  -6    9.29    1.95
 -18  -5  -7   91.27   13.10
  18   5   7  119.13   16.10
 -18  -5  -8    1.14    3.08
  18   5   8    2.15    2.96
 -18  -5  -9    7.50    3.65
  18   5   9    0.24    2.80
 -18  -5 -10    3.00    2.80
  18   5  10    1.82    2.80
 -18  -5 -11    6.81    3.41
  18   5  11   15.25    4.18
 -18  -5 -12   -0.04    2.76
  18   5  12    1.14    2.96
 -18  -5 -13   31.06    6.53
  18  -6   4   -1.34    1.78
  18   6   4    5.15    4.30
 -18   6  -4    0.04    1.91
  18  -6   5    1.42    2.07
 -18  -6  -5   -0.36    4.34
  18   6   5    1.18    3.89
 -18   6  -5    0.16    1.62
  18  -6   6    0.36    1.74
 -18  -6  -6   -0.04    3.61
  18   6   6    3.53    3.73
 -18   6  -6   -1.70    1.58
 -18  -6  -7    6.04    3.85
  18   6   7    1.01    3.04
 -18  -6  -8   14.03    4.38
  18   6   8   21.86    5.11
 -18  -6  -9   -0.08    3.08
  18   6   9   -1.70    3.24
 -18  -6 -10    4.91    3.28
  18   6  10    1.66    2.96
 -18  -6 -11    3.97    3.12
  18   6  11    2.31    3.04
 -18  -6 -12    1.66    2.84
  18   6  12    2.51    3.16
 -18  -6 -13   -1.66    2.43
  18   6  13    1.05    2.88
  18  -7   3    1.87    2.35
 -18   7  -3   10.42    3.08
  18  -7   4    0.69    2.03
  18   7   4    2.72    4.10
 -18   7  -4    1.74    2.15
  18  -7   5    7.74    2.64
 -18  -7  -5   20.03    6.28
  18   7   5    8.64    4.58
 -18   7  -5    8.15    2.92
  18  -7   6    0.93    2.03
 -18  -7  -6    4.50    4.10
  18   7   6   -1.62    3.45
 -18   7  -6    2.84    2.07
 -18  -7  -7    5.80    4.10
  18   7   7    4.05    3.37
 -18   7  -7   -0.36    1.99
 -18  -7  -8    8.15    3.85
  18   7   8   -1.01    3.00
 -18  -7  -9   -1.95    3.08
  18   7   9    0.53    3.00
 -18  -7 -10    0.49    3.45
  18   7  10    0.69    2.80
 -18  -7 -11    6.69    3.69
  18   7  11   11.23    4.22
 -18  -7 -12    1.22    3.08
  18   7  12   -1.54    2.80
 -18  -7 -13   -1.18    2.76
  18   7  13   -0.28    3.85
  18  -8   2   31.63    5.60
  18  -8   3   11.35    3.20
 -18   8  -3    5.56    2.55
  18  -8   4    9.20    3.37
 -18  -8  -4   14.35    5.96
  18   8   4   12.25    5.43
 -18   8  -4    7.66    2.72
  18  -8   5    2.88    2.47
 -18  -8  -5    2.23    4.83
  18   8   5    3.45    3.97
 -18   8  -5    0.61    2.31
  18  -8   6   -1.18    2.11
 -18  -8  -6    3.53    3.81
  18   8   6    2.51    3.45
 -18   8  -6    3.24    2.43
 -18  -8  -7    6.61    4.10
  18   8   7    5.03    3.65
 -18   8  -7    8.31    2.88
 -18  -8  -8    4.62    3.65
  18   8   8    2.88    3.49
 -18  -8  -9   -0.89    2.96
  18   8   9    2.55    3.20
 -18  -8 -10    4.62    3.77
  18   8  10   10.54    4.78
 -18  -8 -11    7.91    3.81
  18   8  11   -0.45    2.80
 -18  -8 -12   19.30    5.15
  18   8  12   25.99    5.92
 -18  -8 -13    2.31    3.24
  18   8  13   -2.43    3.28
  18  -9   1   10.83    3.77
  18  -9   2    2.43    2.80
 -18   9  -2    1.74    2.55
  18  -9   3   -3.53    2.51
 -18   9  -3    4.18    2.72
  18  -9   4    1.74    3.16
 -18  -9  -4    1.09    4.83
  18   9   4   -0.97    4.38
 -18   9  -4   -2.11    2.68
  18  -9   5    3.12    3.00
 -18  -9  -5    2.80    4.30
  18   9   5    1.78    3.89
 -18   9  -5    2.35    2.51
  18  -9   6   -0.32    2.23
 -18  -9  -6   -1.78    3.41
  18   9   6    0.12    3.89
 -18   9  -6    1.58    2.64
  18  -9   7    4.46    2.68
 -18  -9  -7    7.50    4.34
  18   9   7    2.19    3.24
 -18   9  -7    0.45    2.64
 -18  -9  -8    5.03    3.65
  18   9   8    2.64    3.41
 -18  -9  -9    8.88    4.01
  18   9   9   -3.57    3.04
 -18  -9 -10    3.28    3.49
  18   9  10   -1.74    3.04
 -18  -9 -11    2.27    3.49
  18   9  11    6.12    3.45
 -18  -9 -12    0.12    3.08
  18   9  12    2.31    3.37
  18 -10   0   63.09    9.65
  18 -10   1    1.91    2.72
 -18  10  -1    3.93    3.04
  18 -10   2    4.38    3.00
 -18  10  -2    4.05    2.84
  18 -10   3    6.61    3.00
  18  10   3    9.69    5.23
 -18  10  -3    6.41    2.92
  18 -10   4   23.40    4.91
 -18 -10  -4   10.02    5.51
  18  10   4   12.81    5.43
 -18  10  -4   18.33    4.54
  18 -10   5   -1.05    2.55
 -18 -10  -5   -4.50    4.01
  18  10   5   -0.53    3.53
 -18  10  -5    2.07    2.60
  18 -10   6   32.03    5.64
 -18 -10  -6   27.57    6.77
  18  10   6   23.03    6.16
  18 -10   7    2.31    2.68
 -18 -10  -7    2.80    3.89
  18  10   7    0.04    3.41
 -18  10  -7    0.00    2.64
 -18 -10  -8    2.51    3.53
  18  10   8    2.27    3.49
 -18 -10  -9    1.01    3.32
  18  10   9   -3.12    2.96
 -18 -10 -10   12.89    4.54
  18  10  10    1.50    3.53
 -18 -10 -11    0.57    3.41
  18  10  11    3.45    3.45
 -18 -10 -12   12.89    4.78
  18  10  12    8.92    4.26
  18 -11   0    8.84    3.53
 -18  11   0    2.39    3.00
  18 -11   1    1.74    2.84
  18 -11  -1    0.53    3.08
 -18  11  -1   -0.12    2.68
  18 -11   2    6.61    3.49
 -18  11  -2    4.95    2.72
  18 -11   3    0.93    2.96
  18  11   3    1.91    4.42
 -18  11  -3   -0.32    2.92
  18 -11   4    0.20    2.84
 -18 -11  -4    1.01    4.50
  18  11   4    1.09    4.66
 -18  11  -4    2.47    3.16
  18 -11   5    1.42    2.55
 -18 -11  -5    1.26    4.05
  18  11   5    3.37    4.01
 -18  11  -5   -0.65    2.55
  18 -11   6    1.50    2.51
 -18 -11  -6   -1.62    3.77
  18  11   6    2.03    4.10
 -18  11  -6    0.97    2.84
  18 -11   7    0.32    2.51
 -18 -11  -7    3.57    3.85
  18  11   7   -2.03    3.00
 -18  11  -7    1.50    2.84
 -18 -11  -8    2.68    3.45
  18  11   8    2.23    3.24
 -18 -11  -9    4.87    4.10
  18  11   9    3.41    3.37
 -18 -11 -10    4.42    3.53
  18  11  10   -0.16    3.16
 -18 -11 -11    2.15    3.73
  18  11  11   -0.36    3.16
 -18 -11 -12    1.18    3.93
  18  11  12    2.88    3.49
  18 -12   0   19.14    4.70
 -18  12   0   12.73    4.10
  18 -12   1   11.31    3.89
 -18  12   1    8.88    3.77
  18 -12  -1   10.02    4.01
 -18  12  -1    6.08    3.20
  18 -12   2    8.60    3.57
  18 -12  -2    1.30    3.12
 -18  12  -2    5.39    2.84
  18 -12   3   -2.15    2.84
  18  12   3    2.35    4.38
 -18  12  -3    1.18    2.92
  18 -12   4    3.12    3.28
 -18 -12  -4    6.81    5.19
  18  12   4   -0.04    4.14
 -18  12  -4    2.23    3.00
  18 -12   5   -2.31    2.80
 -18 -12  -5    0.57    4.22
  18  12   5    0.04    3.57
 -18  12  -5    1.62    2.72
  18 -12   6    2.55    2.92
 -18 -12  -6    2.27    3.85
  18  12   6    2.03    3.77
 -18  12  -6    3.45    3.28
  18 -12   7   -0.24    2.68
 -18 -12  -7    2.51    3.57
  18  12   7    8.96    4.42
 -18  12  -7    2.96    3.16
 -18 -12  -8    4.34    3.77
  18  12   8    1.54    3.85
 -18  12  -8    1.54    3.08
 -18 -12  -9   -0.32    4.10
  18  12   9   -0.85    3.57
 -18 -12 -10    2.19    3.61
  18  12  10   -0.32    3.12
 -18 -12 -11   -3.37    3.81
  18  12  11   -1.66    3.32
  18 -13   0   14.11    4.42
 -18  13   0    2.72    3.00
  18 -13   1   12.00    4.38
 -18  13   1   20.88    5.19
  18 -13  -1    6.28    3.61
 -18  13  -1   24.82    5.35
  18 -13   2   10.14    4.14
 -18  13   2   10.79    4.18
  18 -13  -2   13.22    4.58
 -18  13  -2    6.89    3.45
  18 -13   3   58.71    9.37
  18  13   3   33.86    8.43
  18 -13  -3   62.20   10.18
  18 -13   4    7.74    3.65
 -18 -13  -4    6.85    4.70
  18  13   4    4.05    4.83
 -18  13  -4    9.41    3.69
  18 -13   5    4.42    3.20
 -18 -13  -5    5.23    4.46
  18  13   5   16.02    5.27
 -18  13  -5   12.04    4.01
  18 -13   6    0.32    2.68
 -18 -13  -6    0.57    3.53
  18  13   6   -1.70    3.69
 -18  13  -6    1.38    3.00
  18 -13   7    9.16    3.97
  18  13   7   10.66    5.15
 -18  13  -7   10.46    3.77
 -18 -13  -8    7.79    4.34
  18  13   8   -1.99    3.61
 -18  13  -8    6.85    3.97
 -18 -13  -9    9.97    4.74
  18  13   9    4.91    4.26
 -18 -13 -10   -0.36    3.24
  18  13  10   -0.41    3.41
 -18 -13 -11   -0.28   21.33
  18  13  11    5.68    4.10
  18 -14   0    3.73    3.32
 -18  14   0   -0.73    2.88
  18 -14   1    0.53    2.84
 -18  14   1    0.93    2.96
  18 -14  -1   -2.23    2.96
 -18  14  -1   -0.65    2.60
  18 -14   2   20.80    5.15
 -18  14   2   28.63    6.33
  18 -14  -2   31.83    6.61
 -18  14  -2   34.95    6.81
  18 -14   3    0.97    3.00
 -18  14   3    2.31    3.45
 -18 -14  -3    0.04    4.54
  18  14   3    1.30    4.50
  18 -14  -3   -0.28    3.49
 -18  14  -3    0.49    3.04
  18 -14   4   -0.57    3.04
 -18 -14  -4    4.74    4.50
  18  14   4   -0.16    4.18
  18 -14  -4    1.14    3.41
 -18  14  -4    5.76    3.53
  18 -14   5    0.36    2.64
 -18 -14  -5   -0.97    3.77
  18  14   5   -1.46    3.65
 -18  14  -5   -0.49    2.84
  18 -14   6    7.42    3.61
 -18 -14  -6    5.80    4.66
  18  14   6    3.08    4.30
 -18  14  -6    8.60    3.85
  18 -14   7   -1.46    3.16
 -18 -14  -7    1.50    4.58
  18  14   7    1.34    3.93
 -18  14  -7    0.28    3.04
  18 -14   8   -0.53    3.20
 -18 -14  -8    6.65    4.30
  18  14   8    2.39    3.77
 -18  14  -8    2.15    3.49
 -18 -14  -9   -0.73    3.53
  18  14   9    1.82    3.85
 -18 -14 -10    2.88    4.18
  18  14  10   -0.69    3.41
  18 -15   0    3.85    3.49
 -18  15   0    2.03    3.12
  18 -15   1   29.84    6.37
 -18  15   1    7.99    4.01
  18 -15  -1   21.77    5.51
 -18  15  -1   16.83    4.99
  18 -15   2   -1.05    3.04
 -18  15   2   -1.54    3.08
  18  15   2    0.04    4.38
  18 -15  -2    0.28    3.04
 -18  15  -2   -2.76    2.88
  18 -15   3    1.82    3.24
 -18  15   3    4.22    3.69
 -18 -15  -3   -2.15    3.97
  18  15   3    2.96    4.42
  18 -15  -3    5.43    3.89
 -18  15  -3    0.24    3.20
  18 -15   4   -1.74    3.00
 -18  15   4    0.65    3.53
 -18 -15  -4   -0.53    4.22
  18  15   4    0.45    4.74
  18 -15  -4   -2.07    3.45
 -18  15  -4   -1.38    2.96
  18 -15   5    2.80    3.32
 -18 -15  -5    3.24    4.34
  18  15   5    2.55    3.97
 -18  15  -5    2.51    2.96
  18 -15   6    0.81    3.41
 -18 -15  -6    0.57    3.93
  18  15   6   -0.77    4.54
 -18  15  -6   -1.46    3.24
  18 -15   7    3.32    3.85
 -18 -15  -7   19.54    6.37
  18  15   7   11.11    5.35
 -18  15  -7    8.92    4.10
  18 -15   8   -1.50    3.20
 -18 -15  -8   -0.77    3.61
  18  15   8    1.58    3.69
 -18  15  -8   -0.73    3.37
 -18 -15  -9    1.58    3.61
  18  15   9   -2.47    3.77
  18 -16   0   -0.16    2.92
 -18  16   0    7.87    3.93
  18 -16   1    0.36    3.12
 -18  16   1    2.64    2.96
  18 -16  -1   -3.37    2.96
 -18  16  -1    0.85    3.08
  18 -16   2   18.25    5.19
 -18  16   2   25.91    6.24
  18  16   2   14.92    6.33
  18 -16  -2   17.84    5.51
 -18  16  -2   17.15    5.07
  18 -16   3   -1.58    3.12
 -18  16   3    0.45    3.24
 -18 -16  -3    4.05    4.74
  18  16   3   -1.74    4.54
  18 -16  -3    2.51    3.37
 -18  16  -3    4.01    3.12
  18 -16   4   19.26    5.19
 -18  16   4   20.27    5.68
 -18 -16  -4    9.41    5.64
  18  16   4   19.75    7.26
  18 -16  -4   19.87    5.80
 -18  16  -4    5.11    3.32
  18 -16   5    0.36    3.12
 -18 -16  -5    0.61    4.83
  18  16   5    3.65    4.74
  18 -16  -5    3.12    3.81
 -18  16  -5    1.62    3.00
  18 -16   6   17.88    5.19
 -18 -16  -6   -0.04    4.14
  18  16   6    3.69    4.58
 -18  16  -6    3.69    3.57
  18 -16   7    2.43    3.28
 -18 -16  -7    3.97    4.66
  18  16   7    0.69    4.34
 -18  16  -7    2.84    3.28
  18 -16   8    2.35    3.45
 -18 -16  -8    5.60    4.26
  18  16   8    2.11    3.65
 -18  16  -8    0.00    3.45
 -18 -16  -9    3.04    4.46
  18  16   9    2.76    4.14
 -18  16  -9    0.81    3.81
  18 -17   0    0.24    2.96
 -18  17   0    1.70    3.41
  18 -17   1    1.87    3.37
 -18  17   1    1.91    3.20
  18 -17  -1    3.16    3.41
 -18  17  -1    0.65    2.92
  18 -17   2    2.84    3.32
 -18  17   2   -2.60    2.76
 -18 -17  -2    3.61    5.07
  18  17   2    2.51    5.19
  18 -17  -2    1.99    3.16
 -18  17  -2   -0.32    3.24
  18 -17   3    5.64    3.77
 -18  17   3    1.70    3.53
 -18 -17  -3    1.18    4.78
  18  17   3    2.23    5.27
  18 -17  -3    3.93    3.24
 -18  17  -3    0.32    2.92
  18 -17   4    0.85    3.08
 -18  17   4    0.77    3.41
 -18 -17  -4    2.84    4.83
  18  17   4    2.84    4.78
  18 -17  -4    2.03    3.45
 -18  17  -4   -0.81    3.00
  18 -17   5    4.18    3.61
 -18  17   5    3.24    3.69
 -18 -17  -5    5.27    4.50
  18  17   5    2.68    3.93
  18 -17  -5    2.23    3.69
 -18  17  -5    0.81    3.24
  18 -17   6   -1.09    3.20
 -18 -17  -6    0.49    3.77
  18  17   6   -2.55    4.34
  18 -17  -6   -3.89    3.53
 -18  17  -6    1.91    3.45
  18 -17   7    2.47    3.24
 -18 -17  -7    4.62    4.26
  18  17   7    5.88    4.26
 -18  17  -7    1.01    3.12
  18 -17   8   -0.69    3.53
 -18 -17  -8   -0.57    4.14
  18  17   8    0.49    3.61
 -18  17  -8    0.20    3.81
  18 -18   0   -1.62    3.08
 -18  18   0    2.84    3.41
  18 -18   1    2.88    3.45
 -18  18   1    2.31    3.04
  18 -18  -1    3.00    3.49
 -18  18  -1    3.65    3.53
  18 -18   2    2.15    3.41
 -18  18   2    3.49    3.41
 -18 -18  -2    5.72    5.39
  18  18   2    0.97    4.42
  18 -18  -2    2.60    3.73
  18 -18   3    0.16    3.28
 -18  18   3    0.12    2.96
 -18 -18  -3    1.70    4.58
  18  18   3   -3.04    3.93
  18 -18  -3   -0.20    3.61
 -18  18  -3   -2.64    3.04
  18 -18   4    6.69    4.01
 -18  18   4    1.95    3.93
 -18 -18  -4    7.22    5.03
  18  18   4   -0.69    4.95
  18 -18  -4    1.58    3.73
 -18  18  -4    2.64    3.69
  18 -18   5    1.78    3.53
 -18  18   5   -0.57    3.32
 -18 -18  -5    0.32    3.77
  18  18   5    1.05    4.22
  18 -18  -5   -1.42    3.61
 -18  18  -5    0.73    3.24
  18 -18   6    5.19    4.18
 -18  18   6   -1.82    3.57
 -18 -18  -6    0.93    3.81
  18  18   6    1.87    4.26
  18 -18  -6    1.58    3.73
 -18  18  -6    3.61    3.53
  18 -18   7    4.78    3.97
 -18 -18  -7   -0.24    3.77
  18  18   7    2.47    4.26
  18 -18  -7    4.05    3.93
 -18  18  -7    4.95    4.14
  18 -19   0   -0.93    3.49
 -18  19   0    0.16    3.16
  18 -19   1    1.42    3.61
 -18  19   1    1.58   36.33
  18  19   1    0.28    4.42
  18 -19  -1    3.45    3.57
 -18  19  -1    0.12    3.28
  18 -19   2    1.91    3.28
 -18  19   2    0.57    3.12
 -18 -19  -2    3.41    4.78
  18  19   2   -2.76    4.22
  18 -19  -2   -0.20    3.41
 -18  19  -2   -1.58    3.41
  18 -19   3   -0.04    3.45
 -18  19   3   -1.05    3.16
 -18 -19  -3    2.35    4.46
  18  19   3   -0.69    4.78
  18 -19  -3   -0.97    3.41
 -18  19  -3    5.56    3.85
  18 -19   4   -1.87    3.24
 -18  19   4    3.08    3.73
 -18 -19  -4    2.19    4.54
  18  19   4    2.35    4.70
  18 -19  -4    2.76    3.65
 -18  19  -4   -3.20    3.08
  18 -19   5    0.69  270.65
 -18  19   5    0.53    3.53
 -18 -19  -5    2.31    3.89
  18  19   5    1.30    3.77
  18 -19  -5    2.64    3.73
 -18  19  -5    0.69    3.20
  18 -20   0   -0.04    3.73
 -18  20   0    3.81    3.89
  18 -20   1    0.41    3.61
 -18  20   1   -0.57    3.45
  18  20   1    4.34    5.03
  18 -20  -1    1.34   39.01
 -18  20  -1    3.89    3.69
  18 -20   2   14.23    5.07
 -18  20   2   19.71    6.00
 -18 -20  -2   33.65    8.76
  18  20   2   22.42    7.54
  18 -20  -2   17.31    5.84
 -18  20  -2   14.68    5.27
  18 -20   3    0.65    3.37
 -18  20   3   -0.49    3.32
 -18 -20  -3   -0.97    4.22
  18  20   3    1.82    4.54
  18 -20  -3    3.32    3.81
 -18  20  -3   -1.01    3.16
  18 -20   4   -0.49    3.93
 -18  20   4    4.95    4.50
 -18  20  -4    2.64    3.93
  19   0   6   67.55    9.00
 -19   0  -6   78.01   10.42
  19   0   7   12.12    2.72
 -19   0  -7   11.88    2.76
  19   0   8    2.64    1.99
 -19   0  -8    5.96    2.35
 -19   0  -9    2.88    1.99
  19  -1   6   -0.89    1.74
 -19  -1  -6   -1.91    2.64
  19   1   6   -1.05    2.31
  19  -1   7    1.22    1.74
 -19  -1  -7    1.99    2.11
  19   1   7    4.99    2.47
 -19   1  -7    1.54    1.62
  19  -1   8    2.76    1.58
 -19  -1  -8    1.54    2.43
  19   1   8    3.85    2.31
 -19   1  -8    2.07    1.66
 -19  -1  -9    5.39    2.51
  19   1   9    2.96    2.23
 -19  -1 -10    5.07    2.76
  19  -2   6    6.08    1.87
 -19  -2  -6    3.73    3.16
  19   2   6    2.64    2.64
  19  -2   7    4.18    1.26
 -19  -2  -7    4.05    2.55
  19   2   7    2.03    2.39
 -19   2  -7    2.23    1.38
 -19  -2  -8    3.41    2.51
  19   2   8    1.91    2.72
 -19  -2  -9    1.99    2.51
  19   2   9    0.08    2.35
 -19  -2 -10    2.92    2.68
  19   2  10    3.77    2.55
 -19  -2 -11    9.00    3.28
  19   3   5   14.52    4.50
 -19  -3  -6    2.07    3.12
  19   3   6    6.20    3.28
 -19  -3  -7    1.22    2.84
  19   3   7    3.93    2.76
 -19  -3  -8    2.03    2.60
  19   3   8    0.49    2.51
 -19  -3  -9    3.73    3.16
  19   3   9    0.24    2.55
 -19  -3 -10    0.73    2.64
  19   3  10    0.32    2.43
 -19  -3 -11    1.74    2.43
  19   3  11   -0.61    2.43
 -19  -3 -12    0.04    2.92
 -19  -4  -5    6.41    4.01
  19   4   5   -1.14    3.49
 -19  -4  -6    1.14    3.32
  19   4   6   -3.81    3.04
 -19  -4  -7    1.22    3.04
  19   4   7    1.14    2.80
 -19  -4  -8    1.58    2.68
  19   4   8    4.01    2.92
 -19  -4  -9    2.23    3.00
  19   4   9    0.08    2.76
 -19  -4 -10    1.58    2.55
  19   4  10    2.64    2.84
 -19  -4 -11   -2.23    2.51
  19   4  11    2.51    2.51
 -19  -4 -12    4.10    2.88
  19   4  12    7.50    3.32
 -19  -4 -13   -1.09    2.84
  19  -5   5   21.81    3.28
 -19  -5  -5   19.34    5.43
  19   5   5   36.21    7.06
  19  -5   6    9.37    1.95
 -19  -5  -6    7.42    4.14
  19   5   6   18.37    4.70
 -19  -5  -7    5.51    3.49
  19   5   7    7.14    3.45
 -19  -5  -8    8.76    3.65
  19   5   8    1.66    2.84
 -19  -5  -9   -0.12    2.76
  19   5   9    6.41    3.81
 -19  -5 -10    4.46    3.08
  19   5  10    0.49    2.76
 -19  -5 -11    3.00    3.12
  19   5  11    1.50    3.04
 -19  -5 -12    7.01    3.41
  19   5  12   16.50    5.03
 -19  -5 -13    6.93    4.22
  19   5  13    9.97   12.33
  19  -6   4    3.85    1.99
  19  -6   5   -1.05    1.70
 -19  -6  -5    3.12    4.22
  19   6   5    1.01    3.69
 -19   6  -5    0.57    1.42
  19  -6   6    1.22    1.74
 -19  -6  -6    2.07    3.45
  19   6   6   -0.04    3.08
 -19   6  -6    1.30    1.50
 -19  -6  -7    0.45    3.24
  19   6   7   -4.18    2.84
 -19   6  -7    3.00    1.74
 -19  -6  -8    0.49    2.88
  19   6   8   -1.50    2.72
 -19  -6  -9    0.49    2.76
  19   6   9    0.53    3.32
 -19  -6 -10    2.43    3.24
  19   6  10    0.97    3.08
 -19  -6 -11   -1.46    2.72
  19   6  11   -1.58    2.64
 -19  -6 -12    0.65    3.12
  19   6  12   -1.14    2.80
  19  -7   3   17.52    3.69
  19  -7   4   -0.12    2.07
  19   7   4    0.20    3.77
 -19   7  -4    1.74    2.03
  19  -7   5    3.65    2.35
 -19  -7  -5   15.12    5.43
  19   7   5    8.60    4.42
 -19   7  -5   10.06    2.43
  19  -7   6    4.10    2.15
 -19  -7  -6    4.26    3.57
  19   7   6   -0.32    3.00
 -19   7  -6    1.14    1.66
 -19  -7  -7   -0.65    3.28
  19   7   7   -0.73    2.84
 -19   7  -7    1.87    1.99
 -19  -7  -8   -2.15    3.08
  19   7   8    0.89    3.00
 -19  -7  -9    4.62    3.32
  19   7   9    0.20    2.76
 -19  -7 -10   -0.73    3.16
  19   7  10   -0.24    3.20
 -19  -7 -11    2.35    3.16
  19   7  11    3.93    3.08
 -19  -7 -12   -0.89    2.64
  19   7  12   -0.04    2.68
  19  -8   2   34.02    5.72
  19  -8   3    2.60    2.27
 -19   8  -3    5.11    2.55
  19  -8   4   38.40    5.96
  19   8   4   26.56    6.77
 -19   8  -4   25.83    4.50
  19  -8   5    0.77    2.23
 -19  -8  -5    4.62    4.22
  19   8   5    2.84    3.73
 -19   8  -5    1.38    2.35
  19  -8   6   16.99    3.65
 -19  -8  -6   20.40    5.60
  19   8   6    4.66    3.77
 -19   8  -6   12.61    2.92
  19  -8   7    1.78    2.27
 -19  -8  -7    8.39    4.22
 -19   8  -7    4.14    2.23
 -19  -8  -8   14.19    4.83
  19   8   8   23.68    5.80
 -19  -8  -9    3.77    3.28
  19   8   9    1.91    3.00
 -19  -8 -10   19.14    4.99
  19   8  10    9.85    4.05
 -19  -8 -11    6.04    3.77
  19   8  11    7.10    3.57
 -19  -8 -12   -1.70    2.96
  19   8  12    0.00    3.08
  19  -9   2    4.91    2.60
 -19   9  -2    1.62    2.51
  19  -9   3    1.74    2.39
 -19   9  -3    0.04    2.15
  19  -9   4    1.58    2.80
 -19  -9  -4    5.15    4.66
  19   9   4   -0.16    3.73
 -19   9  -4    1.62    2.23
  19  -9   5    0.81    2.31
 -19  -9  -5    0.32    4.10
  19   9   5   -0.57    3.57
 -19   9  -5    1.54    2.43
  19  -9   6   -1.30    2.31
 -19  -9  -6   -0.73    3.85
  19   9   6   -4.58    3.28
 -19   9  -6    0.24    1.99
  19  -9   7    0.89    2.23
 -19  -9  -7   -0.73    3.24
  19   9   7    4.50    3.65
 -19   9  -7   -0.45    1.99
 -19  -9  -8   -1.62    3.16
  19   9   8   -1.58    3.04
 -19  -9  -9    3.97    3.45
  19   9   9   -2.31    2.88
 -19  -9 -10    0.12    3.08
  19   9  10   -0.45    3.08
 -19  -9 -11   -0.49    3.37
  19   9  11   -1.54    2.92
 -19  -9 -12   -0.49    3.00
  19   9  12    3.12    3.81
  19 -10   1    6.28    3.16
 -19  10  -1   -1.54    2.55
  19 -10   2    9.12    3.16
 -19  10  -2    3.61    2.80
  19 -10   3    0.89    2.47
 -19  10  -3    4.22    2.76
  19 -10   4    4.62    2.64
 -19 -10  -4    8.15    4.78
  19  10   4    2.88    4.30
 -19  10  -4    5.60    2.84
  19 -10   5    1.66    2.27
 -19 -10  -5    0.28    4.22
  19  10   5    1.74    3.73
 -19  10  -5    3.73    2.60
  19 -10   6    3.89    2.76
 -19 -10  -6    7.46    4.14
  19  10   6    4.05    3.53
 -19  10  -6    5.11    2.60
  19 -10   7    5.96    2.88
 -19 -10  -7    6.24    4.14
  19  10   7    8.64    4.83
 -19  10  -7    4.05    2.43
 -19 -10  -8    1.09    3.45
  19  10   8    1.62    3.61
 -19  10  -8    3.73    2.72
 -19 -10  -9    1.34    3.32
  19  10   9    0.77    2.84
 -19 -10 -10   -1.01    3.32
  19  10  10    5.60    3.69
 -19 -10 -11    2.23    3.37
  19  10  11   -0.08    3.12
  19 -11   1    6.41    3.04
 -19  11  -1    0.97    2.51
  19 -11   2    5.11    3.00
 -19  11  -2    4.42    2.92
  19 -11   3   -1.01    2.68
 -19  11  -3    0.49    2.76
  19 -11   4    3.12    2.68
 -19 -11  -4    6.16    4.70
  19  11   4    0.97    4.50
 -19  11  -4   -0.65    3.04
  19 -11   5    7.91    3.24
 -19 -11  -5    4.42    4.46
  19  11   5    4.99    4.05
 -19  11  -5    2.15    2.68
  19 -11   6    0.97    2.64
 -19 -11  -6    0.93    3.49
  19  11   6   -0.04    3.12
 -19  11  -6    5.60    2.72
  19 -11   7    3.24    2.68
 -19 -11  -7    2.68    3.41
  19  11   7    1.66    3.53
 -19  11  -7   -0.08    2.39
 -19 -11  -8    2.27    3.53
  19  11   8    0.20    3.04
 -19  11  -8    0.28    3.00
 -19 -11  -9    0.41    3.20
  19  11   9    0.61    3.32
 -19 -11 -10    1.62    3.12
  19  11  10   -2.96    2.88
 -19 -11 -11    1.95    3.37
  19  11  11    1.09    3.20
  19 -12   0    4.05    3.08
 -19  12   0    0.41    2.68
  19 -12   1    0.93    3.00
  19 -12  -1   -2.92    2.96
 -19  12  -1    3.28    2.92
  19 -12   2    5.51    3.37
 -19  12  -2    2.07    2.68
  19 -12   3    3.28    2.88
  19  12   3    2.80    4.26
 -19  12  -3    1.22    2.76
  19 -12   4    5.76    3.37
 -19 -12  -4   11.88    5.39
  19  12   4   14.52    5.64
 -19  12  -4   10.22    4.05
  19 -12   5    4.26    2.92
 -19 -12  -5    3.89    4.05
  19  12   5   -0.73    3.24
 -19  12  -5    0.41    2.72
  19 -12   6    1.87    2.60
 -19 -12  -6   -0.89    3.85
  19  12   6    4.05    3.97
 -19  12  -6    1.01    2.47
  19 -12   7    1.30    2.68
 -19 -12  -7    0.49    3.65
  19  12   7    8.27    4.62
 -19  12  -7    1.91    2.76
 -19 -12  -8    7.14    4.54
  19  12   8    3.32    4.01
 -19  12  -8    9.29    3.89
 -19 -12  -9    0.32    3.45
  19  12   9    0.77    3.61
 -19 -12 -10    3.20    3.53
  19  12  10   -3.24    2.88
  19 -13   0    9.61    3.85
 -19  13   0    2.07    3.00
  19 -13   1   19.26    4.99
 -19  13   1   22.22    5.43
  19 -13  -1   21.81    5.47
 -19  13  -1   20.40    5.07
  19 -13   2   -0.36    2.96
  19 -13  -2    0.00    3.20
 -19  13  -2    2.47    2.84
  19 -13   3   13.14    4.34
  19  13   3    8.96    5.27
 -19  13  -3   24.69    5.60
  19 -13   4    3.08    3.00
 -19 -13  -4   -0.77    4.10
  19  13   4    1.46    3.93
 -19  13  -4    0.45    2.80
  19 -13   5   22.87    4.99
 -19 -13  -5   14.52    5.64
  19  13   5   17.48    5.68
 -19  13  -5   13.30    4.05
  19 -13   6    0.32    2.84
 -19 -13  -6   -0.53    4.10
  19  13   6    3.24    4.10
 -19  13  -6    1.54    2.88
  19 -13   7    0.36    2.92
 -19 -13  -7    4.38    4.46
  19  13   7    4.74    4.54
 -19  13  -7    7.91    3.77
  19 -13   8    3.41    3.20
 -19 -13  -8    1.54    3.73
  19  13   8   -0.41    3.37
 -19  13  -8    0.81    3.08
 -19 -13  -9    2.35    3.65
  19  13   9    0.77    3.45
 -19 -13 -10   -0.24    3.37
  19  13  10    1.87    3.53
  19 -14   0    2.19    3.37
 -19  14   0   -0.16    2.84
  19 -14   1    0.08    2.88
 -19  14   1    0.32    2.84
  19 -14  -1    0.49    3.00
 -19  14  -1   -1.01    2.72
  19 -14   2    1.22    3.24
 -19  14   2    4.42    3.45
  19 -14  -2   -2.07    3.00
 -19  14  -2    5.11    3.37
  19 -14   3    1.70    3.16
 -19 -14  -3    5.96    5.03
  19  14   3    2.19    4.58
  19 -14  -3    1.46    3.45
 -19  14  -3    3.89    3.28
  19 -14   4    1.91    2.92
 -19 -14  -4    6.28    4.70
  19  14   4   -1.54    4.18
 -19  14  -4    2.27    2.92
  19 -14   5    0.41    2.64
 -19 -14  -5    0.65    4.30
  19  14   5    1.87    3.77
 -19  14  -5    1.78    2.76
  19 -14   6    3.20    3.04
 -19 -14  -6    2.15    4.46
  19  14   6    0.61    4.18
 -19  14  -6    2.31    3.12
  19 -14   7   -0.12    2.72
 -19 -14  -7    5.11    4.18
  19  14   7    0.45    3.97
 -19  14  -7   -1.26    2.72
  19 -14   8    0.61    3.20
 -19 -14  -8    2.96    3.89
  19  14   8    1.99    3.85
 -19  14  -8    3.24    3.32
 -19 -14  -9    0.28    3.53
  19  14   9    1.14    3.89
  19 -15   0    1.05    3.12
 -19  15   0    0.77    2.88
  19 -15   1    6.89    3.77
 -19  15   1    4.58    3.37
  19 -15  -1    8.88    3.97
 -19  15  -1    3.61    3.08
  19 -15   2    5.96    3.77
 -19  15   2   -2.92    2.96
  19 -15  -2    2.47    3.28
 -19  15  -2    0.73    3.00
  19 -15   3    3.65    3.32
 -19  15   3   -0.16    3.00
 -19 -15  -3    8.43    5.11
  19  15   3    0.65    4.74
  19 -15  -3    2.31    3.61
 -19  15  -3   -0.12    3.04
  19 -15   4    1.30  232.74
 -19 -15  -4    1.91    4.58
  19  15   4   -1.46    4.46
  19 -15  -4   -0.85    3.28
 -19  15  -4    2.76    3.08
  19 -15   5    5.96    3.37
 -19 -15  -5    8.68    5.60
  19  15   5    5.39    4.87
 -19  15  -5    7.42    3.69
  19 -15   6    0.49    3.00
 -19 -15  -6    5.15    4.42
  19  15   6    3.89    5.19
 -19  15  -6    0.65    3.16
  19 -15   7    0.97    3.16
 -19 -15  -7    0.28    3.77
  19  15   7   -0.12    4.14
 -19  15  -7    0.45    2.88
  19 -15   8   -0.24    3.16
 -19 -15  -8    0.57    3.81
  19  15   8   -1.58    3.16
 -19  15  -8    0.89    3.20
  19 -16   0    1.26    3.16
 -19  16   0    0.49    2.55
  19 -16   1   -1.54    7.66
 -19  16   1   -1.22    2.84
  19 -16  -1    1.99    3.20
 -19  16  -1    1.14    2.96
  19 -16   2    0.65    3.08
 -19  16   2   -1.18    3.24
  19  16   2    3.93    5.35
  19 -16  -2    1.62    3.41
 -19  16  -2   -1.38    3.00
  19 -16   3   -0.32    2.88
 -19  16   3    2.80    3.12
 -19 -16  -3    6.24    5.15
  19  16   3    1.74    4.66
  19 -16  -3    2.92    3.24
 -19  16  -3   -0.12    3.04
  19 -16   4   14.64    4.74
 -19  16   4    3.41    3.69
 -19 -16  -4    9.97    5.68
  19  16   4    1.01    4.83
  19 -16  -4   13.02    4.87
 -19  16  -4    5.35    3.61
  19 -16   5    1.14    3.00
 -19 -16  -5    3.81    4.62
  19  16   5    0.20    3.97
  19 -16  -5   -2.11    3.37
 -19  16  -5    1.30    3.00
  19 -16   6    1.91    3.24
 -19 -16  -6    5.92    4.38
  19  16   6    5.84    5.15
 -19  16  -6    4.42    3.65
  19 -16   7    5.60    3.16
 -19 -16  -7    1.91    4.10
  19  16   7    4.30    4.46
 -19  16  -7   -1.78    2.84
  19 -16   8    3.08    3.81
 -19 -16  -8    8.31    5.27
  19  16   8   11.47    5.19
 -19  16  -8    4.66    4.22
  19 -17   0   -0.20    3.20
 -19  17   0   -0.28    2.72
  19 -17   1    2.96    3.53
 -19  17   1    1.74    3.12
  19 -17  -1   -0.93    3.08
 -19  17  -1    4.05    3.32
  19 -17   2    0.36    3.12
 -19  17   2    1.42    3.28
  19  17   2    1.05    4.74
  19 -17  -2   -1.66    3.41
 -19  17  -2    1.62    3.00
  19 -17   3    0.20    3.04
 -19  17   3    3.41    3.61
 -19 -17  -3    0.69    4.30
  19  17   3    3.41    4.50
  19 -17  -3    2.43    3.61
 -19  17  -3    0.49    3.00
  19 -17   4    0.77    3.12
 -19  17   4   -2.19    3.24
 -19 -17  -4   -1.05    3.89
  19  17   4    2.60    4.54
  19 -17  -4   -1.01    3.45
 -19  17  -4    0.57    2.96
  19 -17   5    1.46    3.24
 -19  17   5    5.23    4.14
 -19 -17  -5    8.51    5.03
  19  17   5    1.42    3.93
  19 -17  -5    1.95    3.81
 -19  17  -5   -0.57    2.92
  19 -17   6   -0.20    3.20
 -19 -17  -6    3.73    4.05
  19  17   6   -0.41    3.69
  19 -17  -6   -1.91    3.81
 -19  17  -6    1.26    3.16
 -19 -17  -7   -2.55    3.85
  19  17   7    2.96   61.39
 -19  17  -7   -0.24    3.20
  19 -18   0    2.60    3.53
 -19  18   0   -0.41    3.24
  19 -18   1    4.66    3.77
 -19  18   1    1.18    2.96
  19 -18  -1    3.32    3.32
 -19  18  -1    3.53    3.53
  19 -18   2   15.16    4.99
 -19  18   2    1.42    3.45
  19  18   2    2.72    4.66
  19 -18  -2    7.58    4.14
 -19  18  -2    5.60    3.53
  19 -18   3   -2.68    3.00
 -19  18   3   -1.62    3.08
 -19 -18  -3   -4.66    4.26
  19  18   3    1.22    4.54
  19 -18  -3    1.09    3.37
 -19  18  -3    2.11    3.12
  19 -18   4    4.26    3.89
 -19  18   4    4.14    3.81
 -19 -18  -4    0.04    4.34
  19  18   4   -2.80    4.10
  19 -18  -4    0.69    3.41
 -19  18  -4    0.73    3.28
  19 -18   5    0.73    3.41
 -19  18   5   -2.27    3.45
 -19 -18  -5    0.93    4.30
  19  18   5    0.93    3.57
  19 -18  -5   -1.42    3.53
 -19  18  -5    2.07    3.12
  19 -19   0    0.73    3.24
 -19  19   0   -3.85    3.28
  19 -19   1   -0.16    3.41
 -19  19   1    1.66    3.00
  19 -19  -1    0.61    3.28
 -19  19  -1    3.32    3.69
  19 -19   2    3.12    3.53
 -19  19   2   -0.57    2.92
 -19 -19  -2   -4.46    4.01
  19  19   2   -0.81    4.14
  19 -19  -2    0.93    3.61
 -19  19  -2    3.81    3.41
  19 -19   3    5.03    3.77
 -19  19   3    1.78    3.20
 -19 -19  -3    0.16    4.42
  19  19   3    0.57    4.50
  19 -19  -3   -0.36    3.24
 -19  19  -3   -0.04   11.84
  19 -19   4    1.70    3.32
 -19  19   4   -2.07    3.37
 -19 -19  -4    4.38    4.78
  19  19   4    1.58    4.30
  19 -19  -4    1.58    3.77
 -19  19  -4    2.35    3.57
  20   0   6   60.25    8.23
  20   0   7    3.32    1.87
 -20   0  -7    1.87    2.07
  20   0   8    5.84    2.23
 -20   0  -8    6.04    2.31
  20   0   9    4.62    2.19
 -20   0  -9    7.34    2.47
 -20   0 -10   23.56    4.22
  20  -1   6    0.93    1.70
 -20  -1  -6    2.96    2.55
  20   1   6   -1.95    2.27
  20  -1   7    3.00    1.58
 -20  -1  -7    4.95    2.43
  20   1   7    0.49    1.87
 -20   1  -7    0.08    1.66
  20  -1   8    0.73    1.30
 -20  -1  -8   -0.28    1.99
  20   1   8    2.07    2.47
 -20   1  -8    2.96    1.78
 -20  -1  -9    0.20    2.07
  20   1   9    0.97    2.11
 -20   1  -9    0.20    1.78
 -20  -1 -10   -1.58    2.03
  20   1  10    2.23    2.19
 -20  -1 -11    2.03    2.39
 -20  -2  -6    3.53    2.88
  20   2   6    9.49    3.37
 -20  -2  -7   11.43    3.41
  20   2   7    1.14    2.19
 -20   2  -7    3.28    1.38
 -20  -2  -8    2.43    2.39
  20   2   8   -0.77    2.19
 -20   2  -8   -0.08    1.38
 -20  -2  -9    3.53    2.84
  20   2   9    2.84    2.47
 -20  -2 -10    1.18    2.55
  20   2  10    3.16    2.43
 -20  -2 -11    0.69    2.47
  20   2  11    2.39    2.55
 -20  -2 -12    1.62    2.72
 -20  -3  -6    6.85    3.49
  20   3   6   10.22    3.45
 -20  -3  -7    8.56    3.28
  20   3   7   10.06    3.32
 -20  -3  -8    1.42    2.51
  20   3   8    1.18    2.51
 -20  -3  -9    5.72    3.32
  20   3   9    4.10    2.72
 -20  -3 -10    2.96    2.76
  20   3  10    1.62    2.60
 -20  -3 -11   22.58    4.87
  20   3  11   22.54    4.74
  20   3  12    2.19    2.88
  20   4   5    2.51    3.24
 -20  -4  -6    2.03    3.24
  20   4   6    1.09    2.76
 -20  -4  -7    3.20    3.00
  20   4   7    2.55    2.68
 -20  -4  -8    3.00    2.76
  20   4   8    3.16    2.76
 -20  -4  -9    1.91    2.60
  20   4   9   -0.53    3.00
 -20  -4 -10   -0.41    2.43
  20   4  10    0.24    2.68
 -20  -4 -11    2.55    2.92
  20   4  11    3.37    3.00
 -20  -4 -12    0.85    2.51
  20   4  12   -2.23    2.60
  20   5   5   58.39    9.41
  20  -5   6    1.91    1.78
 -20  -5  -6    2.43    3.41
  20   5   6    5.92    3.41
 -20   5  -6    1.42    1.09
 -20  -5  -7    2.76    3.04
  20   5   7    4.22    3.12
 -20   5  -7    6.00    1.38
 -20  -5  -8    5.47    3.08
  20   5   8    9.37    3.65
 -20  -5  -9    3.24    2.84
  20   5   9    2.84    3.16
 -20  -5 -10   -2.60    2.76
  20   5  10   -1.14    2.80
 -20  -5 -11   35.56    6.57
  20   5  11   52.47    8.51
 -20  -5 -12    0.20    2.88
  20   5  12    1.95    2.80
  20  -6   5    5.92    2.03
 -20  -6  -5    2.51    3.81
  20   6   5    5.11    3.89
 -20   6  -5    2.31    1.54
  20  -6   6    3.04    1.62
 -20  -6  -6    5.56    3.89
  20   6   6    3.89    3.24
 -20   6  -6    1.99    1.46
 -20  -6  -7    3.08    3.24
  20   6   7    4.22    3.37
 -20   6  -7    0.24    1.26
 -20  -6  -8    2.55    2.88
  20   6   8    5.23    3.45
 -20  -6  -9    0.45    2.72
  20   6   9   -0.73    2.72
 -20  -6 -10   -0.41    3.12
  20   6  10   -0.61    3.37
 -20  -6 -11    1.66    2.76
  20   6  11    5.76    3.37
 -20  -6 -12    1.87    2.96
  20   6  12   -0.49    3.08
  20  -7   4    5.96    2.23
  20  -7   5    0.04    1.87
 -20  -7  -5    0.93    3.73
  20   7   5    1.58    3.41
 -20   7  -5    0.81    1.66
  20  -7   6    9.53    2.39
 -20  -7  -6    9.65    4.42
  20   7   6   12.25    4.10
 -20   7  -6   10.66    2.39
  20  -7   7    5.43    2.19
 -20  -7  -7    2.84    3.20
  20   7   7    4.38    3.61
 -20  -7  -8   24.04    5.64
  20   7   8   19.71    5.07
 -20  -7  -9    7.42    3.53
  20   7   9    5.35    3.37
 -20  -7 -10    6.20    3.32
  20   7  10    7.26    3.45
 -20  -7 -11    4.34    3.45
  20   7  11    4.10    3.12
  20  -8   3    4.83    2.35
  20  -8   4   11.60    3.04
  20   8   4   12.49    5.11
 -20   8  -4   12.37    2.88
  20  -8   5   13.42    3.41
 -20  -8  -5    2.43    4.26
  20   8   5   10.83    4.54
 -20   8  -5   10.14    2.55
  20  -8   6   19.95    3.73
 -20  -8  -6    8.92    4.14
  20   8   6    9.45    4.01
 -20   8  -6   13.42    3.00
  20  -8   7   40.43    6.04
 -20  -8  -7   25.71    6.00
  20   8   7   28.22    6.24
 -20   8  -7   27.61    4.46
 -20  -8  -8   -0.65    3.24
  20   8   8    0.53    2.96
 -20  -8  -9   12.12    4.05
  20   8   9    2.39    3.16
 -20  -8 -10   16.99    4.78
  20   8  10   21.98    5.39
 -20  -8 -11    4.30    3.20
  20   8  11    0.04    2.96
  20  -9   2    2.51    2.55
  20  -9   3   -0.12    2.11
 -20   9  -3    1.70    2.23
  20  -9   4   -0.69    2.27
  20   9   4   -1.26    3.45
 -20   9  -4    1.30    2.11
  20  -9   5   -0.41    2.23
 -20  -9  -5    3.04    4.10
  20   9   5   -1.91    3.49
 -20   9  -5    3.28    2.51
  20  -9   6    3.93    2.35
 -20  -9  -6    1.38    3.61
  20   9   6    0.00    2.76
 -20   9  -6    1.74    2.15
  20  -9   7    2.23    2.27
 -20  -9  -7    0.57    3.32
  20   9   7    5.31    3.65
 -20   9  -7    1.42    2.15
 -20  -9  -8   -1.05    3.45
  20   9   8   -0.24    2.80
 -20   9  -8    0.97    2.35
 -20  -9  -9    2.35    3.41
  20   9   9    6.20    3.53
 -20  -9 -10   -3.49    3.00
  20   9  10    1.01    3.00
 -20  -9 -11   -1.87    3.20
  20   9  11   -0.49    3.41
  20 -10   1   -0.77    2.88
  20 -10   2   -1.54    2.35
 -20  10  -2    3.89    2.92
  20 -10   3    0.85    2.39
 -20  10  -3   -0.97    2.19
  20 -10   4    1.82    2.96
  20  10   4    1.54    4.10
 -20  10  -4    4.01    2.51
  20 -10   5    2.15    2.47
 -20 -10  -5    3.65    3.89
  20  10   5    3.00    3.49
 -20  10  -5    1.82    2.68
  20 -10   6    7.74    2.96
 -20 -10  -6    5.03    4.05
  20  10   6    2.72    3.65
 -20  10  -6    4.91    2.47
  20 -10   7    0.97    2.35
 -20 -10  -7    5.51    3.89
  20  10   7    0.00    3.53
 -20  10  -7    3.12    2.60
 -20 -10  -8    0.81    3.28
  20  10   8   -2.35    2.72
 -20  10  -8    5.19    3.08
 -20 -10  -9   -1.87    3.12
  20  10   9    1.74    3.08
 -20 -10 -10    9.00    4.14
  20  10  10    6.97    3.73
  20 -11   0   -1.54    2.80
  20 -11   1    0.77    2.64
 -20  11  -1    4.95    3.00
  20 -11   2   -1.38    2.43
 -20  11  -2    0.61    2.35
  20 -11   3   -0.85    2.60
 -20  11  -3    7.18    3.08
  20 -11   4    0.08    2.55
 -20 -11  -4    3.57    4.46
  20  11   4   -1.74    3.53
 -20  11  -4    1.26    2.51
  20 -11   5    3.37    2.72
 -20 -11  -5    0.53    4.10
  20  11   5    1.26    4.05
 -20  11  -5    0.93    2.51
  20 -11   6    3.20    2.60
 -20 -11  -6    2.84    3.61
  20  11   6    1.78    3.45
 -20  11  -6    1.05    2.11
  20 -11   7    2.64    2.88
 -20 -11  -7   -0.65    3.61
  20  11   7    1.95    3.85
 -20  11  -7    3.49    3.12
 -20 -11  -8    0.93    4.50
  20  11   8    3.49    3.53
 -20  11  -8    1.14    2.72
 -20 -11  -9    1.66    3.24
  20  11   9   -0.65    3.65
 -20 -11 -10    4.38    3.41
  20  11  10    1.95    3.16
  20 -12   0    6.24    3.32
 -20  12   0    5.35    3.24
  20 -12   1    8.15    3.45
  20 -12  -1   11.27    4.10
 -20  12  -1    7.34    3.41
  20 -12   2    7.70    3.45
 -20  12  -2    8.15    3.41
  20 -12   3    1.91    2.96
 -20  12  -3    3.37    3.00
  20 -12   4    6.28    3.12
 -20 -12  -4    5.96    4.74
  20  12   4    5.64    4.58
 -20  12  -4    5.92    3.57
  20 -12   5    1.30    2.76
 -20 -12  -5   12.61    5.51
  20  12   5    3.89    4.58
 -20  12  -5    8.23    3.24
  20 -12   6    1.62    2.76
 -20 -12  -6    0.08    3.93
  20  12   6   -1.42    3.53
 -20  12  -6    2.19    2.51
  20 -12   7   12.65    3.97
 -20 -12  -7   24.53    6.73
  20  12   7    7.46    4.99
 -20  12  -7   13.26    4.26
  20 -12   8    0.24    2.72
 -20 -12  -8    3.69    3.77
  20  12   8    2.88    3.37
 -20  12  -8    0.53    2.84
 -20 -12  -9    1.74    3.41
  20  12   9    1.82    3.53
  20 -13   0   10.06    3.89
 -20  13   0   12.65    4.38
  20 -13   1    6.53    3.61
 -20  13   1    1.14    3.08
  20 -13  -1    0.36    3.12
 -20  13  -1    1.50    2.84
  20 -13   2    8.31    3.41
  20 -13  -2   11.80    4.46
 -20  13  -2   19.38    4.62
  20 -13   3    2.88    2.92
  20  13   3    3.93    4.46
 -20  13  -3    4.83    3.08
  20 -13   4    4.05    2.88
 -20 -13  -4   14.84    6.00
  20  13   4    5.35    4.70
 -20  13  -4   13.18    4.42
  20 -13   5    7.06    3.37
 -20 -13  -5   30.01    7.99
  20  13   5    2.84    4.70
  20 -13   6    7.10    3.49
 -20 -13  -6   10.02    5.47
  20  13   6    8.68    5.15
 -20  13  -6   23.88    5.07
  20 -13   7    5.72    3.28
 -20 -13  -7   10.14    5.15
  20  13   7   11.39    5.56
 -20  13  -7   13.99    4.22
  20 -13   8    9.89    3.93
 -20 -13  -8   19.58    5.84
  20  13   8   11.35    4.95
 -20  13  -8   18.57    4.83
 -20 -13  -9    3.28    3.49
  20  13   9    6.73    4.42
 -20  13  -9    3.45    3.53
  20 -14   0    5.07    3.37
 -20  14   0    8.56    3.97
  20 -14   1    0.49    2.88
 -20  14   1    0.08    2.96
  20 -14  -1   -0.45    3.12
 -20  14  -1   -1.26    2.64
  20 -14   2   -0.20    2.68
 -20  14   2    1.78    3.08
  20 -14  -2   -3.85    2.72
 -20  14  -2   -0.53    3.00
  20 -14   3    2.60    3.08
  20  14   3   -0.53    4.74
  20 -14  -3   -0.04    3.24
 -20  14  -3    2.64    2.92
  20 -14   4    0.81    2.60
 -20 -14  -4    1.58    4.62
  20  14   4    3.20    4.50
 -20  14  -4    1.50    2.68
  20 -14   5    3.69    2.72
 -20 -14  -5    5.47    4.66
  20  14   5    1.30    4.58
 -20  14  -5    0.85    2.76
  20 -14   6    1.70    2.96
 -20 -14  -6   -0.16    3.73
  20  14   6   -0.61    3.45
 -20  14  -6   -2.07    2.47
  20 -14   7    1.09    2.60
 -20 -14  -7    7.22    4.78
  20  14   7    4.50    4.30
 -20  14  -7    2.51    3.32
  20 -14   8    1.74    3.12
 -20 -14  -8    3.65    3.93
  20  14   8    1.05    3.69
 -20  14  -8   -2.23    3.04
  20 -15   0    1.82    3.20
 -20  15   0    3.00    3.08
  20 -15   1    0.77    2.84
 -20  15   1    1.34    3.16
  20 -15  -1    0.08    2.84
 -20  15  -1    1.09    2.84
  20 -15   2    2.60    3.16
 -20  15   2   -2.03    2.80
  20 -15  -2    1.50    2.92
 -20  15  -2    2.60    3.00
  20 -15   3    1.87    3.04
 -20  15   3    5.60    3.49
  20  15   3    6.53    5.27
  20 -15  -3    9.04    4.38
 -20  15  -3    3.12    3.16
  20 -15   4    1.18    2.92
 -20 -15  -4   10.18    5.39
  20  15   4    2.88    4.95
  20 -15  -4    1.70    3.53
 -20  15  -4    4.54    3.12
  20 -15   5    7.22    3.28
 -20 -15  -5    5.23    4.99
  20  15   5    1.82    4.34
 -20  15  -5    1.26    2.92
  20 -15   6    2.23    3.00
 -20 -15  -6   -3.73    4.22
  20  15   6    3.69    4.30
 -20  15  -6   -0.16    2.88
  20 -15   7    2.11    2.92
 -20 -15  -7    3.24    4.46
  20  15   7   -0.69    4.14
 -20  15  -7    6.53    3.53
  20 -16   0   21.86    5.60
 -20  16   0   13.46    4.46
  20 -16   1    1.62    3.24
 -20  16   1   -1.70    3.08
  20 -16  -1    0.57    3.20
 -20  16  -1    1.50    2.76
  20 -16   2    4.30    3.69
 -20  16   2   12.08    4.58
  20 -16  -2    5.64    3.73
 -20  16  -2    6.61    3.69
  20 -16   3    0.36    2.72
 -20  16   3    0.00    3.32
 -20 -16  -3    1.46    4.18
  20  16   3    2.72    4.26
  20 -16  -3    0.81    3.24
 -20  16  -3    1.34    3.20
  20 -16   4    0.04    3.12
 -20 -16  -4    1.87    4.38
  20  16   4    2.55    4.26
  20 -16  -4    2.27    3.57
 -20  16  -4    3.24    3.16
  20 -16   5    1.01    3.08
 -20 -16  -5    1.26    4.38
  20  16   5   -2.80    3.49
 -20  16  -5    1.18    2.96
  20 -16   6    1.78    3.28
 -20 -16  -6    4.38    4.42
  20  16   6    5.23    4.18
 -20  16  -6    3.93    3.24
  20 -17   0    1.66    3.08
 -20  17   0    1.30    2.88
  20 -17   1   -2.27    2.88
 -20  17   1   -1.22    3.04
  20 -17  -1   -0.49    3.00
 -20  17  -1    0.65    3.12
  20 -17   2   -0.69    3.12
 -20  17   2   -2.07    3.04
  20  17   2    0.97    4.38
  20 -17  -2    0.45    3.20
 -20  17  -2   -0.08    3.12
  20 -17   3   -0.73    2.88
 -20  17   3    0.61    3.32
 -20 -17  -3    6.69    4.99
  20  17   3   -3.81    4.01
  20 -17  -3    4.01    3.37
 -20  17  -3    1.22    3.20
  20 -17   4   -0.49    3.12
 -20  17   4   -0.08    3.12
 -20 -17  -4    1.95    4.78
  20  17   4    4.74    4.22
  20 -17  -4    2.68    3.77
 -20  17  -4    2.84    3.04
  20 -17   5    0.61    3.53
 -20 -17  -5   -2.27    4.10
  20  17   5   -1.46    3.77
  20 -17  -5   -0.69    3.49
 -20  17  -5   -0.04    2.96
  20 -18   0   17.80    5.31
 -20  18   0   28.50    6.49
  20 -18   1    6.00    3.85
 -20  18   1    4.70    3.53
  20 -18  -1    3.04    3.69
 -20  18  -1    4.66    3.73
  20 -18   2    2.80    3.73
 -20  18   2    3.85    3.57
  20  18   2    1.70    4.42
  20 -18  -2    6.73    4.18
 -20  18  -2    2.11    3.28
  20 -18   3   -1.42    3.28
 -20  18   3    1.62    3.32
 -20 -18  -3    0.12    4.18
  20  18   3   -0.41    4.10
  20 -18  -3    2.19    3.61
 -20  18  -3   -1.18    2.76
  20 -18   4    2.27    4.30
 -20 -18  -4    0.12    6.93
 -20  18  -4    6.49    4.50
  21   0   7   14.43    3.00
 -21   0  -7   23.96    4.01
  21   0   8   22.02    3.97
 -21   0  -8   21.90    3.81
  21   0   9  174.48   21.77
 -21   0  -9  140.78   17.80
 -21   0 -10    0.85    1.91
  21   1   6    3.41    2.43
  21  -1   7    2.64    1.50
 -21  -1  -7    1.91    2.03
  21   1   7    1.01    2.19
 -21   1  -7    3.24    1.74
  21  -1   8    6.16    1.82
 -21  -1  -8    2.60    2.19
  21   1   8    4.01    2.31
 -21   1  -8    4.91    1.82
 -21  -1  -9    1.66    2.39
  21   1   9   -1.30    2.03
 -21   1  -9    3.41    1.87
 -21  -1 -10   16.54    3.65
  21   1  10   12.81    3.16
 -21  -1 -11    1.26    2.72
  21   2   6    1.50    2.60
  21  -2   7    1.46    1.14
 -21  -2  -7    5.23    2.43
  21   2   7    0.73    2.27
 -21   2  -7    3.08    1.46
  21  -2   8   -0.08    1.14
 -21  -2  -8   -1.62    2.03
  21   2   8    1.70    2.23
 -21   2  -8    0.85    1.54
 -21  -2  -9    7.50    2.80
  21   2   9   15.81    3.61
 -21   2  -9    6.16    1.82
 -21  -2 -10    1.26    2.31
  21   2  10    5.03    2.55
 -21  -2 -11   10.87    3.24
  21   2  11    6.24    3.00
 -21  -2 -12   -2.31    2.51
 -21  -3  -6    2.64    3.28
  21   3   6   -0.45    2.84
 -21  -3  -7    7.83    2.92
  21   3   7    7.26    3.16
 -21  -3  -8    6.08    2.84
  21   3   8    3.16    2.43
 -21   3  -8    4.62    1.26
 -21  -3  -9   -0.24    2.43
  21   3   9   -0.65    2.64
 -21  -3 -10    8.35    3.37
  21   3  10    8.76    3.41
 -21  -3 -11    1.58    2.55
  21   3  11    1.87    2.47
 -21  -4  -6   -0.65    2.96
  21   4   6   -0.36    2.96
 -21  -4  -7    1.74    2.72
  21   4   7    2.23    2.76
 -21  -4  -8   -0.04    2.39
  21   4   8   -0.97    2.43
 -21  -4  -9    3.00    2.64
  21   4   9    6.53    3.04
 -21  -4 -10    3.37    2.92
  21   4  10    0.41    2.72
 -21  -4 -11    3.53    2.76
  21   4  11    6.57    3.16
  21   5   5    1.30    3.20
  21  -5   6    3.69    1.46
 -21  -5  -6    5.80    3.49
  21   5   6    5.11    3.28
 -21  -5  -7   13.58    4.01
  21   5   7    8.68    3.57
 -21   5  -7   20.44    2.88
 -21  -5  -8   32.60    6.20
  21   5   8   29.64    5.84
 -21  -5  -9    3.41    2.92
  21   5   9    1.01    2.92
 -21  -5 -11   15.41    4.22
  21   5  11    8.96    3.73
  21  -6   5    6.65    2.07
  21   6   5    3.77    3.69
  21  -6   6    1.66    1.78
 -21  -6  -6    3.24    3.20
  21   6   6    4.50    3.20
 -21   6  -6    0.93    1.30
  21  -6   7    1.74    1.46
 -21  -6  -7    2.43    2.96
  21   6   7   -0.28    3.04
 -21   6  -7    2.15    1.26
 -21  -6  -8   -0.61    3.49
  21   6   8    0.89    2.76
 -21  -6  -9    6.69    3.20
  21   6   9    1.38    3.04
 -21  -6 -10    2.88    2.80
  21   6  10   -0.69    3.41
 -21  -6 -11    8.35    3.89
  21   6  11   10.58    4.01
  21  -7   4    5.51    2.31
  21  -7   5    2.92    1.99
 -21  -7  -5   -1.82    3.85
  21   7   5   -1.70    2.96
 -21   7  -5    1.42    1.70
  21  -7   6    2.72    1.91
  21   7   6    1.54    3.04
 -21   7  -6    6.12    1.91
 -21  -7  -7    0.77    2.76
  21   7   7    2.07    3.24
 -21   7  -7    1.50    1.38
 -21  -7  -8    9.49    3.89
  21   7   8    8.31    3.81
 -21   7  -8   12.61    2.68
 -21  -7  -9    2.07    2.92
  21   7   9   -0.12    2.92
 -21  -7 -10    7.18    3.57
  21   7  10    6.77    3.49
 -21  -7 -11    1.58    3.32
  21   7  11    2.76    3.12
  21  -8   3    1.54    2.35
  21  -8   4    2.72    2.03
 -21   8  -4    1.87    2.11
  21  -8   5    0.20    1.99
 -21  -8  -5    3.12    3.85
  21   8   5    2.88    3.37
 -21   8  -5    1.09    1.91
  21  -8   6    3.57    2.11
 -21  -8  -6    1.74    3.81
  21   8   6    1.30    2.88
 -21   8  -6    6.12    2.35
  21  -8   7    4.78    2.19
 -21  -8  -7    0.93    3.37
  21   8   7    7.42    4.18
 -21   8  -7    6.16    2.11
 -21  -8  -8   17.35    5.07
  21   8   8   14.64    4.78
 -21   8  -8   12.65    3.08
 -21  -8  -9    4.78    3.61
  21   8   9    5.80    3.65
 -21  -8 -10    0.85    2.80
  21   8  10    1.62    2.92
  21  -9   2   -0.28    2.47
  21  -9   3    1.58    2.15
 -21   9  -3    3.08    2.51
  21  -9   4    3.32    2.55
 -21   9  -4    7.42    2.60
  21  -9   5   -0.04    2.47
 -21  -9  -5    3.32    3.85
  21   9   5    0.73    3.61
 -21   9  -5    0.77    1.95
  21  -9   6    2.27    2.11
 -21  -9  -6    0.00    3.69
  21   9   6    1.58    3.16
 -21   9  -6    1.22    1.99
  21  -9   7    1.74    2.23
 -21  -9  -7    2.19    3.61
  21   9   7   -0.81    3.37
 -21   9  -7    0.89    2.03
 -21  -9  -8    6.33    3.89
  21   9   8    2.80    3.37
 -21   9  -8    3.77    2.39
 -21  -9  -9    1.78    3.32
  21   9   9    1.05    3.28
 -21  -9 -10    1.46    3.16
  21   9  10    0.12    2.80
  21 -10   2   -1.38    2.47
 -21  10  -2   -0.08    2.55
  21 -10   3   11.27    3.32
 -21  10  -3    5.15    2.60
  21 -10   4    2.07    2.39
  21  10   4    2.39    3.85
 -21  10  -4    3.81    2.55
  21 -10   5    1.95    2.35
 -21 -10  -5    1.26    3.77
  21  10   5    2.47    3.85
 -21  10  -5    5.47    2.68
  21 -10   6    0.04    2.15
 -21 -10  -6    0.77    3.93
  21  10   6    0.61    3.49
 -21  10  -6    1.70    2.11
  21 -10   7    9.69    3.20
 -21 -10  -7    4.95    3.97
  21  10   7    7.54    4.58
 -21  10  -7    8.27    2.96
  21 -10   8    1.22    2.39
 -21 -10  -8    4.62    3.97
  21  10   8    9.61    4.26
 -21  10  -8    2.35    2.51
 -21 -10  -9   14.31    4.91
  21  10   9   22.83    5.88
 -21 -10 -10    2.15    3.57
  21  10  10   -0.32    3.49
  21 -11   1    3.12    2.88
 -21  11  -1    1.58    2.88
  21 -11   2    2.39    2.68
 -21  11  -2    0.32    2.39
  21 -11   3    4.74    2.84
 -21  11  -3    1.50    2.80
  21 -11   4    2.15    2.47
  21  11   4    0.28    3.77
 -21  11  -4    3.16    2.60
  21 -11   5   -0.49    2.23
 -21 -11  -5    1.99    4.10
  21  11   5   -1.30    3.81
 -21  11  -5    1.66    2.60
  21 -11   6    3.16    2.35
 -21 -11  -6   -0.57    3.97
  21  11   6   -0.57    3.45
 -21  11  -6    0.24    2.19
  21 -11   7   -0.08    2.39
 -21 -11  -7   -1.42    3.41
  21  11   7    1.22    3.61
 -21  11  -7   13.54    3.73
  21 -11   8   -1.26    2.43
 -21 -11  -8    3.28    3.69
  21  11   8    1.62    3.49
 -21  11  -8    0.65    2.51
 -21 -11  -9   -0.45    3.24
  21  11   9   -0.97    3.24
  21 -12   0    1.74    3.16
  21 -12   1    1.58    2.80
 -21  12  -1    4.78    3.04
  21 -12   2    2.80    2.84
 -21  12  -2    3.16    2.92
  21 -12   3    8.03    3.32
 -21  12  -3   13.14    3.89
  21 -12   4    2.68    2.72
 -21 -12  -4    4.70    4.78
  21  12   4   -2.19    4.26
 -21  12  -4    2.64    2.51
  21 -12   5    0.41    2.47
 -21 -12  -5    0.28    4.34
  21  12   5    0.16    4.01
 -21  12  -5    1.46    2.51
  21 -12   6    2.31    2.51
 -21 -12  -6    4.42    4.22
  21  12   6    0.57    3.37
 -21  12  -6    1.99    2.51
  21 -12   7    1.74    2.47
 -21 -12  -7   -0.97    3.57
  21  12   7    0.28    3.73
 -21  12  -7    3.32    3.08
  21 -12   8   -0.28    2.51
 -21 -12  -8    1.46    3.65
  21  12   8    1.91    3.45
 -21  12  -8   -1.66    3.24
 -21 -12  -9    1.38    3.65
  21 -13   0    0.77    2.96
 -21  13   0    2.23    3.20
  21 -13   1   -0.89    2.60
  21 -13  -1    6.73    3.85
 -21  13  -1    0.00    2.55
  21 -13   2    2.39    3.20
 -21  13  -2    1.54    2.55
  21 -13   3   31.71    6.00
 -21  13  -3   16.34    4.34
  21 -13   4   -0.53    2.47
 -21 -13  -4    7.74    4.78
  21  13   4    1.62    4.30
 -21  13  -4    0.00    3.08
  21 -13   5    0.69    2.72
 -21 -13  -5    5.56    4.50
  21  13   5    0.57    4.01
 -21  13  -5    3.04    2.80
  21 -13   6   11.96    3.77
 -21 -13  -6    9.89    5.03
  21  13   6    2.11    3.69
 -21  13  -6    9.08    3.49
  21 -13   7   -2.68    2.47
 -21 -13  -7   -1.01    3.37
  21  13   7    0.77    3.65
 -21  13  -7   -0.12    2.60
  21 -13   8    6.53    3.32
 -21 -13  -8   -0.04    3.41
  21  13   8   -1.46    3.28
 -21  13  -8    0.36    2.60
  21 -14   0   -2.27    2.55
 -21  14   0   -1.50    2.64
  21 -14   1   -1.78    2.80
 -21  14   1    6.73    3.61
  21 -14  -1    1.30    3.08
 -21  14  -1    0.77    2.80
  21 -14   2    0.65  113.98
  21 -14  -2    5.39    3.32
 -21  14  -2   -0.81    2.27
  21 -14   3    0.57    2.72
  21  14   3    3.65    4.50
 -21  14  -3    6.37    3.24
  21 -14   4    1.14    2.64
 -21 -14  -4    0.00    4.14
  21  14   4    1.09    4.10
 -21  14  -4   -1.62    2.72
  21 -14   5    6.12    3.49
 -21 -14  -5    1.87    4.05
  21  14   5    4.54    4.54
 -21  14  -5    7.26    3.41
  21 -14   6   -0.32    2.64
 -21 -14  -6   -2.03    4.10
  21  14   6    1.09    3.45
 -21  14  -6   -1.78    2.35
  21 -14   7    1.74    2.84
 -21 -14  -7    0.49    3.32
  21  14   7   -0.08    3.85
 -21  14  -7   -1.22    2.68
  21 -15   0    5.64    3.77
 -21  15   0    0.04    2.92
  21 -15   1   -0.81    2.92
 -21  15   1    1.09    2.92
  21 -15  -1   -1.05    3.16
 -21  15  -1   -1.30    2.60
  21 -15   2    1.78    3.04
 -21  15   2    7.34    3.93
  21 -15  -2    7.99    4.26
 -21  15  -2    4.14    3.28
  21 -15   3    3.32    3.20
  21  15   3   -1.95    4.38
  21 -15  -3    3.93    3.77
 -21  15  -3    0.73    2.88
  21 -15   4   16.06    4.70
 -21 -15  -4   22.71    6.89
  21  15   4    7.58    6.00
 -21  15  -4   12.69    4.46
  21 -15   5    0.00    2.80
 -21 -15  -5    1.74    4.30
  21  15   5   -1.42    3.77
 -21  15  -5    5.15    3.08
  21 -15   6    1.99    3.04
 -21 -15  -6    7.99    4.78
  21  15   6    5.92    4.54
 -21  15  -6    5.23    3.20
  21 -16   0    0.16    3.20
 -21  16   0    2.72    2.92
  21 -16   1    5.43    3.77
 -21  16   1    2.27    3.20
  21 -16  -1    3.57    3.45
 -21  16  -1    3.37    3.20
  21 -16   2    9.37    3.97
 -21  16   2    6.37    3.53
  21 -16  -2    2.60    3.20
 -21  16  -2    5.11    3.24
  21 -16   3    2.96    3.28
 -21  16   3    6.53    3.69
  21  16   3   -2.80    4.22
  21 -16  -3    1.46    3.37
 -21  16  -3    0.04    3.08
  21 -16   4    1.50    3.08
 -21 -16  -4    4.74    4.62
  21  16   4   -0.45    4.26
  21 -16  -4    0.41    3.49
 -21  16  -4    1.54    3.00
  21 -16   5    0.49    2.92
 -21 -16  -5    8.92    5.07
  21  16   5    5.88    4.83
 -21  16  -5    3.45    3.32
  21 -17   0   -1.34    3.12
 -21  17   0    3.97    3.41
  21 -17   1    3.85    3.37
 -21  17   1    2.68    3.20
  21 -17  -1   -0.45    3.24
 -21  17  -1   -2.84    2.72
  21 -17   2   -0.32    3.00
 -21  17   2    1.91    3.37
  21 -17  -2    4.46    3.77
 -21  17  -2   -0.57    3.00
  21 -17   3    0.41    3.24
 -21  17   3    0.81    2.96
 -21 -17  -3    0.49    4.46
  21  17   3    3.57    4.22
  21 -17  -3   -1.91    3.32
 -21  17  -3    0.20    3.00
  22   0   7    5.43    2.03
 -22   0  -7    4.70    2.27
  22   0   8    2.31    1.66
 -22   0  -8    4.50    2.03
  22   0   9    8.35    2.47
 -22   0  -9    8.03    2.72
  22   0  10    0.49    1.82
 -22   0 -10   -0.57    1.87
 -22   0 -11   -0.65    2.11
  22  -1   7    2.19    1.46
 -22  -1  -7    0.89    2.27
  22   1   7    1.74    2.11
  22  -1   8   -0.08    1.66
 -22  -1  -8   -0.28    2.19
  22   1   8    2.88    2.07
 -22   1  -8    0.69   16.54
  22  -1   9    0.53    1.42
 -22  -1  -9    1.05    2.07
  22   1   9    3.24    2.31
 -22   1  -9    0.28    1.66
 -22  -1 -10    1.50    2.11
  22   1  10    2.76    2.15
 -22   1 -10    1.70    2.15
 -22  -1 -11    0.24    1.95
  22   1  11   -0.61    2.15
  22   2   6    0.61    2.27
  22  -2   7    0.57    1.26
 -22  -2  -7   10.58    3.24
  22   2   7    4.34    2.47
  22  -2   8   -1.46    1.14
 -22  -2  -8    3.08    2.64
  22   2   8   -0.73    2.03
 -22   2  -8    0.89    1.18
 -22  -2  -9    1.74    2.39
  22   2   9    3.45    2.72
 -22   2  -9    3.24    1.54
 -22  -2 -10    0.36    2.47
  22   2  10    3.69    2.47
 -22  -2 -11    0.89    2.60
  22   2  11    2.96    2.55
  22   3   6    4.42    3.00
 -22  -3  -7    1.26    2.64
  22   3   7   -0.69    2.23
 -22  -3  -8    3.32    2.84
  22   3   8   -0.89    2.15
 -22  -3  -9    5.31    2.64
  22   3   9    4.14    2.60
 -22  -3 -10    6.65    3.08
  22   3  10    1.34    2.47
 -22  -3 -11    0.69    2.72
  22   3  11    2.27    2.92
 -22  -4  -6    2.27    3.00
  22   4   6    1.54    2.72
 -22  -4  -7    2.27    2.84
  22   4   7    2.19    2.68
 -22  -4  -8    0.20    2.80
  22   4   8   -0.24    2.31
 -22  -4  -9    0.16    2.43
  22   4   9    3.00    2.64
 -22  -4 -10    0.73    2.51
  22   4  10    2.23    3.08
  22  -5   6    5.43    1.58
 -22  -5  -6    8.60    3.69
  22   5   6    4.05    3.24
 -22  -5  -7    5.51    3.32
  22   5   7   -2.47    2.55
 -22  -5  -8   -0.53    2.72
  22   5   8    0.89    2.55
 -22  -5  -9    0.81    2.68
  22   5   9   -2.23    2.43
 -22  -5 -10    1.42    2.80
  22   5  10    5.51    3.53
  22   6   5   -0.32    3.08
  22  -6   6    2.07    1.66
 -22  -6  -6    0.57    3.37
  22   6   6   -1.09    2.92
 -22   6  -6    2.68    1.42
  22  -6   7    1.50    1.46
 -22  -6  -7    0.20    3.12
  22   6   7    2.64    3.16
 -22   6  -7   -0.97    1.22
 -22  -6  -8   -3.20    2.80
  22   6   8    0.28    2.64
 -22   6  -8    1.42    1.54
 -22  -6  -9    0.08    2.84
  22   6   9    0.89    2.76
 -22  -6 -10    0.61    2.68
  22   6  10    0.24    3.28
  22  -7   5   -0.04    1.66
  22   7   5   -0.08    3.37
  22  -7   6   12.65    2.92
 -22  -7  -6   12.37    4.66
  22   7   6    7.62    4.18
 -22   7  -6   11.52    2.35
  22  -7   7    0.89    1.82
 -22  -7  -7    0.00    3.41
  22   7   7    2.92    3.41
 -22   7  -7    1.38    1.42
 -22  -7  -8   12.33    4.22
  22   7   8    9.97    4.05
 -22   7  -8   17.03    3.04
 -22  -7  -9   -1.42    2.72
  22   7   9    0.57    2.80
  22  -8   4    2.51    2.31
  22  -8   5    7.38    2.68
  22   8   5    3.93    4.01
 -22   8  -5    9.49    2.47
  22  -8   6   -0.36    1.87
 -22  -8  -6    2.84    3.85
  22   8   6   -0.85    3.81
 -22   8  -6    3.81    1.82
  22  -8   7   39.53    5.92
 -22  -8  -7   50.12    8.92
 -22   8  -7   54.94    7.46
 -22  -8  -8   10.30    4.10
  22   8   8    8.88    3.85
 -22   8  -8   13.87    3.28
 -22  -8  -9    6.41    3.65
  22   8   9   -1.22    3.00
  22  -9   3   -0.04    2.15
  22  -9   4    1.50    2.35
 -22   9  -4    3.57    2.23
  22  -9   5    0.08    2.19
 -22  -9  -5   -3.04    3.85
  22   9   5    1.78    3.89
 -22   9  -5    0.00    1.95
  22  -9   6    0.81    1.95
 -22  -9  -6   -2.27    3.89
  22   9   6    1.26    3.69
 -22   9  -6    4.05    2.23
  22  -9   7    1.18    2.23
 -22  -9  -7    1.18    3.16
  22   9   7    3.65    3.65
 -22   9  -7    1.22    1.78
  22  -9   8    1.50    2.19
 -22  -9  -8    0.28    3.16
  22   9   8    0.77    3.08
 -22   9  -8    1.66    1.82
 -22  -9  -9    1.09    2.92
  22   9   9   -0.41    3.08
  22 -10   2   -0.45    2.47
  22 -10   3    4.34    2.68
 -22  10  -3   13.75    3.65
  22 -10   4    0.45    2.23
 -22  10  -4    6.20    2.55
  22 -10   5    6.16    2.96
 -22 -10  -5    6.97    4.54
  22  10   5    4.83    4.54
 -22  10  -5    7.79    2.72
  22 -10   6    3.85    2.23
 -22 -10  -6    2.35    3.77
  22  10   6    1.62    3.53
 -22  10  -6    1.58    2.19
  22 -10   7    0.97    2.35
 -22 -10  -7    4.87    3.77
  22  10   7    1.01    3.45
 -22  10  -7    2.68    1.99
  22 -10   8    0.45    2.27
 -22 -10  -8   -1.95    3.00
  22  10   8    2.68    3.32
 -22  10  -8    0.45    2.07
 -22  10  -9    0.32   65.16
  22 -11   1    2.23    3.00
  22 -11   2    0.49    2.55
 -22  11  -2    2.96    2.72
  22 -11   3   -1.99    2.43
 -22  11  -3   -0.08    7.79
  22 -11   4   -0.41    2.19
  22  11   4    0.36    3.89
 -22  11  -4    1.62    2.39
  22 -11   5    0.36    2.27
 -22 -11  -5   -0.53    3.85
  22  11   5    1.22    3.57
 -22  11  -5    0.97    2.80
  22 -11   6   -0.36    2.15
 -22 -11  -6    3.20    3.89
  22  11   6    1.82    3.53
 -22  11  -6    1.30    2.19
  22 -11   7   -1.62    2.31
 -22 -11  -7    1.22    3.53
  22  11   7    0.53    3.41
 -22  11  -7   -0.45    1.95
  22 -11   8   -0.16    2.39
 -22 -11  -8    2.84    3.53
  22  11   8   -2.92    3.49
 -22  11  -8    1.91    2.19
  22 -12   0    1.30    2.92
  22 -12   1   16.87    4.54
 -22  12  -1   15.12    4.30
  22 -12   2   -2.11    2.47
 -22  12  -2    3.77    2.55
  22 -12   3    1.99    2.55
 -22  12  -3    0.12    2.72
  22 -12   4   -1.74    2.35
  22  12   4    0.69    4.18
 -22  12  -4   -0.61    2.51
  22 -12   5    4.34    2.68
 -22 -12  -5   12.89    5.43
  22  12   5   -0.93    3.89
 -22  12  -5    3.69    2.96
  22 -12   6    2.19    2.35
 -22 -12  -6    1.09    3.85
  22  12   6   -1.30    3.24
 -22  12  -6    1.22    2.43
  22 -12   7    7.10    3.16
 -22 -12  -7   20.15    5.88
  22  12   7    4.05    4.34
 -22  12  -7   15.45    4.01
  22 -13   0   85.35   12.77
 -22  13   0   89.73   13.18
  22 -13   1    3.04    2.92
  22 -13  -1    4.50    3.45
 -22  13  -1    2.55    2.96
  22 -13   2   26.96    5.72
 -22  13  -2   25.91    5.47
  22 -13   3   -1.82    2.47
 -22  13  -3    1.34    2.39
  22 -13   4    7.34    3.49
  22  13   4    8.03    4.95
 -22  13  -4    6.49    3.32
  22 -13   5    4.50    2.72
 -22 -13  -5   -1.01    4.01
  22  13   5    0.85    4.01
 -22  13  -5    1.50    3.00
  22 -13   6   11.68    3.49
 -22 -13  -6   24.82    6.69
  22  13   6   13.87    5.35
 -22  13  -6   28.87    5.68
  22 -13   7    0.73    2.92
 -22 -13  -7    0.53    3.32
 -22  13  -7    1.01    2.88
  22 -14   0    0.45    2.84
 -22  14   0   -0.04    2.92
  22 -14   1   -0.28    2.88
 -22  14   1   -0.85    2.84
  22 -14  -1    0.97    3.37
 -22  14  -1    0.20    2.96
  22 -14   2    1.38    2.84
  22 -14  -2    1.05    3.12
 -22  14  -2   -1.91    2.43
  22 -14   3    0.45    2.68
 -22  14  -3    0.73    2.68
  22 -14   4    2.35    2.76
 -22 -14  -4   -1.82    4.01
  22  14   4    1.42    4.18
 -22  14  -4    2.64    3.16
  22 -14   5   -0.73    2.68
 -22 -14  -5   -1.54    3.97
  22  14   5    3.24    4.05
 -22  14  -5    1.74    2.68
  22 -14   6    1.22    2.68
 -22 -14  -6    1.50    3.69
  22  14   6    0.97    3.69
 -22  14  -6    0.12    2.76
  22 -15   0    1.22    3.28
 -22  15   0    0.61    2.88
  22 -15   1   -0.53    2.96
 -22  15   1    0.53    3.00
  22 -15  -1    1.14    3.12
 -22  15  -1    0.36    2.76
  22 -15   2   -1.78    2.72
  22 -15  -2   -1.78    3.08
 -22  15  -2    4.05    2.92
  22 -15   3    0.69    2.88
  22  15   3   -1.66    3.93
  22 -15  -3    1.95    3.37
 -22  15  -3    2.72    3.12
  22 -15   4    3.49    2.96
 -22 -15  -4   -4.34    3.73
  22  15   4   -0.53    4.14
 -22  15  -4   -1.78    2.88
  22 -16   0   -0.85    3.04
 -22  16   0    1.05    3.12
  22 -16   1    3.81    3.49
 -22  16   1    6.37    3.89
  22 -16  -1    9.24    4.18
 -22  16  -1    6.81    3.61
  22 -16   2    0.16    2.96
 -22  16   2    0.73    3.08
  22 -16  -2    1.82    3.28
 -22  16  -2   -0.53    3.08
  22 -16   3    1.91    3.57
  22 -16  -3    2.35    4.01
 -22  16  -3    5.60    3.57
  23   0   7   14.27    3.28
  23   0   8    4.54    1.95
 -23   0  -8    1.95    1.91
  23   0   9    0.41    1.87
 -23   0  -9    7.38    2.39
  23   0  10    1.30    1.78
 -23   0 -10   -0.57   24.90
  23  -1   7    1.09    1.74
 -23  -1  -7    2.88    2.51
  23   1   7   -0.28    2.43
  23  -1   8    1.62    1.42
 -23  -1  -8    0.53    2.19
  23   1   8    0.45    2.03
 -23   1  -8    2.27    1.62
  23  -1   9    0.49    1.46
 -23  -1  -9    1.26    1.99
  23   1   9    1.42    2.31
 -23   1  -9    0.93    1.78
 -23  -1 -10   -0.45    2.47
  23   1  10    1.62    2.27
 -23   1 -10    2.55    1.95
  23  -2   7    0.49    1.46
 -23  -2  -7    2.27    2.88
  23   2   7    1.74    2.51
  23  -2   8    0.69    1.46
 -23  -2  -8    5.11    2.72
  23   2   8    0.20    2.03
 -23   2  -8    3.41    1.38
  23  -2   9    0.12    1.26
 -23  -2  -9    5.92    2.68
  23   2   9   -0.08    2.19
 -23   2  -9    0.00    1.38
 -23  -2 -10    1.70    2.76
  23   2  10    1.26    2.47
 -23   2 -10    0.32    1.54
  23   3   6    5.80    3.24
 -23  -3  -7   -0.81    2.92
  23   3   7    0.12    2.43
 -23  -3  -8    1.42    2.72
  23   3   8    0.85    2.31
 -23  -3  -9    0.61    2.19
  23   3   9    2.03    2.31
 -23   3  -9    0.65    1.34
 -23  -3 -10   -0.97    2.47
  23   3  10    1.05    3.08
  23   4   6    1.50    3.20
 -23  -4  -7   -1.05    2.84
  23   4   7    1.14    2.68
 -23  -4  -8    0.73    2.92
  23   4   8    0.49    2.51
 -23  -4  -9    0.20    2.31
  23   4   9   -0.16    2.39
  23   5   6   16.42    5.07
  23  -5   7    1.78    1.09
 -23  -5  -7    2.60    3.16
  23   5   7    4.50    3.00
 -23  -5  -8    4.62    3.24
  23   5   8    0.81    3.04
 -23  -5  -9    4.50    2.88
  23   5   9   -1.18    2.51
  23  -6   6    1.62    1.46
 -23  -6  -6    0.93    3.37
  23   6   6    2.80    3.73
  23  -6   7    1.99    1.46
 -23  -6  -7    0.16    3.16
  23   6   7    0.00    2.84
 -23   6  -7    0.45    1.18
 -23  -6  -8    1.70    3.08
  23   6   8    1.54    3.00
 -23   6  -8   -0.36    1.14
 -23  -6  -9    0.45    2.60
  23   6   9    0.69    2.76
  23  -7   5    1.62    1.87
  23  -7   6   -0.20    1.78
 -23  -7  -6   -0.85    3.49
  23   7   6    2.68    3.61
 -23   7  -6    3.04    1.58
  23  -7   7    1.14    1.50
 -23  -7  -7   -2.76    3.24
  23   7   7   -1.87    2.84
 -23   7  -7    0.28    1.54
 -23  -7  -8    1.82    3.12
  23   7   8    1.62    3.28
 -23   7  -8    2.51    1.54
 -23  -7  -9   -2.43    2.84
  23   7   9    2.80    2.96
  23  -8   4    7.74    2.68
  23  -8   5    2.15    2.11
  23   8   5    4.14    3.97
 -23   8  -5    1.42    1.70
  23  -8   6    1.42    2.11
 -23  -8  -6    2.68    3.73
  23   8   6    2.51    3.41
 -23   8  -6    0.73    1.70
  23  -8   7    0.61    1.70
 -23  -8  -7    3.85    3.57
  23   8   7   -2.15    2.84
 -23   8  -7    4.01    1.82
  23  -8   8    2.19    1.82
 -23  -8  -8    6.49    3.73
  23   8   8    1.87    3.28
 -23   8  -8    3.16    1.74
  23  -9   3    1.54    2.31
  23  -9   4    1.91    2.03
 -23   9  -4    2.31    2.19
  23  -9   5   -0.32    2.11
  23   9   5   -0.28    3.69
 -23   9  -5    0.77    1.82
  23  -9   6    4.95    2.19
 -23  -9  -6    4.54    3.85
  23   9   6    2.19    3.65
 -23   9  -6    1.58    1.87
  23  -9   7   -1.99    1.91
 -23  -9  -7   -1.18    3.32
  23   9   7   -2.76    3.00
 -23   9  -7    0.69    5.76
  23  -9   8   -0.08    1.91
 -23  -9  -8    0.65    3.24
  23   9   8    2.84    3.20
 -23   9  -8    2.15    1.99
  23 -10   2    0.53    2.43
  23 -10   3    9.61    3.16
 -23  10  -3   11.47    3.49
  23 -10   4    5.68    2.84
 -23  10  -4    1.26    2.39
  23 -10   5    4.91    2.84
  23  10   5    3.65    3.97
 -23  10  -5    5.15    2.47
  23 -10   6    3.37    2.31
 -23 -10  -6    1.50    3.65
  23  10   6    0.73    3.49
 -23  10  -6   -1.22    2.23
  23 -10   7    2.55    2.11
 -23 -10  -7   -1.74    3.37
  23  10   7    2.96    3.24
 -23  10  -7    2.51    2.11
  23 -11   2   -2.15    2.39
  23 -11   3    0.65    2.47
 -23  11  -3    2.07    2.64
  23 -11   4    0.61    2.47
 -23  11  -4    3.81    2.68
  23 -11   5    3.57    2.80
 -23 -11  -5    0.04    3.81
  23  11   5   -0.41    3.89
 -23  11  -5    2.43    2.35
  23 -11   6    1.38    2.27
 -23 -11  -6    4.50    3.97
  23  11   6    1.70    3.61
 -23  11  -6    3.77    2.72
  23 -11   7   -1.18    6.16
 -23 -11  -7   -0.45    3.49
  23  11   7   -1.78    3.61
 -23  11  -7    0.41    1.99
  23 -12   1    0.28    2.76
  23 -12   2    0.85    2.60
 -23  12  -2    1.66    2.72
  23 -12   3   -0.77    2.55
 -23  12  -3    0.20    2.39
  23 -12   4   -0.16    2.35
  23  12   4   -3.32    3.45
 -23  12  -4    0.57    2.39
  23 -12   5   -0.49    2.27
 -23 -12  -5    1.54    4.18
  23  12   5    2.35    3.85
 -23  12  -5    1.01    2.55
  23 -12   6   -0.16    2.39
 -23 -12  -6   -0.12    3.69
  23  12   6    1.38    3.81
 -23  12  -6    1.74    2.51
  23 -13   0   -1.14    2.84
  23 -13   1   -1.26    2.60
 -23  13  -1    3.41    3.08
  23 -13   2    1.70    3.08
 -23  13  -2    2.80    2.84
  23 -13   3    6.45    3.37
 -23  13  -3    5.35    3.28
  23 -13   4    2.84    2.84
  23  13   4    2.43    4.10
 -23  13  -4    1.99    2.72
  23 -13   5   -0.41    2.31
 -23 -13  -5   -0.08    3.77
  23  13   5   -1.58    3.61
 -23  13  -5   -1.58   22.63
  23 -14   0    0.85    3.04
 -23  14   0    2.03    2.80
  23 -14   1   -0.12   68.89
  23 -14  -1    4.70    3.45
 -23  14  -1   -1.70    2.51
  23 -14   2    0.69    2.76
 -23  14  -2   -1.26    2.64
  23 -14   3    2.11    2.80
 -23  14  -3    1.62    2.76
  23 -14   4    1.05    3.04
  23  14   4   -4.10    3.69
 -23  14  -4   -1.42    2.92
  23 -15   0    1.66    3.00
 -23  15   0   -2.88    2.60
  23 -15   1   -0.36    3.12
 -23  15   1    0.93    3.08
  23 -15  -1    2.15    4.01
 -23  15  -1    0.65    2.84
  24   0   7   13.87    3.41
  24   0   8   16.14    3.45
 -24   0  -8   18.98    3.77
  24   0   9    6.57    2.68
 -24   0  -9    4.46    2.15
  24   1   7   -0.24    2.19
  24  -1   8   -0.41    1.34
 -24  -1  -8   -1.14    2.03
  24   1   8    1.34    2.07
 -24   1  -8    0.93    1.70
  24  -1   9    3.53    2.07
 -24  -1  -9    0.77    2.11
  24   1   9    1.54    2.03
 -24   1  -9    0.89    1.66
  24   2   7    3.24    2.64
  24  -2   8   -0.45    1.14
 -24  -2  -8    0.53    2.07
  24   2   8   -0.61    2.19
 -24   2  -8    1.22    1.50
  24  -2   9    1.26   66.78
 -24  -2  -9    2.92    2.35
  24   2   9    1.87    2.43
 -24   2  -9    3.69    1.70
 -24  -3  -7    5.27    3.16
  24   3   7    2.55    2.84
 -24  -3  -8    3.28    2.51
  24   3   8   10.22    3.37
 -24  -3  -9   -1.62    2.35
  24   3   9    1.95    2.39
 -24   3  -9    0.69   72.70
  24   4   6    1.58    2.96
 -24  -4  -7    1.14    2.92
  24   4   7    3.37    3.08
 -24  -4  -8    2.64    2.68
  24   4   8    3.08    2.84
  24   5   6    1.30    2.96
  24  -5   7   29.76    4.01
 -24  -5  -7   25.67    5.72
  24   5   7   13.26    4.38
 -24  -5  -8    2.55    2.84
  24   5   8   -0.16    2.76
  24  -6   6    6.77    1.87
  24   6   6    1.78    3.20
  24  -6   7    0.69    1.42
 -24  -6  -7    1.99    3.28
  24   6   7   -2.96    2.60
  24  -6   8    0.41    8.96
 -24  -6  -8   -1.05    2.88
  24   6   8    2.11    3.28
 -24   6  -8    0.00    1.01
  24  -7   6    2.19    1.78
 -24  -7  -6    0.57    3.20
  24   7   6   -0.69    3.08
  24  -7   7    3.85    1.78
 -24  -7  -7    7.99    3.85
  24   7   7    1.34    3.20
 -24   7  -7    4.91    1.62
  24  -8   5    0.16    1.95
  24  -8   6    0.89    1.87
 -24  -8  -6    3.12    3.69
  24   8   6   -0.20    3.24
 -24   8  -6    1.54    1.62
  24  -8   7   16.42    3.24
 -24  -8  -7   21.61    5.68
  24   8   7   18.21    5.19
 -24   8  -7   21.33    3.69
  24  -9   4    2.88    2.23
  24  -9   5   -0.45    2.07
  24   9   5    0.57    3.49
 -24   9  -5    5.15    2.19
  24  -9   6    1.38    2.39
 -24  -9  -6    4.26    3.53
  24   9   6    0.08    3.32
 -24   9  -6    4.91    2.19
  24 -10   3   16.95    4.05
  24 -10   4    6.12    2.68
 -24  10  -4    7.70    2.88
  24 -10   5    1.62    2.27
  24  10   5    0.81    3.61
 -24  10  -5    1.74    2.23
  24 -10   6   -1.34    2.51
 -24 -10  -6    5.56    3.97
  24  10   6    0.12    3.65
 -24  10  -6    2.51    2.35
  24 -11   2   -0.93    2.60
  24 -11   3   -0.04    2.19
 -24  11  -3    0.24    2.55
  24 -11   4   -0.28    2.27
 -24  11  -4   -2.55    2.15
  24 -11   5    0.16    8.11
  24  11   5    4.74    3.73
 -24  11  -5    1.18    4.14
  24 -12   1    0.73    2.84
  24 -12   2    0.32    2.64
 -24  12  -2    1.01    2.51
  24 -12   3   -1.30    2.35
 -24  12  -3    1.01    2.47
  24 -12   4    0.61    2.47
 -24  12  -4   -0.32    2.60
  24 -13   0   -1.95    2.96
  24 -13   1   -0.12    2.88
 -24  13  -1    2.23    3.04
  24 -13   2    6.16    3.69
 -24  13  -2    8.51    3.81
  25   1   7    0.49    2.27
  25   2   7   -0.93    2.47
  25   3   7    4.50    2.92
 -25  -4  -7    0.12    2.92
  25   4   7   -0.53   37.75
 -25  -5  -7   -3.28    3.16
  25   5   7    2.39    2.92
  25   6   6    3.32    3.28
  25  -7   6    2.03    1.74
  25   7   6   -1.18    3.28
  25  -8   5   27.25    4.70
  25  -9   4    1.95    2.19
 -25   9  -5    0.85    2.19
  25 -10   3    1.38    2.27
  25 -10   4    1.70   10.30
  25 -11   2    0.73    3.20
   0   0   0    0.00    0.00

_computing_structure_solution     'SHELXT 2014/5 (Sheldrick, 2014)'
;
_shelx_hkl_checksum              86132
loop_
_space_group_symop_operation_xyz
'x, y, z'
'-x+1/2, -y, z+1/2'
'-x, y+1/2, -z'
'x+1/2, -y+1/2, -z+1/2'
'-x, -y, -z'
'x-1/2, y, -z-1/2'
'x, -y-1/2, z'
'-x-1/2, y-1/2, z-1/2'
loop_
_atom_site_label
_atom_site_type_symbol
_atom_site_fract_x
_atom_site_fract_y
_atom_site_fract_z
_atom_site_U_iso_or_equiv
_atom_site_adp_type
_atom_site_occupancy
_atom_site_site_symmetry_order
_atom_site_calc_flag
_atom_site_refinement_flags_posn
_atom_site_refinement_flags_adp
_atom_site_refinement_flags_occupancy
_atom_site_disorder_assembly
_atom_site_disorder_group
Si1 Si 0.42296(18) 1.05686(15) 0.6653(3) 0.0287(11) Uani 1 1 d D . . . .
Si2 Si 0.30934(18) 1.02889(16) 0.8124(4) 0.0307(11) Uani 1 1 d D . . . .
Si3 Si 0.27948(19) 1.06225(15) 1.0332(4) 0.0299(12) Uani 1 1 d D . . . .
Si4 Si 0.12245(18) 1.06397(15) 1.0291(4) 0.0270(11) Uani 1 1 d D . . . .
Si5 Si 0.07246(16) 1.02803(15) 0.8166(3) 0.0257(11) Uani 1 1 d D . . . .
Si6 Si 0.18759(19) 1.05913(16) 0.6737(4) 0.0324(12) Uani 1 1 d D . . . .
Si7 Si 0.42334(17) 0.82806(15) 0.6764(3) 0.0272(11) Uani 1 1 d D . . . .
Si8 Si 0.30954(18) 0.87115(15) 0.8181(4) 0.0309(11) Uani 1 1 d D . . . .
Si9 Si 0.27426(18) 0.82785(14) 1.0331(3) 0.0283(11) Uani 1 1 d D . . . .
Si10 Si 0.11925(19) 0.82640(15) 1.0296(4) 0.0355(13) Uani 1 1 d D . . . .
Si11 Si 0.07048(17) 0.87037(15) 0.8198(4) 0.0310(12) Uani 1 1 d D . . . .
Si12 Si 0.18849(17) 0.82698(16) 0.6851(4) 0.0297(11) Uani 1 1 d D . . . .
O1 O 0.3749(4) 1.0544(4) 0.7584(8) 0.076(4) Uani 1 1 d D . . . .
O2 O 0.3082(4) 1.0590(4) 0.9226(6) 0.063(3) Uani 1 1 d D . . . .
O3 O 0.2014(3) 1.0581(6) 1.0273(13) 0.104(6) Uani 1 1 d D . . . .
O4 O 0.0971(5) 1.0630(3) 0.9163(6) 0.059(3) Uani 1 1 d D . . . .
O5 O 0.1165(3) 1.0560(4) 0.7277(7) 0.059(3) Uani 1 1 d D . . . .
O6 O 0.2443(4) 1.0534(4) 0.7561(8) 0.067(3) Uani 1 1 d D . . . .
O7 O 0.3749(4) 0.8424(4) 0.7673(8) 0.073(3) Uani 1 1 d D . . . .
O8 O 0.3099(4) 0.8460(5) 0.9301(6) 0.063(3) Uani 1 1 d D . . . .
O9 O 0.1965(2) 0.8457(3) 1.0277(7) 0.051(2) Uani 1 1 d D . . . .
O10 O 0.0875(5) 0.8367(5) 0.9231(7) 0.089(5) Uani 1 1 d D . . . .
O11 O 0.1174(4) 0.8414(4) 0.7343(8) 0.069(3) Uani 1 1 d D . . . .
O12 O 0.2447(4) 0.8440(5) 0.7640(8) 0.075(3) Uani 1 1 d D . . . .
O13 O 0.3094(6) 0.9500(2) 0.8181(13) 0.105(5) Uani 1 1 d D . . . .
O14 O 0.0799(4) 0.9486(2) 0.8275(8) 0.060(3) Uani 1 1 d D . . . .
O15 O 0.4174(4) 1.1272(3) 0.6096(7) 0.058(3) Uani 1 1 d D . . . .
O16 O 0.4072(5) 0.9977(3) 0.5904(7) 0.071(3) Uani 1 1 d D . . . .
O17 O 0.3998(4) 0.8669(3) 0.5789(6) 0.050(2) Uani 1 1 d D . . . .
O18 O 0.1917(4) 1.1307(3) 0.6217(7) 0.056(3) Uani 1 1 d D . . . .
O19 O 0.1928(4) 1.0007(3) 0.5920(7) 0.064(3) Uani 1 1 d D . . . .
O20 O 0.1979(4) 0.8698(3) 0.5860(7) 0.064(3) Uani 1 1 d D . . . .
O21 O -0.0030(3) 1.0489(3) 0.7928(7) 0.044(2) Uani 1 1 d D . . . .
O22 O -0.0038(3) 0.8499(4) 0.7915(7) 0.056(2) Uani 1 1 d D . . . .
O23 O 0.4242(6) 0.750000 0.6471(11) 0.068(4) Uani 1 2 d DS T P . .
O24 O 0.1923(5) 0.750000 0.6552(10) 0.053(4) Uani 1 2 d DS T P . .
O25 O 0.2843(5) 0.750000 1.0588(9) 0.043(3) Uani 1 2 d DS T P . .
O26 O 0.1102(5) 0.750000 1.0646(10) 0.051(3) Uani 1 2 d DS T P . .
loop_
_atom_site_aniso_label
_atom_site_aniso_U_11
_atom_site_aniso_U_22
_atom_site_aniso_U_33
_atom_site_aniso_U_23
_atom_site_aniso_U_13
_atom_site_aniso_U_12
Si1 0.026(2) 0.0287(16) 0.032(4) 0.0004(16) -0.0026(16) 0.0004(12)
Si2 0.033(2) 0.0297(16) 0.029(4) -0.0014(17) 0.0031(18) 0.0007(14)
Si3 0.026(2) 0.0338(18) 0.030(4) -0.0014(17) 0.0009(17) 0.0028(13)
Si4 0.030(2) 0.0307(18) 0.020(4) -0.0028(16) 0.0018(16) -0.0012(13)
Si5 0.021(2) 0.0290(16) 0.027(4) 0.0030(16) 0.0048(16) -0.0008(12)
Si6 0.031(2) 0.0319(18) 0.034(4) 0.0063(17) 0.0087(18) 0.0033(13)
Si7 0.027(2) 0.0269(16) 0.027(4) -0.0003(16) 0.0004(16) -0.0003(12)
Si8 0.037(2) 0.0299(17) 0.026(4) 0.0009(16) 0.0118(19) 0.0018(14)
Si9 0.039(2) 0.0223(16) 0.024(4) 0.0045(15) -0.0018(17) -0.0050(13)
Si10 0.037(2) 0.0262(17) 0.043(4) -0.0017(18) 0.0027(19) 0.0002(14)
Si11 0.023(2) 0.0285(17) 0.041(4) 0.0001(17) 0.0043(17) 0.0008(13)
Si12 0.031(2) 0.0327(17) 0.026(4) -0.0034(16) 0.0048(17) -0.0031(13)
O1 0.050(6) 0.112(7) 0.066(12) -0.015(5) 0.032(5) -0.016(4)
O2 0.049(5) 0.073(5) 0.066(11) -0.008(4) 0.019(4) -0.013(3)
O3 0.013(6) 0.156(10) 0.144(19) -0.050(8) 0.000(4) 0.009(4)
O4 0.088(6) 0.047(4) 0.040(9) -0.012(3) -0.023(5) 0.006(3)
O5 0.029(4) 0.080(5) 0.066(10) 0.028(4) 0.015(3) 0.003(3)
O6 0.041(5) 0.105(6) 0.054(11) 0.001(5) -0.013(4) 0.012(4)
O7 0.051(6) 0.104(6) 0.064(12) -0.009(5) 0.020(5) 0.019(4)
O8 0.054(5) 0.087(5) 0.047(10) 0.032(5) 0.007(4) 0.006(3)
O9 0.024(4) 0.054(3) 0.076(9) -0.005(4) -0.001(3) -0.001(2)
O10 0.072(7) 0.096(6) 0.099(14) 0.054(7) -0.047(6) -0.020(4)
O11 0.049(6) 0.078(5) 0.081(11) -0.030(5) 0.012(4) 0.012(4)
O12 0.037(6) 0.131(7) 0.058(12) -0.014(6) -0.013(4) -0.016(4)
O13 0.167(13) 0.026(3) 0.123(15) -0.001(4) -0.012(9) 0.006(4)
O14 0.063(5) 0.033(3) 0.085(10) 0.004(4) 0.007(4) 0.009(3)
O15 0.062(5) 0.037(3) 0.076(9) 0.025(4) -0.033(4) -0.001(3)
O16 0.115(8) 0.035(3) 0.063(10) -0.010(4) -0.036(6) -0.008(3)
O17 0.080(5) 0.031(3) 0.039(7) 0.005(3) -0.015(4) 0.012(3)
O18 0.075(6) 0.028(3) 0.065(8) 0.008(3) 0.022(4) -0.009(3)
O19 0.086(6) 0.036(3) 0.070(10) -0.017(4) -0.002(5) 0.008(3)
O20 0.091(7) 0.033(3) 0.067(9) 0.015(3) 0.013(5) -0.013(3)
O21 0.026(4) 0.061(4) 0.045(7) 0.002(3) 0.007(3) 0.007(2)
O22 0.042(5) 0.086(5) 0.040(9) -0.007(4) 0.002(3) -0.019(3)
O23 0.093(9) 0.021(4) 0.092(14) 0.000 -0.026(8) 0.000
O24 0.071(7) 0.029(4) 0.059(11) 0.000 0.038(6) 0.000
O25 0.058(6) 0.021(3) 0.049(10) 0.000 -0.017(5) 0.000
O26 0.061(7) 0.024(4) 0.068(12) 0.000 0.006(5) 0.000
loop_
_atom_type_symbol
_atom_type_description
_atom_type_scat_dispersion_real
_atom_type_scat_dispersion_imag
_atom_type_scat_source
O O 0.0000 0.0000 'International Tables Vol C Tables 4.2.6.8 and 6.1.1.4'
Si Si 0.0000 0.0000 'International Tables Vol C Tables 4.2.6.8 and 6.1.1.4'
loop_
_geom_angle_atom_site_label_1
_geom_angle_atom_site_label_2
_geom_angle_atom_site_label_3
_geom_angle
_geom_angle_site_symmetry_1
_geom_angle_site_symmetry_3
O16 Si1 O1 111.2(6) . .
O16 Si1 O15 109.7(5) . .
O1 Si1 O15 111.1(5) . .
O16 Si1 O21 109.7(5) . 6_657
O1 Si1 O21 106.4(6) . 6_657
O15 Si1 O21 108.6(4) . 6_657
O13 Si2 O6 109.3(6) . .
O13 Si2 O1 109.9(6) . .
O6 Si2 O1 111.3(7) . .
O13 Si2 O2 109.1(7) . .
O6 Si2 O2 108.6(5) . .
O1 Si2 O2 108.6(5) . .
O3 Si3 O19 109.5(7) . 2_575
O3 Si3 O20 110.5(6) . 2_575
O19 Si3 O20 110.3(5) 2_575 2_575
O3 Si3 O2 108.0(8) . .
O19 Si3 O2 107.9(5) 2_575 .
O20 Si3 O2 110.4(5) 2_575 .
O3 Si4 O16 108.9(7) . 2_575
O3 Si4 O17 110.4(5) . 2_575
O16 Si4 O17 109.9(5) 2_575 2_575
O3 Si4 O4 107.5(8) . .
O16 Si4 O4 111.3(5) 2_575 .
O17 Si4 O4 108.8(4) 2_575 .
O5 Si5 O4 108.2(6) . .
O5 Si5 O14 111.4(5) . .
O4 Si5 O14 109.0(5) . .
O5 Si5 O21 106.4(5) . .
O4 Si5 O21 110.4(5) . .
O14 Si5 O21 111.3(4) . .
O18 Si6 O6 109.6(5) . .
O18 Si6 O5 106.4(4) . .
O6 Si6 O5 108.3(6) . .
O18 Si6 O19 110.0(5) . .
O6 Si6 O19 112.4(5) . .
O5 Si6 O19 110.0(5) . .
O22 Si7 O7 107.7(6) 6_657 .
O22 Si7 O17 111.4(5) 6_657 .
O7 Si7 O17 111.6(5) . .
O22 Si7 O23 108.8(5) 6_657 .
O7 Si7 O23 111.7(7) . .
O17 Si7 O23 105.5(6) . .
O13 Si8 O12 109.8(7) . .
O13 Si8 O7 111.2(7) . .
O12 Si8 O7 110.8(7) . .
O13 Si8 O8 108.3(7) . .
O12 Si8 O8 109.5(6) . .
O7 Si8 O8 107.0(5) . .
O25 Si9 O9 110.3(5) . .
O25 Si9 O8 110.4(6) . .
O9 Si9 O8 110.2(5) . .
O25 Si9 O18 106.4(5) . 2_575
O9 Si9 O18 109.6(5) . 2_575
O8 Si9 O18 109.9(5) . 2_575
O10 Si10 O9 110.1(6) . .
O10 Si10 O15 110.7(6) . 2_575
O9 Si10 O15 108.6(5) . 2_575
O10 Si10 O26 110.1(6) . .
O9 Si10 O26 110.1(5) . .
O15 Si10 O26 107.2(5) 2_575 .
O14 Si11 O10 109.6(6) . .
O14 Si11 O22 112.4(4) . .
O10 Si11 O22 107.7(5) . .
O14 Si11 O11 109.6(5) . .
O10 Si11 O11 110.8(6) . .
O22 Si11 O11 106.7(5) . .
O24 Si12 O12 110.1(6) . .
O24 Si12 O20 107.2(6) . .
O12 Si12 O20 111.3(6) . .
O24 Si12 O11 108.8(5) . .
O12 Si12 O11 108.4(6) . .
O20 Si12 O11 111.0(6) . .
Si1 O1 Si2 151.5(8) . .
Si3 O2 Si2 152.3(5) . .
Si3 O3 Si4 171.8(8) . .
Si5 O4 Si4 154.8(5) . .
Si5 O5 Si6 148.4(6) . .
Si2 O6 Si6 160.5(7) . .
Si8 O7 Si7 154.5(8) . .
Si8 O8 Si9 153.0(6) . .
Si10 O9 Si9 153.1(5) . .
Si11 O10 Si10 159.9(6) . .
Si11 O11 Si12 153.0(7) . .
Si8 O12 Si12 164.6(9) . .
Si8 O13 Si2 177.2(12) . .
Si11 O14 Si5 164.8(7) . .
Si1 O15 Si10 149.1(5) . 2_574
Si1 O16 Si4 167.7(8) . 2_574
Si4 O17 Si7 147.9(5) 2_574 .
Si6 O18 Si9 144.2(5) . 2_574
Si3 O19 Si6 159.9(7) 2_574 .
Si3 O20 Si12 149.3(7) 2_574 .
Si1 O21 Si5 146.4(6) 6_557 .
Si7 O22 Si11 150.3(7) 6_557 .
Si7 O23 Si7 151.4(11) . 7_575
Si12 O24 Si12 150.0(9) 7_575 .
Si9 O25 Si9 151.0(8) 7_575 .
Si10 O26 Si10 143.2(9) . 7_575
loop_
_geom_bond_atom_site_label_1
_geom_bond_atom_site_label_2
_geom_bond_distance
_geom_bond_site_symmetry_2
Si1 O16 1.601(6) .
Si1 O1 1.601(7) .
Si1 O15 1.610(6) .
Si1 O21 1.613(6) 6_657
Si2 O13 1.588(6) .
Si2 O6 1.603(6) .
Si2 O1 1.604(6) .
Si2 O2 1.620(7) .
Si3 O3 1.586(6) .
Si3 O19 1.601(6) 2_575
Si3 O20 1.610(6) 2_575
Si3 O2 1.619(7) .
Si4 O3 1.606(6) .
Si4 O16 1.611(6) 2_575
Si4 O17 1.612(5) 2_575
Si4 O4 1.623(7) .
Si5 O5 1.607(7) .
Si5 O4 1.610(7) .
Si5 O14 1.611(5) .
Si5 O21 1.620(6) .
Si6 O18 1.606(6) .
Si6 O6 1.612(7) .
Si6 O5 1.620(6) .
Si6 O19 1.621(7) .
Si7 O22 1.601(6) 6_657
Si7 O7 1.608(7) .
Si7 O17 1.614(7) .
Si7 O23 1.619(5) .
Si8 O13 1.585(6) .
Si8 O12 1.602(6) .
Si8 O7 1.603(6) .
Si8 O8 1.610(7) .
Si9 O25 1.617(4) .
Si9 O9 1.617(6) .
Si9 O8 1.621(7) .
Si9 O18 1.622(7) 2_575
Si10 O10 1.602(7) .
Si10 O9 1.614(6) .
Si10 O15 1.616(6) 2_575
Si10 O26 1.619(5) .
Si11 O14 1.588(5) .
Si11 O10 1.602(7) .
Si11 O22 1.608(6) .
Si11 O11 1.614(7) .
Si12 O24 1.602(4) .
Si12 O12 1.605(7) .
Si12 O20 1.614(7) .
Si12 O11 1.615(6) .
