#------------------------------------------------------------------------------
#$Date: 2018-01-11 12:53:52 +0200 (Thu, 11 Jan 2018) $
#$Revision: 205069 $
#$URL: file:///home/coder/svn-repositories/cod/cif/1/54/86/1548629.cif $
#------------------------------------------------------------------------------
#
# This file is available in the Crystallography Open Database (COD),
# http://www.crystallography.net/
#
# All data on this site have been placed in the public domain by the
# contributors.
#
data_1548629
loop_
_publ_author_name
'Gruene, T.'
'Teng, Li.'
'Van Genderen, E.'
'Pinar, A. B.'
'Van Bokhoven, J. A.'
_publ_section_title
;
 Characterization at the level of individual crystals: single crystal MFI
 type zeolite grains
;
_journal_name_full               'Chemistry - A European Journal'
_journal_paper_doi               10.1002/chem.201704213
_journal_year                    2017
_chemical_formula_sum            'O24 Si12'
_chemical_formula_weight         721.20
_space_group_crystal_system      orthorhombic
_space_group_IT_number           62
_space_group_name_Hall           '-P 2ac 2n'
_space_group_name_H-M_alt        'P n m a'
_symmetry_space_group_name_Hall  '-P 2ac 2n'
_symmetry_space_group_name_H-M   'P n m a'
_atom_sites_solution_hydrogens   .
_audit_creation_method           SHELXL-2016/6
_cell_angle_alpha                90
_cell_angle_beta                 90
_cell_angle_gamma                90
_cell_formula_units_Z            8
_cell_length_a                   20.135(4)
_cell_length_b                   20.016(4)
_cell_length_c                   13.532(3)
_cell_measurement_temperature    293(2)
_cell_volume                     5454(2)
_computing_structure_refinement  'SHELXL-2016/6 (Sheldrick, 2016)'
_computing_structure_solution    'SHELXT 2014/5 (Sheldrick, 2014)'
_diffrn_ambient_temperature      293(2)
_diffrn_measured_fraction_theta_full 0.673
_diffrn_measured_fraction_theta_max 0.673
_diffrn_radiation_wavelength     0.02508
_diffrn_reflns_av_R_equivalents  0.1564
_diffrn_reflns_av_unetI/netI     0.1725
_diffrn_reflns_Laue_measured_fraction_full 0.673
_diffrn_reflns_Laue_measured_fraction_max 0.673
_diffrn_reflns_limit_h_max       20
_diffrn_reflns_limit_h_min       -20
_diffrn_reflns_limit_k_max       19
_diffrn_reflns_limit_k_min       -19
_diffrn_reflns_limit_l_max       10
_diffrn_reflns_limit_l_min       -10
_diffrn_reflns_number            6553
_diffrn_reflns_point_group_measured_fraction_full 0.673
_diffrn_reflns_point_group_measured_fraction_max 0.673
_diffrn_reflns_theta_full        0.730
_diffrn_reflns_theta_max         0.730
_diffrn_reflns_theta_min         0.071
_exptl_absorpt_coefficient_mu    0.281
_exptl_crystal_density_diffrn    1.757
_exptl_crystal_F_000             940
_refine_diff_density_max         0.315
_refine_diff_density_min         -0.342
_refine_diff_density_rms         0.109
_refine_ls_extinction_coef       .
_refine_ls_extinction_method     none
_refine_ls_goodness_of_fit_ref   1.325
_refine_ls_hydrogen_treatment    undef
_refine_ls_matrix_type           full
_refine_ls_number_parameters     331
_refine_ls_number_reflns         2092
_refine_ls_number_restraints     516
_refine_ls_restrained_S_all      1.191
_refine_ls_R_factor_all          0.2780
_refine_ls_R_factor_gt           0.2038
_refine_ls_shift/su_max          1.654
_refine_ls_shift/su_mean         0.106
_refine_ls_structure_factor_coef Fsqd
_refine_ls_weighting_details
'w=1/[\s^2^(Fo^2^)+(0.2000P)^2^] where P=(Fo^2^+2Fc^2^)/3'
_refine_ls_weighting_scheme      calc
_refine_ls_wR_factor_gt          0.4286
_refine_ls_wR_factor_ref         0.4731
_reflns_Friedel_coverage         0.000
_reflns_Friedel_fraction_full    .
_reflns_Friedel_fraction_max     .
_reflns_number_gt                917
_reflns_number_total             2092
_reflns_threshold_expression     'I > 2\s(I)'
_cod_data_source_file            zsm5_ChemEurJ.cif
_cod_data_source_block           z2f
_cod_original_cell_volume        5453.7(19)
_cod_database_code               1548629
_shelx_shelxl_version_number     2016/6
_shelx_space_group_comment
;
The symmetry employed for this shelxl refinement is uniquely defined
by the following loop, which should always be used as a source of
symmetry information in preference to the above space-group names.
They are only intended as comments.
;
_shelx_res_file
;
TITL 03_a.res in Pnma
    z2f.res
    created by SHELXL-2016/6 at 11:17:43 on 31-Oct-2017
REM Old TITL 03 in P222

REM SHELXT solution in Pnma
REM R1 0.374,  Rweak 0.031,  Alpha 0.156,  Orientation a'=b, b'=a, c'=-c
REM Formula found by SHELXT:  O2 Si

CELL  0.02508  20.1350  20.0160  13.5320   90.000   90.000   90.000
ZERR    8.000   0.0040   0.0040   0.0027    0.000    0.000    0.000
LATT  1
SYMM 1/2-X, -Y, 1/2+Z
SYMM -X, 1/2+Y, -Z
SYMM 1/2+X, 1/2-Y, 1/2-Z
SFAC O  0.237  0.799  0.649  3.654  0.800 10.924  0.261 29.964  0.035 =
   0.0 0.0 18.200 0.660 16.00
SFAC Si  0.543  0.995  1.112  6.061  2.706 23.751  1.394 71.925  0.071 =
   0.0 0.0 123.000 1.110 28.100
UNIT 192 96
ACTA
L.S. 20
XNPD 0.01
ISOR $O
RIGU
LIST 4
FMAP 2
EQIV $1   x-1/2, y, -z+3/2
EQIV $2   -x+1/2, -y+2, z-1/2
EQIV $3   x, -y+3/2, z
EQIV $4   -x+1/2, -y+2, z+1/2
EQIV $5   x+1/2, y, -z+3/2

DFIX 1.609 0.01 Si1  O1 Si1 O21_$5 Si1 O16 Si1 O15
DFIX 1.609 0.01 Si2  O2 Si2 O13 Si2 O6 Si2 O1
DFIX 1.609 0.01 Si3  O20_$4 Si3 O19_$4 Si3 O2 Si3 O3
DFIX 1.609 0.01 Si4  O4 Si4 O16_$4 Si4 O3 Si4 O17_$4
DFIX 1.609 0.01 Si5  O4 Si5 O5 Si5 O14 Si5 O21
DFIX 1.609 0.01 Si6  O19 Si6 O6 Si6 O5 Si6 O18
DFIX 1.609 0.01 Si7  O23 Si7 O17 Si7 O7 Si7 O22_$5
DFIX 1.609 0.01 Si8  O13 Si8 O8 Si8 O12 Si8 O7
DFIX 1.609 0.01 Si9  O18_$4 Si9 O8 Si9 O25 Si9 O9
DFIX 1.609 0.01 Si10 O15_$4 Si10 O26 Si10 O10 Si10 O9
DFIX 1.609 0.01 Si11 O10 Si11 O14 Si11 O11 Si11 O22
DFIX 1.609 0.01 Si12 O20 Si12 O24 Si12 O11 Si12 O12

PLAN 20
WGHT    0.200000
FVAR       0.40731
SI1   2    0.422441    1.056969    0.661212    11.00000    0.01522    0.01833 =
         0.01170   -0.00374   -0.00287    0.00610
SI2   2    0.307177    1.029634    0.811252    11.00000    0.01582    0.01348 =
         0.01549    0.00079    0.00024   -0.00089
SI3   2    0.279043    1.062463    1.030701    11.00000    0.01354    0.01719 =
         0.01831   -0.00647   -0.00530    0.00470
SI4   2    0.121572    1.064429    1.025475    11.00000    0.01071    0.01591 =
         0.02534   -0.00952   -0.00329    0.00204
SI5   2    0.072059    1.027941    0.813716    11.00000    0.01046    0.01011 =
         0.02081   -0.00109    0.00223   -0.00023
SI6   2    0.185637    1.059010    0.669767    11.00000    0.01628    0.01807 =
         0.01400    0.00320    0.00501    0.00416
SI7   2    0.422725    0.827827    0.675056    11.00000    0.01217    0.01001 =
         0.03040    0.00055    0.00665    0.00018
SI8   2    0.307564    0.870892    0.814363    11.00000    0.01628    0.01341 =
         0.02708    0.00288    0.00952    0.00145
SI9   2    0.274035    0.827499    1.030888    11.00000    0.01042    0.01215 =
         0.02620    0.00590   -0.00261   -0.00095
SI10  2    0.119674    0.825928    1.028422    11.00000    0.01061    0.01005 =
         0.02331    0.00052    0.00260    0.00016
SI11  2    0.069928    0.870059    0.816324    11.00000    0.01723    0.01053 =
         0.02343    0.00151    0.00937    0.00156
SI12  2    0.186466    0.827513    0.679504    11.00000    0.01847    0.01446 =
         0.02804   -0.00456    0.01185   -0.00148
O1    1    0.371701    1.055452    0.752206    11.00000    0.01992    0.07267 =
         0.02689    0.00476    0.01232   -0.00408
O2    1    0.308486    1.060630    0.920473    11.00000    0.04228    0.04414 =
         0.02017   -0.00788    0.00581   -0.00364
O3    1    0.200309    1.058881    1.028631    11.00000    0.01439    0.08912 =
         0.07872   -0.03105    0.00109    0.01637
O4    1    0.097785    1.064800    0.911973    11.00000    0.06622    0.03311 =
         0.02912   -0.00620   -0.02150   -0.00067
O5    1    0.114255    1.053913    0.720842    11.00000    0.01470    0.04568 =
         0.03633    0.02241    0.01109    0.01003
O6    1    0.242842    1.055386    0.752445    11.00000    0.01997    0.09334 =
         0.03174    0.00295   -0.00725    0.01494
O7    1    0.374464    0.844393    0.765187    11.00000    0.02226    0.07312 =
         0.03532   -0.00529    0.00872    0.02214
O8    1    0.307551    0.843217    0.925737    11.00000    0.05697    0.07328 =
         0.03155    0.01971    0.01536    0.00119
O9    1    0.196560    0.847144    1.027280    11.00000    0.01304    0.02733 =
         0.08062    0.01293    0.00459    0.00011
O10   1    0.087775    0.836323    0.920915    11.00000    0.06851    0.06529 =
         0.03762    0.02621   -0.02172   -0.02151
O11   1    0.115467    0.843240    0.727125    11.00000    0.01997    0.03209 =
         0.04712   -0.02129    0.01198    0.00088
O12   1    0.241319    0.848011    0.759194    11.00000    0.02835    0.09338 =
         0.04096   -0.01712    0.00653   -0.01818
O13   1    0.307647    0.950123    0.821725    11.00000    0.12461    0.01476 =
         0.07478   -0.00549    0.02498    0.00384
O14   1    0.078654    0.948789    0.826497    11.00000    0.04596    0.01132 =
         0.05751   -0.00162    0.00698    0.00641
O15   1    0.419196    1.127774    0.605811    11.00000    0.03327    0.02347 =
         0.02669    0.00580   -0.01479   -0.00444
O16   1    0.409868    0.998558    0.582796    11.00000    0.08625    0.02966 =
         0.02861   -0.01237   -0.03090    0.00367
O17   1    0.401119    0.867768    0.577975    11.00000    0.05992    0.01564 =
         0.04331    0.01093    0.00227    0.01085
O18   1    0.191446    1.131142    0.618774    11.00000    0.03789    0.01788 =
         0.05497    0.01320    0.02415    0.00106
O19   1    0.191340    1.001837    0.586444    11.00000    0.06148    0.02258 =
         0.03058   -0.00867    0.01462    0.00236
O20   1    0.195152    0.868878    0.578907    11.00000    0.08002    0.01298 =
         0.03638    0.00508    0.01938   -0.00215
O21   1   -0.003886    1.049066    0.793756    11.00000    0.01530    0.06209 =
         0.01557    0.00808    0.00498    0.01309
O22   1   -0.005699    0.852040    0.789977    11.00000    0.02030    0.06844 =
         0.01807   -0.00405    0.00888   -0.00989
O23   1    0.422545    0.750000    0.647259    10.50000    0.09430    0.00538 =
         0.01562    0.00000   -0.00002    0.00000
O24   1    0.190235    0.750000    0.649222    10.50000    0.05441    0.00984 =
         0.03803    0.00000    0.03643    0.00000
O25   1    0.282228    0.750000    1.056004    10.50000    0.03059    0.00407 =
         0.05021    0.00000    0.00176    0.00000
O26   1    0.111979    0.750000    1.064061    10.50000    0.03067    0.01106 =
         0.02067    0.00000    0.00237    0.00000
HKLF 4




REM  03_a.res in Pnma
REM R1 =  0.2038 for     917 Fo > 4sig(Fo)  and  0.2780 for all    2092 data
REM    331 parameters refined using    516 restraints

END

WGHT      0.2000      0.0000

REM Highest difference peak  0.315,  deepest hole -0.342,  1-sigma level  0.109
Q1    1   0.3279  0.7957  0.4101  11.00000  0.05    0.31
Q2    1   0.4530  1.1919  0.8532  11.00000  0.05    0.31
Q3    1   0.4432  0.7942  0.7860  11.00000  0.05    0.31
Q4    1   0.4477  0.7922  0.8301  11.00000  0.05    0.31
Q5    1   0.2766  0.8029  0.5825  11.00000  0.05    0.30
Q6    1   0.4669  0.7947  0.9662  11.00000  0.05    0.30
Q7    1   0.5474  1.2072  0.6910  11.00000  0.05    0.30
Q8    1   0.2885  0.7985  0.4470  11.00000  0.05    0.30
Q9    1   0.0479  1.1967  0.5902  11.00000  0.05    0.30
Q10   1   0.0565  1.1981  0.7180  11.00000  0.05    0.30
Q11   1   0.0504  1.1964  0.9080  11.00000  0.05    0.29
Q12   1   0.5249  1.2063  0.7228  11.00000  0.05    0.29
Q13   1   0.3091  0.7500  0.5267  10.50000  0.05    0.28
Q14   1  -0.0221  0.7500  0.6004  10.50000  0.05    0.28
Q15   1   0.3593  0.7958  0.5422  11.00000  0.05    0.27
Q16   1   0.4372  0.8056  0.6328  11.00000  0.05    0.27
Q17   1   0.1186  0.8049  0.4256  11.00000  0.05    0.26
Q18   1   0.1806  0.8076  0.7150  11.00000  0.05    0.25
Q19   1  -0.0505  0.7500  1.1416  10.50000  0.05    0.25
Q20   1   0.0460  0.7949  0.5877  11.00000  0.05    0.25
;
_shelx_res_checksum              5062
_shelx_hkl_file
;
   0  -2   0  421.85   64.72
   0  -2   1   22.31    7.38
   0   2  -1   23.26    6.84
   0   3   0   -0.06    6.84
   0   3  -1  215.15   33.61
   0  -3   2   11.90    6.36
   0   3  -2    4.76    6.48
   0  -4   0  371.17   57.16
   0   4   0  469.91   72.15
   0  -4   1   -1.19    6.66
   0   4  -1   -7.85    6.84
   0  -4   2   39.79    9.40
   0   4  -2   23.02    8.09
   0   4  -3   14.10    6.90
   0  -5   0    9.16    7.26
   0   5   0   -3.09    7.38
   0  -5   1 5222.56  795.88
   0   5  -1 3162.68  482.28
   0  -5   2    3.39    7.55
   0   5  -2    7.73    8.09
   0  -5   3 2608.31  397.76
   0   5  -3 2668.38  406.92
   0  -6   0  845.25  129.31
   0   6   0  998.71  152.69
   0   6  -1   -4.22    7.97
   0  -6   2   91.19   15.88
   0   6  -2  112.06   18.86
   0  -6   3   -2.62    6.36
   0   6  -3    2.68    6.54
   0  -6   4   61.62   11.54
   0   6  -4   53.06   10.59
   0  -7   0   -0.95    6.96
   0   7   0   -5.89    6.84
   0  -7   1  248.22   38.84
   0   7  -1  288.25   44.85
   0  -7   2   -9.28    6.60
   0   7  -2    0.24    6.54
   0  -7   3   47.41   10.17
   0   7  -3   48.00   10.29
   0  -7   4    0.71    6.90
   0   7  -4   -1.13    6.66
   0  -7   5   -0.42    6.07
   0   7  -5   -5.29    6.25
   0  -8   0 2730.24  416.38
   0   8   0 2839.10  432.97
   0  -8   1    0.18    7.67
   0   8  -1   -2.08    7.44
   0  -8   2   51.15   10.94
   0   8  -2   34.92    8.86
   0  -8   3   10.59    7.44
   0   8  -3    3.57    6.72
   0  -8   4 1038.56  158.82
   0   8  -4  789.93  121.05
   0  -8   5    6.36    6.13
   0   8  -5    0.95    6.13
   0   8  -6  414.00   63.77
   0  -9   0   -6.96    7.79
   0   9   0   -6.78    6.90
   0  -9   1   21.83    8.92
   0   9  -1   24.09    8.51
   0  -9   2    1.31    7.14
   0   9  -2    3.39    6.72
   0  -9   3    4.70    6.48
   0   9  -3   22.66    7.67
   0  -9   4    4.94    6.66
   0   9  -4   12.97    7.02
   0  -9   5   14.10    6.42
   0   9  -5   24.98    7.26
   0  -9   6   -5.23    5.53
   0   9  -6    9.10    5.77
   0 -10   0 1932.58  294.97
   0  10   0 1879.65  286.82
   0 -10   1    9.40    7.26
   0  10  -1   -5.59    7.44
   0 -10   2  306.28   47.65
   0  10  -2  199.03   31.59
   0 -10   3    6.42    6.13
   0  10  -3   -6.01    6.36
   0 -10   4  234.24   36.76
   0  10  -4  245.25   38.43
   0 -10   5   12.31    6.31
   0  10  -5   10.11    6.19
   0 -10   6  163.52   26.11
   0  10  -6  133.90   21.71
   0 -10   7    3.69    5.47
   0  10  -7   -0.24    5.47
   0 -11   0   -4.16    6.60
   0  11   0    2.97    6.42
   0 -11   2   -3.21    5.95
   0  11  -2    0.30    6.07
   0 -11   3   55.62   10.83
   0  11  -3   71.02   12.79
   0 -11   4   10.71    5.95
   0  11  -4   -0.42    5.71
   0 -11   6   -4.88    5.89
   0  11  -6    6.60    5.77
   0 -11   7   23.73    7.02
   0  11  -7   14.39    6.19
   0 -11   8    3.15    5.53
   0  11  -8    1.78    5.59
   0 -12   0  168.34   26.83
   0  12   0  202.84   31.88
   0 -12   1   -9.16    6.60
   0  12  -1   -0.06    6.31
   0 -12   2  533.20   82.03
   0  12  -2  350.77   54.31
   0 -12   3   13.74    6.42
   0  12  -3   -0.48    5.77
   0 -12   4   69.12   12.49
   0  12  -4   52.58   10.35
   0 -12   5    6.96    5.95
   0  12  -5    0.30    5.89
   0 -12   6   32.77    8.15
   0  12  -6    8.57    6.01
   0 -12   7    2.20    6.25
   0  12  -7    3.69    6.13
   0 -12   8   26.95    7.44
   0  12  -8   19.45    6.96
   0  12  -9    6.72    5.95
   0 -13   0    1.37    6.07
   0  13   0   -3.21    5.65
   0 -13   1   46.40    9.93
   0  13  -1   45.39    9.64
   0 -13   2    2.74    6.54
   0  13  -2    0.95    6.13
   0 -13   3  118.73   19.69
   0  13  -3  111.17   18.62
   0 -13   4    5.00    5.65
   0  13  -4   -0.06    5.53
   0 -13   5  347.62   53.89
   0  13  -5  362.01   56.03
   0 -13   6    9.16    6.54
   0  13  -6   -2.02    6.13
   0 -13   7  458.13   70.67
   0  13  -7  349.70   54.25
   0 -13   8    7.20    6.36
   0  13  -8    5.59    6.54
   0 -13   9    0.30    5.53
   0  13  -9   -1.01    5.77
   0 -14   0   33.61    8.09
   0  14   0   26.11    7.02
   0 -14   1   -6.01    6.25
   0  14  -1    5.59    6.01
   0 -14   2   55.62   11.00
   0  14  -2   42.95    9.34
   0 -14   3   -1.78    5.59
   0  14  -3   -0.36    5.77
   0 -14   4   -5.23    5.89
   0  14  -4    2.26    6.01
   0 -14   5    1.37    6.13
   0  14  -5   -3.99    6.01
   0 -14   6  174.05   28.02
   0  14  -6  153.41   24.92
   0 -14   7    0.89    6.31
   0  14  -7    7.26    6.72
   0 -14   8   14.69    6.54
   0  14  -8   19.15    6.96
   0 -14   9   -6.19    5.41
   0  14  -9    2.26    5.41
   0 -15   0   16.54    6.78
   0  15   0   -4.82    5.77
   0 -15   1   -5.06    6.42
   0  15  -1    1.55    6.42
   0 -15   2   11.36    7.02
   0  15  -2    2.56    6.60
   0 -15   3   64.12   12.13
   0  15  -3  112.96   18.92
   0 -15   4   13.15    6.66
   0  15  -4   -3.57    6.07
   0 -15   5  139.31   22.84
   0  15  -5  132.76   21.89
   0 -15   6    8.39    6.90
   0  15  -6    0.89    6.60
   0 -15   7   62.46   11.96
   0  15  -7   57.76   11.66
   0 -15   8    6.78    5.89
   0  15  -8   -4.52    6.13
   0 -16   0 1092.69  167.21
   0  16   0  990.98  151.62
   0 -16   1   -4.28    6.90
   0  16  -1   -2.50    6.48
   0 -16   2   73.52   13.86
   0  16  -2   59.54   11.84
   0 -16   3    5.23    6.48
   0  16  -3   -0.65    6.31
   0 -16   4   98.50   17.07
   0  16  -4   87.74   15.64
   0 -16   5   -5.00    6.60
   0  16  -5    0.77    6.60
   0 -16   6   11.90    6.36
   0  16  -6   -4.34    6.31
   0 -16   7    3.69    6.01
   0  16  -7    3.21    6.31
   0 -16   8    1.25    5.53
   0  16  -8    4.76    6.13
   0 -17   0   -9.04    6.78
   0  17   0    5.23    6.48
   0 -17   1    2.97    7.38
   0  17  -1    2.20    6.78
   0 -17   2    3.99    7.55
   0  17  -2   -7.55    7.20
   0 -17   3   -0.54    6.66
   0 -17   4    0.36    6.31
   0  17  -4    5.06    6.54
   0 -17   5   -3.75    5.83
   0  17  -5   -2.44    6.25
   0 -17   6    4.70    5.47
   0  17  -6   -3.57    5.89
   0 -17   7   18.56    6.72
   0  17  -7   28.49    8.21
   0 -18   0   27.30    7.91
   0  18   0   12.73    7.02
   0 -18   1   -3.75    6.66
   0  18  -1   -1.84    6.78
   0 -18   2    5.23    7.14
   0  18  -2   -2.26    7.14
   0 -18   3    0.42    5.71
   0  18  -3  -12.49    7.08
   0 -18   4   18.68    6.78
   0  18  -4   22.54    7.55
   0 -18   5    2.86    5.23
   0  18  -5   -0.42    5.77
   0 -19   0   -8.57    6.07
   0  19   0   -6.13    5.83
   0 -19   1    6.07    6.54
   0  19  -1    6.31    6.42
   0 -19   2  -17.25    6.48
   0  19  -2   -0.06    6.54
   0  19  -3    2.08    6.19
   0 -19   4    5.29    5.71
   0  19  -4   -2.62    5.59
  -1  -1   0  271.24   42.17
   1   1  -1  141.15   22.19
  -1  -1   1  121.70   19.81
   1   2   0   54.25   10.94
  -1  -2   0   37.95    9.58
   1   2  -1   96.90   16.48
  -1  -2   1   76.97   13.98
   1   3   0    1.43    7.26
  -1  -3   0    0.36    8.21
   1  -3   1  322.63   49.67
   1   3  -1  317.52   49.07
  -1  -3   1  292.18   45.44
  -1   3  -1  343.51   52.82
   1   3  -2   29.74    8.62
   1   4   0   -3.39    7.44
   1  -4   1   71.14   12.61
   1   4  -1   69.42   13.21
  -1   4  -1   71.44   12.67
   1  -4   2   46.63    9.58
   1   4  -2   77.80   14.34
  -1   4  -2   37.53    8.92
   1   4  -3    2.86    7.44
  -1  -4   3    1.31    6.66
   1   5   0    7.49    7.73
  -1  -5   0    3.87    7.61
   1  -5   1 1296.72  197.96
   1   5  -1  652.52  100.05
  -1  -5   1  830.38  127.11
  -1   5  -1  859.52  131.46
   1  -5   2  449.98   69.24
   1   5  -2  457.66   70.55
  -1  -5   2  426.43   65.67
  -1   5  -2  436.60   67.22
   1  -5   3 1377.61  210.27
   1   5  -3 1356.79  207.18
  -1  -5   3 1192.03  182.02
  -1   5  -3 1414.49  215.92
   1   5  -4  212.89   33.37
  -1  -5   4  187.85   29.68
   1   6   0   -1.43    7.61
  -1  -6   0    4.82    7.20
   1  -6   0   -2.74    6.72
   1  -6   2   23.20    7.55
   1   6  -2   21.29    7.85
  -1  -6   2   26.77    8.09
  -1   6  -2   32.24    8.45
   1  -6   3    9.28    6.54
   1   6  -3   -0.12    6.72
  -1  -6   3  -14.10    7.32
  -1   6  -3   -3.03    6.48
   1  -6   4   51.15   10.23
   1   6  -4   56.69   11.18
  -1  -6   4   51.81   10.59
  -1   6  -4   43.30    9.28
   1   7   0    4.10    7.14
  -1  -7   0   -1.01    7.14
   1  -7   0    5.23    6.42
  -1   7   0    5.00    7.26
   1  -7   1   16.66    7.55
   1   7  -1   21.00    8.57
  -1  -7   1    3.87    7.61
  -1   7  -1    1.55    7.79
   1  -7   2    4.16    6.60
   1   7  -2   11.96    7.14
  -1  -7   2    8.15    7.02
  -1   7  -2    9.93    6.72
   1  -7   3  462.06   71.08
   1   7  -3  490.37   75.48
  -1  -7   3  477.64   73.52
  -1   7  -3  440.05   67.75
   1  -7   4   39.73    9.22
   1   7  -4   30.69    8.33
  -1  -7   4   36.64    8.68
  -1   7  -4   31.59    8.33
   1   7  -5   34.68    8.57
  -1  -7   5   22.90    7.44
   1   8   0    1.55    6.66
  -1  -8   0  -20.11    7.73
   1  -8   0   -2.56    6.66
  -1   8   0   -8.74    6.36
   1  -8   1   43.07   10.05
   1   8  -1   37.30    9.64
  -1  -8   1   10.65    7.97
  -1   8  -1   42.53   10.05
   1  -8   2   54.25   11.00
   1   8  -2   46.04   10.23
  -1  -8   2   37.24    9.34
  -1   8  -2   49.67   10.29
   1  -8   3   26.77    8.74
   1   8  -3   26.77    8.09
  -1  -8   3   13.32    6.72
  -1   8  -3   12.97    6.72
   1  -8   4  673.94  103.32
   1   8  -4  520.41   80.06
  -1  -8   4  579.72   89.05
  -1   8  -4  606.72   93.09
   1  -8   5   30.81    7.67
   1   8  -5   40.92    9.22
  -1  -8   5   39.56    8.92
  -1   8  -5   29.80    7.79
   1   8  -6  587.92   90.23
  -1  -8   6  672.15  102.96
   1   9   0    2.86    6.60
  -1  -9   0    8.03    7.73
   1  -9   0    4.58    7.14
  -1   9   0   -3.45    6.54
   1  -9   1   55.20   11.78
   1   9  -1   58.77   11.90
  -1  -9   1   54.78   12.02
  -1   9  -1   45.39   10.29
   1  -9   2   -2.97    6.31
   1   9  -2    0.36    6.78
  -1  -9   2   -9.04    6.48
  -1   9  -2    6.66    6.66
   1  -9   3   16.48    6.66
   1   9  -3    9.81    6.96
  -1  -9   3   15.11    6.72
  -1   9  -3    1.19    6.13
   1  -9   4   -1.43    6.25
   1   9  -4   14.28    7.14
  -1  -9   4   -2.62    6.42
  -1   9  -4  -10.29    6.60
   1  -9   5   -9.34    5.95
   1   9  -5   -8.39    6.60
  -1  -9   5    6.66    6.19
  -1   9  -5   -8.92    5.95
   1  -9   6    3.33    5.65
   1   9  -6    6.96    6.07
  -1  -9   6   10.11    6.07
  -1   9  -6   -2.20    5.53
   1   9  -7   -6.42    5.71
   1  10   0   12.37    6.96
  -1 -10   0   12.97    7.02
   1 -10   0    9.34    6.60
  -1  10   0   -7.32    6.13
   1 -10   1  103.08   17.55
   1  10  -1  121.17   20.28
  -1 -10   1  119.08   20.05
  -1  10  -1  130.15   21.41
   1 -10   2 1018.93  155.84
   1  10  -2  817.29  125.27
  -1 -10   2  812.53  124.44
  -1  10  -2  811.34  124.20
   1 -10   3   23.73    7.14
   1  10  -3   24.63    7.79
  -1 -10   3   25.22    7.49
  -1  10  -3   34.20    8.45
   1 -10   4   -5.47    6.13
   1  10  -4    0.36    6.31
  -1 -10   4    9.40    6.42
  -1  10  -4    8.03    6.19
   1 -10   5   23.44    6.90
   1  10  -5   31.35    8.21
  -1 -10   5   42.83    9.28
   1 -10   6   36.88    8.33
   1  10  -6   35.09    8.15
  -1 -10   6   32.00    7.97
  -1  10  -6   38.43    8.45
   1  10  -7   -0.30    5.53
  -1 -10   7   13.98    5.89
  -1  10  -7   -4.22    5.29
   1  11   0   -6.60    6.31
  -1 -11   0   -3.09    6.36
   1 -11   0    1.55    5.89
  -1  11   0    3.93    6.07
   1 -11   1   -2.26    6.48
   1  11  -1   -8.86    6.96
  -1 -11   1   -5.41    6.96
  -1  11  -1   -3.81    6.60
   1 -11   2   -5.95    5.77
   1  11  -2    0.12    6.25
  -1 -11   2   11.78    6.25
  -1  11  -2    5.23    6.13
   1 -11   3    0.12    5.53
   1  11  -3   10.17    6.31
  -1 -11   3    2.26    5.71
  -1  11  -3    7.97    5.89
   1 -11   4    9.16    5.83
   1  11  -4   12.61    6.31
  -1 -11   4   20.52    6.66
  -1  11  -4   15.52    6.07
   1 -11   5    0.00    5.95
   1  11  -5   14.34    6.48
  -1 -11   5   18.20    6.90
  -1  11  -5    7.49    6.07
   1 -11   6   -4.64    5.59
   1  11  -6   18.20    6.72
  -1 -11   6    5.41    5.71
  -1  11  -6    4.16    5.71
   1 -11   7   26.35    7.26
   1  11  -7   19.99    6.78
  -1 -11   7   24.21    7.02
  -1  11  -7   31.29    7.73
   1  11  -8   -3.09    5.95
  -1 -11   8    7.67    5.83
  -1  11  -8    5.95    5.59
   1  12   0   -3.63    6.01
  -1 -12   0   -6.90    6.13
   1 -12   0   -0.95    5.89
  -1  12   0    3.87    5.59
   1 -12   1   12.61    6.60
   1  12  -1    7.61    6.72
  -1 -12   1   15.82    7.20
  -1  12  -1   -6.66    5.89
   1  12  -2  156.32   25.22
  -1 -12   2  207.18   32.72
   1 -12   3   41.64    8.92
   1  12  -3   44.08    9.16
  -1 -12   3   41.10    8.98
  -1  12  -3   49.43    9.81
   1  12  -4  199.09   31.47
  -1 -12   4  127.59   20.88
  -1  12  -4  193.26   30.51
   1 -12   5    6.48    6.07
   1  12  -5   13.15    7.14
  -1 -12   5    0.18    5.83
  -1  12  -5    5.71    6.13
   1 -12   6  210.81   33.25
   1  12  -6  181.06   28.79
  -1 -12   6  162.45   26.05
  -1  12  -6  354.16   54.90
   1 -12   7    1.25    6.07
   1  12  -7   16.66    6.66
  -1 -12   7   -0.12    6.13
  -1  12  -7    6.19    6.07
   1 -12   8   91.48   15.70
   1  12  -8   82.74   14.57
  -1 -12   8   92.26   15.88
  -1  12  -8   96.54   16.48
   1  12  -9    0.95    5.95
  -1 -12   9    2.97    5.83
   1  13   0    1.61    5.65
  -1 -13   0    8.33    6.13
   1 -13   0   -3.81    5.83
  -1  13   0   11.42    5.65
   1 -13   1  108.26   18.14
   1  13  -1   98.09   16.66
  -1 -13   1   61.80   11.84
  -1  13  -1  103.44   17.31
   1 -13   2    1.96    6.07
   1  13  -2    6.54    6.31
  -1 -13   2    3.81    6.60
  -1  13  -2    1.43    6.13
   1 -13   4    2.32    5.47
   1  13  -4    4.46    6.13
  -1 -13   4    2.62    5.65
  -1  13  -4    5.06    5.89
   1 -13   5  128.36   21.12
   1  13  -5  140.62   22.84
  -1 -13   5  192.66   30.57
  -1  13  -5  153.52   24.74
   1 -13   6   94.34   16.30
   1  13  -6   58.53   11.42
  -1 -13   6   49.31   10.35
  -1  13  -6   66.14   12.43
   1 -13   7   44.79    9.87
   1  13  -7   38.19    8.98
  -1 -13   7   48.00   10.17
  -1  13  -7   30.99    8.39
   1 -13   8   -4.16    6.07
   1  13  -8    9.10    6.48
  -1 -13   8    6.72    6.25
  -1  13  -8    4.40    6.60
   1 -13   9   20.82    6.72
   1  13  -9   14.16    6.54
  -1 -13   9   12.49    6.01
  -1  13  -9   29.21    7.67
   1  13 -10   -1.55    5.35
   1  14   0    1.67    5.77
  -1 -14   0   -8.15    6.01
   1 -14   0   -7.02    5.77
  -1  14   0    7.26    5.83
   1 -14   1   -1.43    6.25
   1  14  -1    5.95    6.54
  -1 -14   1    8.74    6.72
  -1  14  -1    6.31    6.13
   1 -14   2    7.49    6.42
   1  14  -2   -9.10    6.54
  -1 -14   2    8.39    6.72
  -1  14  -2    1.67    6.36
   1 -14   3    3.15    5.65
   1  14  -3    5.12    5.77
  -1 -14   3   15.82    6.48
  -1  14  -3   -6.60    6.01
   1 -14   4    4.34    5.77
   1  14  -4   -0.65    5.71
  -1 -14   4   -1.43    5.83
  -1  14  -4    8.21    6.31
   1 -14   5    5.77    6.01
   1  14  -5    2.26    6.19
  -1 -14   5   13.09    6.48
  -1  14  -5    3.87    6.42
   1 -14   6    7.20    6.72
   1  14  -6    4.16    6.60
  -1 -14   6    3.51    6.84
  -1  14  -6    6.31    6.90
   1 -14   7    1.84    6.84
   1  14  -7   -3.39    6.42
  -1 -14   7   -3.27    6.42
  -1  14  -7   -0.48    6.66
   1 -14   8   10.71    6.36
   1  14  -8    4.70    6.36
  -1 -14   8    4.52    6.13
  -1  14  -8    9.99    6.72
   1 -14   9   -6.42    5.29
   1  14  -9    4.28    5.95
  -1 -14   9    4.16    5.41
  -1  14  -9    1.49    5.65
   1  15   0   -2.38    5.65
  -1 -15   0  -18.92    6.66
   1 -15   0   -6.36    5.95
  -1  15   0  -11.60    6.13
   1 -15   1   14.99    6.96
   1  15  -1   -0.30    6.13
  -1 -15   1    8.45    6.84
  -1  15  -1    1.61    6.42
   1 -15   2   -3.63    6.42
   1  15  -2    2.44    6.54
  -1 -15   2   -4.04    6.60
  -1  15  -2   -5.95    6.60
   1 -15   3   32.36    8.15
   1  15  -3   55.62   11.06
  -1 -15   3   28.43    7.73
  -1  15  -3   35.21    8.68
   1 -15   4   19.87    7.20
   1  15  -4    9.64    6.48
  -1 -15   4    1.31    6.31
  -1  15  -4    3.45    6.72
   1 -15   5   41.28    9.52
   1  15  -5   61.92   11.96
  -1 -15   5   38.54    9.10
  -1  15  -5   53.71   10.94
   1 -15   6    1.90    6.84
   1  15  -6    3.39    6.42
  -1 -15   6    0.12    6.78
  -1  15  -6    3.99    7.44
   1 -15   7    0.42    6.48
   1  15  -7  -11.66    6.60
  -1 -15   7    6.19    6.48
  -1  15  -7   -8.51    6.42
   1 -15   8    5.53    5.41
   1  15  -8   -0.54    6.01
  -1 -15   8    9.10    6.13
  -1  15  -8   -0.30    5.95
   1  16   0    8.21    6.07
  -1 -16   0    2.02    6.54
   1 -16   0   -1.49    6.36
  -1  16   0    0.36    6.13
   1 -16   1   25.40    8.15
   1  16  -1   40.21    9.52
  -1 -16   1   51.99   11.12
  -1  16  -1   30.34    8.51
   1 -16   2  194.27   31.05
   1  16  -2  160.42   25.99
  -1 -16   2  167.44   27.12
  -1  16  -2  172.97   27.90
   1 -16   3    5.89    6.54
   1  16  -3   -0.71    6.25
  -1 -16   3    8.21    6.54
  -1  16  -3   -2.97    6.48
   1 -16   4   34.20    8.92
   1  16  -4   20.22    7.67
  -1 -16   4   33.13    8.57
  -1  16  -4   27.90    8.62
   1 -16   5   -0.06    6.25
   1  16  -5   -0.30    6.66
  -1 -16   5   -3.99    6.13
  -1  16  -5    1.13    6.60
   1 -16   6    5.65    6.54
   1  16  -6    7.44    6.13
  -1 -16   6    0.18    5.95
  -1  16  -6   25.70    7.79
   1 -16   7   -0.83    5.65
   1  16  -7   -3.45    6.07
  -1 -16   7    3.39    5.77
  -1  16  -7    7.97    6.36
   1  16  -8    1.55    5.77
  -1  16  -8    3.15    6.25
   1  17   0    1.43    6.25
  -1 -17   0    8.39    6.60
   1 -17   0    5.89    6.90
  -1  17   0   -7.38    6.60
   1 -17   1   23.32    8.62
   1  17  -1   20.34    7.73
  -1 -17   1   19.87    7.97
  -1  17  -1   27.36    8.62
   1 -17   2    2.02    7.55
   1  17  -2   -1.55    7.08
  -1 -17   2   -0.30    7.02
  -1  17  -2   -2.56    7.32
   1 -17   3   20.11    7.55
  -1 -17   3    3.69    6.36
   1 -17   4   -4.34    6.13
   1  17  -4    8.39    6.66
  -1 -17   4    4.04    6.13
  -1  17  -4   -0.42    6.66
   1 -17   5   -0.77    5.59
   1  17  -5   -3.03    6.01
  -1 -17   5    7.49    5.95
  -1  17  -5   -3.39    6.19
   1 -17   6    7.02    5.77
   1  17  -6    0.54    5.95
  -1 -17   6   -5.29    5.41
  -1  17  -6    8.09    6.07
   1 -17   7   -5.71    5.95
   1  17  -7    7.20    6.07
  -1 -17   7   -1.84    5.65
  -1  17  -7   -4.10    5.95
   1  18   0    8.27    6.42
  -1 -18   0    4.28    6.48
   1 -18   0   -8.68    6.48
  -1  18   0   -1.37    6.01
   1 -18   1   18.86    7.61
   1  18  -1    2.68    6.66
  -1 -18   1    1.07    7.02
  -1  18  -1    6.07    6.78
   1 -18   2   18.80    7.73
   1  18  -2   15.35    7.49
  -1 -18   2   24.86    8.15
  -1  18  -2    7.14    7.32
   1 -18   3    0.54    5.71
   1  18  -3   -3.03    6.66
  -1 -18   3   11.06    6.36
  -1  18  -3   11.06    7.20
   1 -18   4   34.74    8.15
   1  18  -4   17.13    6.96
  -1 -18   4   39.20    8.80
  -1  18  -4   19.81    7.26
   1 -18   5   -2.02    5.41
   1  18  -5   -6.07    5.83
  -1 -18   5    3.51    5.35
  -1  18  -5    1.13    5.47
   1  19   0    5.12    6.01
  -1 -19   0    8.45    6.19
   1 -19   0    6.90    5.95
  -1  19   0   -7.02    6.01
   1 -19   1    1.13    6.19
   1  19  -1   -3.45    6.19
  -1 -19   1   -4.76    6.31
  -1  19  -1    4.70    6.25
   1 -19   2   -3.15    6.31
   1  19  -2   -4.76    6.36
  -1 -19   2   13.68    6.72
  -1  19  -2   -5.17    6.13
   1 -19   3    9.99    6.36
   1  19  -3   -6.42    6.42
  -1  19  -3    9.87    6.42
   1 -19   4   -4.70    5.23
   1  19  -4    1.13    5.53
  -1 -19   4   -4.94    5.47
  -1  19  -4   -0.42    5.71
  -2   0   0  496.44   75.90
   2   1   0   58.47   11.00
  -2  -1   0   72.27   13.26
   2   1  -1   35.63    8.33
  -2  -1   1   39.97    9.10
   2   2   0   82.50   14.63
  -2  -2   0  100.41   17.31
   2   2  -1    8.39    7.08
  -2  -2   1    2.86    6.96
   2   2  -2   -5.53    7.26
  -2  -2   2    0.00    6.96
   2   3   0  136.81   22.60
  -2  -3   0  148.23   24.27
   2  -3   1   -0.59    4.64
   2   3  -1   -3.15    7.97
  -2  -3   1   -0.42    7.32
   2   3  -2  115.57   19.63
  -2  -3   2  102.96   17.73
   2   4   0   98.98   17.55
  -2  -4   0   88.33   16.00
   2  -4   1   10.35    5.83
   2   4  -1    1.19    7.97
  -2  -4   1    2.97    7.85
  -2   4  -1    8.51    5.77
   2  -4   2   14.45    6.36
   2   4  -2    0.65    8.39
  -2  -4   2   15.35    8.33
  -2   4  -2   30.22    7.55
   2   4  -3    6.54    7.08
   2   5   0  510.18   78.58
  -2  -5   0  380.99   58.83
   2   5  -1  385.33   59.54
  -2   5  -1  261.19   40.51
   2  -5   2  270.65   41.94
   2   5  -2  303.84   47.29
  -2   5  -2  248.40   38.66
   2   5  -3   95.71   16.66
  -2  -5   3   46.63   10.23
  -2   5  -3   78.16   13.50
   2   5  -4   99.75   16.89
  -2  -5   4   90.53   15.47
   2   6   0   41.46    9.99
  -2  -6   1  -10.11    7.73
  -2   6  -1    6.60    6.78
   2  -6   2    7.55    6.01
   2   6  -2   11.24    7.91
  -2  -6   2   18.50    7.97
  -2   6  -2   23.50    7.26
   2  -6   3   -0.48    5.83
   2   6  -3    0.59    6.96
  -2  -6   3    4.70    7.02
  -2   6  -3   -2.26    6.13
   2   6  -4    6.84    6.78
  -2  -6   4   15.94    7.20
   2   6  -5    7.38    6.48
  -2  -6   5   -3.21    6.13
   2   7   0   25.70    8.51
  -2  -7   0   19.57    8.27
   2  -7   1    5.41    6.66
   2   7  -1   -2.14    7.97
  -2  -7   1    6.96    7.85
  -2   7  -1   -6.36    6.90
   2  -7   2   25.82    7.20
   2   7  -2   32.54    8.74
  -2  -7   2   45.15    9.99
  -2   7  -2   26.95    7.61
   2  -7   3    1.72    6.31
   2   7  -3   12.49    7.32
  -2  -7   3    1.61    6.96
  -2   7  -3    7.61    6.48
   2  -7   4   19.03    6.72
  -2  -7   4   39.14    9.16
  -2   7  -4   12.79    6.42
   2   7  -5   11.48    6.90
  -2  -7   5   11.12    6.72
   2   7  -6    6.54    5.47
   2   8   0  135.08   22.13
  -2  -8   0  132.94   21.95
   2  -8   1   -1.43    6.90
   2   8  -1    4.70    7.67
  -2  -8   1    3.81    7.73
  -2   8  -1    0.12    6.90
   2  -8   2   58.89   11.36
   2   8  -2   62.34   12.31
  -2  -8   2   81.43   14.28
  -2   8  -2   86.67   15.05
   2  -8   3    4.40    6.54
   2   8  -3    0.95    6.66
  -2  -8   3   -0.54    6.01
  -2   8  -3   -1.25    6.42
   2  -8   4  209.62   32.89
   2   8  -4  209.02   33.07
  -2  -8   4  148.41   24.09
  -2   8  -4  182.61   28.85
   2  -8   5   10.77    5.83
   2   8  -5    0.12    6.13
  -2  -8   5    1.01    6.13
  -2   8  -5    4.58    5.83
   2   8  -6   10.83    6.25
  -2  -8   6   15.47    6.36
   2   9   0    5.89    7.20
  -2  -9   0    8.57    7.08
   2  -9   1   15.23    7.55
   2   9  -1    6.19    7.32
  -2  -9   1    0.42    7.14
  -2   9  -1    5.17    6.60
   2  -9   2   10.17    6.07
   2   9  -2    6.90    6.72
  -2  -9   2   -2.26    6.07
  -2   9  -2    1.01    5.95
   2  -9   3   -0.18    5.89
   2   9  -3   -8.74    6.90
  -2  -9   3    3.93    6.60
  -2   9  -3    3.75    6.25
   2  -9   4   -1.37    5.95
   2   9  -4    6.72    6.72
  -2  -9   4    0.89    6.78
  -2   9  -4   -0.12    6.25
   2  -9   5   -3.39    5.29
   2   9  -5    7.44    6.25
  -2  -9   5   -0.83    6.01
  -2   9  -5    0.18    5.65
   2   9  -6    4.22    5.95
  -2  -9   6    2.68    6.07
  -2   9  -6    3.93    5.23
   2   9  -7    5.06    5.71
  -2  -9   7    9.52    5.59
   2  10   0  147.34   23.85
  -2 -10   0  155.78   25.22
   2 -10   1   -1.25    6.54
   2  10  -1   18.80    8.45
  -2 -10   1   -8.09    7.61
  -2  10  -1   -1.25    6.60
   2 -10   2   37.00    8.39
   2  10  -2   41.46    9.64
  -2 -10   2   27.54    7.79
  -2  10  -2   32.60    8.21
   2 -10   3   11.60    5.89
   2  10  -3   18.68    7.20
  -2 -10   3   14.99    6.42
  -2  10  -3   12.13    6.31
   2 -10   4   41.16    8.86
   2  10  -4   44.37    9.46
  -2 -10   4   33.31    7.85
  -2  10  -4   30.10    7.73
   2  10  -5   11.06    6.66
  -2 -10   5   21.77    7.32
  -2  10  -5   24.51    6.90
   2 -10   6    9.40    5.59
   2  10  -6    2.68    5.77
  -2 -10   6    2.62    5.59
  -2  10  -6    3.75    5.53
   2  10  -7   19.87    6.72
  -2 -10   7    2.44    5.59
   2  10  -8   -0.48    5.77
   2  11   0   -8.74    6.48
  -2 -11   0   -0.06    6.60
   2 -11   0    0.12    5.59
   2 -11   1    4.94    6.25
   2  11  -1    0.59    7.02
  -2 -11   1    2.97    6.72
  -2  11  -1    0.95    6.13
   2 -11   2    7.32    5.59
   2  11  -2   -4.10    6.19
  -2 -11   2    0.42    5.77
  -2  11  -2    7.20    5.77
   2 -11   3   -2.02    5.29
   2  11  -3   -0.77    6.19
  -2 -11   3    5.17    5.89
  -2  11  -3    7.61    5.47
   2 -11   4    3.03    5.95
   2  11  -4    3.57    6.01
  -2 -11   4   -6.01    5.71
  -2  11  -4    2.50    5.41
   2 -11   5   -6.72    5.77
   2  11  -5   -0.24    6.13
  -2 -11   5    7.73    6.31
  -2  11  -5    1.19    5.71
   2 -11   6    0.65    5.65
   2  11  -6   10.05    6.31
  -2 -11   6    1.72    5.47
  -2  11  -6    7.79    5.71
   2 -11   7    3.57    5.59
   2  11  -7   -1.25    5.95
  -2 -11   7    2.91    5.83
  -2  11  -7    9.10    6.07
   2  11  -8   10.17    6.19
  -2 -11   8    1.13    6.13
   2  11  -9    5.35    5.95
   2  12   0   28.49    7.85
  -2 -12   0   31.47    8.21
   2 -12   0   37.24    8.15
   2 -12   1   -3.99    5.83
   2  12  -1    0.54    6.66
  -2 -12   1   -5.23    6.60
  -2  12  -1   11.72    6.19
   2  12  -2   21.35    7.55
  -2 -12   2   20.88    6.84
  -2  12  -2    6.31    6.31
   2 -12   3    1.01    5.23
   2  12  -3    0.48    5.89
  -2 -12   3   -2.32    5.71
  -2  12  -3    9.28    5.89
   2 -12   4   11.66    5.71
   2  12  -4   19.99    6.84
  -2 -12   4   13.62    6.07
  -2  12  -4    7.67    5.71
   2 -12   5   -6.96    5.83
   2  12  -5   -3.03    5.83
  -2 -12   5    5.89    6.19
  -2  12  -5   -5.77    5.89
   2 -12   6   -0.83    5.59
   2  12  -6   -2.08    6.13
  -2 -12   6    2.20    5.95
  -2  12  -6   -5.53    5.95
   2 -12   7    9.99    6.36
   2  12  -7   11.06    6.48
  -2 -12   7   13.92    6.60
  -2  12  -7   15.64    6.96
   2 -12   8    2.26    6.13
   2  12  -8    3.75    6.36
  -2 -12   8    9.58    6.48
  -2  12  -8    5.83    6.31
   2  12  -9   -3.69    6.01
  -2 -12   9   -2.44    5.77
   2  13   0   42.77    9.10
  -2 -13   0   52.52   10.59
   2 -13   0   39.85    8.45
   2 -13   1    2.26    5.89
   2  13  -1    8.03    6.60
  -2 -13   1    5.29    6.72
  -2  13  -1   -1.96    5.83
   2 -13   2   36.28    8.57
   2  13  -2   67.16   12.61
  -2 -13   2   43.90    9.76
  -2  13  -2   36.17    8.45
   2 -13   3   46.99    9.46
   2  13  -3   46.28    9.87
  -2 -13   3   43.66    9.28
  -2  13  -3   44.91    9.28
   2 -13   4   21.12    6.78
   2  13  -4   29.92    7.73
  -2 -13   4   31.88    7.79
  -2  13  -4   44.85    9.40
   2 -13   5   74.00   13.32
   2  13  -5   39.02    8.86
  -2 -13   5   28.55    7.38
  -2  13  -5   48.30   10.35
   2 -13   6   11.66    6.84
   2  13  -6    4.64    6.48
  -2 -13   6    0.48    6.36
  -2  13  -6    9.22    6.72
   2 -13   7   31.41    8.51
   2  13  -7   27.42    8.09
  -2 -13   7   33.13    8.74
  -2  13  -7   54.55   11.12
   2 -13   8    9.81    6.31
   2  13  -8    1.13    6.42
  -2 -13   8   -0.89    6.31
  -2  13  -8   12.43    6.54
   2  13  -9   11.24    6.42
  -2 -13   9   14.63    6.42
  -2  13  -9    7.73    6.25
   2  13 -10   -1.96    5.23
  -2 -13  10    1.13    5.23
   2  14   0    7.49    5.89
  -2 -14   0    7.85    6.13
   2 -14   0    4.70    5.65
   2 -14   1   -1.25    6.13
   2  14  -1    2.44    6.25
  -2 -14   1   -3.03    6.36
  -2  14  -1   -1.43    6.01
   2 -14   2    9.93    6.48
   2  14  -2   -2.02    6.36
  -2 -14   2   21.29    7.38
  -2  14  -2   -1.07    6.42
   2 -14   3    3.45    5.47
   2  14  -3    2.80    5.77
  -2 -14   3    5.47    5.65
  -2  14  -3   -5.83    5.65
   2 -14   4    1.37    5.65
   2  14  -4    4.10    6.07
  -2 -14   4    4.04    5.83
  -2  14  -4    4.64    5.89
   2 -14   5    8.39    6.36
   2  14  -5    5.59    6.13
  -2 -14   5   -6.01    6.25
  -2  14  -5  -17.07    6.84
   2 -14   6    2.20    6.66
   2  14  -6   -3.27    7.32
  -2 -14   6   11.90    6.96
  -2  14  -6   -0.89    7.08
   2 -14   7    0.77    6.42
   2  14  -7    4.94    6.54
  -2 -14   7    3.03    6.54
  -2  14  -7   -3.69    6.96
   2 -14   8    4.10    5.83
   2  14  -8    9.76    6.54
  -2 -14   8    5.95    6.31
  -2  14  -8   -5.06    6.25
   2 -14   9   -0.36    4.88
   2  14  -9   10.77    5.89
  -2 -14   9   -6.78    5.71
  -2  14  -9    5.47    5.41
   2  15   0    3.45    5.77
  -2 -15   0    0.71    6.07
   2 -15   0    9.28    6.01
   2 -15   1    3.81    6.25
   2  15  -1    8.80    6.60
  -2 -15   1   16.66    7.02
  -2  15  -1    2.02    6.07
   2 -15   2   -6.31    6.42
   2  15  -2    3.15    6.48
  -2 -15   2    8.45    6.54
  -2  15  -2   -3.27    6.48
   2 -15   3    9.28    6.25
   2  15  -3   12.37    6.36
  -2 -15   3   12.43    6.42
  -2  15  -3    7.79    6.48
   2 -15   4   -1.13    6.36
   2  15  -4    3.03    6.25
  -2 -15   4   -6.72    6.31
  -2  15  -4    7.26    6.54
   2 -15   5    4.70    6.78
   2  15  -5   14.16    7.02
  -2 -15   5   -0.18    6.13
  -2  15  -5   -9.70    7.20
   2 -15   6   -1.72    6.84
   2  15  -6    5.65    6.42
  -2 -15   6    6.07    6.54
  -2  15  -6   -0.12    7.02
   2 -15   7   -0.42    6.07
   2  15  -7    9.76    6.90
  -2 -15   7    7.79    6.31
  -2  15  -7    3.45    6.72
   2 -15   8   -6.36    5.71
   2  15  -8    4.22    6.19
  -2 -15   8    9.64    6.07
  -2  15  -8   -2.50    5.65
   2  16   0   27.72    7.79
  -2 -16   0   30.69    8.45
   2 -16   0   33.01    8.62
   2 -16   1    1.37    7.08
   2  16  -1    5.95    6.84
  -2 -16   1   14.63    7.73
  -2  16  -1   -1.07    6.78
   2 -16   2    8.03    7.49
   2  16  -2    3.63    6.90
  -2 -16   2    9.58    7.44
  -2  16  -2    7.97    7.14
   2 -16   3    0.12    6.72
   2  16  -3    1.49    6.48
  -2 -16   3   25.40    7.79
  -2  16  -3    2.97    6.72
   2 -16   4   10.65    6.90
   2  16  -4    4.76    6.54
  -2 -16   4   13.44    6.78
  -2  16  -4   12.49    7.49
   2 -16   5   19.75    7.20
   2  16  -5   11.30    6.66
  -2 -16   5    6.13    6.25
  -2  16  -5    2.62    6.72
   2 -16   6   -4.58    6.54
   2  16  -6    1.13    6.31
  -2 -16   6    3.21    5.77
  -2  16  -6   -3.03    6.13
   2 -16   7    6.48    6.01
   2  16  -7   -2.32    6.25
  -2 -16   7   10.29    6.07
  -2  16  -7    0.42    6.07
   2  17   0   11.30    6.54
  -2 -17   0   26.65    8.03
   2 -17   0    4.94    6.78
   2 -17   1    7.26    7.32
   2  17  -1    3.33    6.90
  -2 -17   1    5.12    7.26
  -2  17  -1   -3.39    7.32
   2 -17   2    6.36    7.44
   2  17  -2   -1.01    6.96
  -2 -17   2    6.72    7.20
  -2  17  -2    3.57    7.61
   2 -17   3    4.94    6.42
  -2 -17   3    8.62    6.42
   2 -17   4   -1.25    6.36
   2  17  -4   -5.65    6.66
  -2 -17   4    0.24    6.25
  -2  17  -4    6.25    6.90
   2 -17   5    3.63    5.89
   2  17  -5   -1.72    6.36
  -2 -17   5    1.67    5.83
  -2  17  -5   -0.30    6.19
   2 -17   6    3.63    5.47
   2  17  -6    2.91    5.77
  -2 -17   6   -0.65    5.59
  -2  17  -6   -2.80    5.71
   2  18   0   20.94    7.38
  -2 -18   0    5.95    6.72
   2 -18   0    7.44    6.66
   2 -18   1    1.72    6.90
   2  18  -1    8.57    7.02
  -2 -18   1    4.16    6.84
  -2  18  -1   -8.45    6.60
   2 -18   2    0.83    7.02
   2  18  -2    4.52    6.96
  -2 -18   2    7.14    6.84
  -2  18  -2    2.80    6.96
   2 -18   3   -1.78    5.77
   2  18  -3   -4.46    6.84
  -2 -18   3    6.36    6.01
  -2  18  -3    0.83    6.66
   2 -18   4   25.99    7.32
   2  18  -4   17.96    7.14
  -2 -18   4    2.14    5.77
  -2  18  -4    4.34    6.13
   2 -18   5   -0.89    5.23
   2  18  -5    7.08    5.83
  -2 -18   5    4.64    5.53
  -2  18  -5    7.14    5.83
   2  19   0    1.84    5.77
  -2 -19   0   12.73    6.25
   2 -19   0   -0.06    5.65
   2 -19   1   -1.19    6.13
   2  19  -1    7.85    6.66
  -2 -19   1    3.03    6.25
  -2  19  -1    1.31    6.01
   2 -19   2    3.33    6.19
   2  19  -2    5.65    6.36
  -2 -19   2   -3.27    6.13
  -2  19  -2    7.79    6.42
   2 -19   3   -1.90    5.77
   2  19  -3    1.67    5.89
  -2  19  -3   10.29    6.42
  -3   0   0    3.69    5.35
  -3   0   1  408.70   62.64
  -3  -1   0  -17.96    7.49
  -3   1   0   -9.70    3.81
   3   1  -1    9.34    6.72
  -3  -1   1    9.22    6.60
   3   2   0    3.39    7.85
  -3  -2   0    9.40    7.91
   3   2  -1  138.89   22.54
  -3  -2   1  152.69   24.51
   3   2  -2    0.95    7.20
  -3  -2   2   -2.08    6.60
   3   3   0    0.54    7.97
  -3  -3   0   -0.18    7.61
   3  -3   1   94.70   14.99
   3   3  -1   92.61   16.48
  -3  -3   1  101.60   17.43
  -3   3  -1  112.36   17.67
   3   3  -2  222.58   35.21
  -3  -3   2  253.99   39.73
   3   3  -3  137.29   22.31
  -3  -3   3  132.41   21.59
   3   4   0   -0.18    9.04
  -3  -4   0  -11.84    9.10
   3  -4   1   25.52    6.48
   3   4  -1   10.65    8.39
  -3  -4   1   22.42    8.33
   3   4  -2   12.25    8.51
  -3  -4   2   13.38    7.97
   3   4  -3   96.48   16.60
  -3  -4   3   70.84   13.15
   3   4  -4    6.66    6.48
   3   5   0    3.51    8.39
  -3  -5   0    9.81    8.51
   3  -5   1   74.47   12.67
   3   5  -1   88.15   15.82
  -3  -5   1  122.59   20.46
  -3   5  -1   56.87   10.47
   3  -5   2 1873.70  285.75
   3   5  -2 2010.51  306.87
  -3  -5   2 2027.16  309.37
  -3   5  -2 1653.02  252.21
   3   5  -3    0.89    7.14
   3   5  -4  597.80   91.78
   3   6   0  -13.92    7.79
  -3  -6   0   -7.67    8.09
   3  -6   1   19.63    6.90
  -3   6  -1   -3.45    5.89
   3  -6   2   12.85    6.01
   3   6  -2    1.84    7.38
  -3   6  -2   16.30    6.72
   3  -6   3   78.93   13.32
   3   6  -3   77.57   14.16
  -3   6  -3   74.29   12.73
   3   6  -4    2.32    6.60
  -3  -6   4   -9.76    6.84
   3   6  -5   23.08    7.55
  -3  -6   5   23.79    7.49
   3   7   0    5.06    7.38
   3  -7   1    8.21    6.42
   3   7  -1   -0.36    8.03
  -3  -7   1   10.53    7.14
  -3   7  -1   10.23    6.25
   3  -7   2   32.72    7.73
  -3  -7   2   67.39   12.37
  -3   7  -2   32.95    7.73
   3  -7   3   20.22    6.72
   3   7  -3   18.32    7.49
  -3  -7   3   12.49    6.54
   3  -7   4   52.64    9.93
   3   7  -4   47.70   10.35
  -3  -7   4   48.66   10.53
  -3   7  -4   54.13   10.05
   3   7  -5   20.34    7.32
  -3  -7   5    0.24    6.48
   3   7  -6   15.29    6.42
  -3  -7   6   13.26    6.19
   3   8   0   -5.00    7.38
  -3  -8   0    3.33    6.84
   3  -8   1   35.69    8.62
   3   8  -1   43.18   10.71
  -3  -8   1   69.48   13.21
  -3   8  -1   34.14    8.33
   3  -8   2    0.24    6.13
   3   8  -2   16.83    7.85
  -3  -8   2    5.12    6.54
  -3   8  -2    0.18    6.01
   3  -8   3   62.34   11.66
   3   8  -3   86.13   15.35
  -3  -8   3   90.71   15.70
  -3   8  -3   71.80   12.73
   3  -8   4  210.45   32.89
   3   8  -4  304.73   47.47
  -3  -8   4  317.58   49.43
  -3   8  -4  308.54   47.70
   3   8  -5   44.67    9.64
  -3  -8   5   38.60    8.98
  -3   8  -5   29.44    7.55
   3   8  -6   -4.10    6.07
  -3  -8   6   10.35    5.89
   3   8  -7    7.26    5.47
   3   9   0    1.13    7.32
  -3  -9   0    9.34    7.38
   3  -9   1   -0.95    6.78
   3   9  -1    9.58    8.15
  -3  -9   1    4.82    7.44
  -3   9  -1   12.19    7.08
   3  -9   2   12.25    5.65
   3   9  -2   15.29    7.20
  -3  -9   2    2.86    6.25
  -3   9  -2    5.83    5.95
   3  -9   3    9.40    5.59
   3   9  -3    3.69    6.60
  -3  -9   3   14.69    6.90
  -3   9  -3    8.33    5.71
   3  -9   4    4.40    5.53
   3   9  -4   -0.83    6.96
  -3  -9   4   -3.33    6.25
  -3   9  -4    8.21    5.77
   3  -9   5   -3.57    5.29
   3   9  -5    5.71    6.25
  -3  -9   5    6.19    6.01
  -3   9  -5    1.13    5.23
   3   9  -6   19.21    6.66
  -3  -9   6    8.98    6.07
   3   9  -7   10.53    5.71
  -3  -9   7   -3.27    5.71
   3  10   0    0.89    6.78
  -3 -10   0   -3.93    7.14
   3 -10   1   42.29    9.16
   3  10  -1   36.11    9.46
  -3 -10   1   36.76    9.64
  -3  10  -1   45.03    9.34
   3 -10   2   31.47    7.38
   3  10  -2   25.34    7.79
  -3 -10   2   30.81    8.27
  -3  10  -2   39.62    8.51
   3 -10   3  612.67   93.92
   3  10  -3  581.44   89.34
  -3 -10   3  583.17   89.58
  -3  10  -3  487.46   74.89
   3 -10   4   61.68   11.36
   3  10  -4   58.83   11.12
  -3 -10   4   56.51   10.83
  -3  10  -4   66.50   11.96
   3 -10   5  107.25   17.61
   3  10  -5  198.14   31.35
  -3 -10   5  116.76   19.39
  -3  10  -5  134.79   21.71
   3 -10   6   -4.70    5.06
   3  10  -6   -2.14    5.71
  -3 -10   6    5.29    5.71
  -3  10  -6   -0.36    5.17
   3  10  -7   50.56   10.05
  -3 -10   7   31.41    7.73
   3  10  -8    3.81    5.59
  -3 -10   8    3.15    5.89
   3  11   0   12.79    6.78
  -3 -11   0   -1.61    6.42
   3 -11   1   13.21    6.19
   3  11  -1   -0.59    6.78
  -3 -11   1   -3.87    6.78
  -3  11  -1   -3.69    5.77
   3 -11   2   21.77    6.36
   3  11  -2    2.02    6.01
  -3 -11   2   32.00    7.91
  -3  11  -2   15.52    5.77
   3 -11   3  -11.72    5.41
   3  11  -3    2.86    6.13
  -3 -11   3    2.62    5.89
  -3  11  -3    0.24    5.35
   3 -11   4    9.46    5.77
   3  11  -4   32.83    8.15
  -3 -11   4   34.26    8.09
  -3  11  -4   17.90    6.07
   3 -11   5    3.69    5.41
   3  11  -5    8.09    6.25
  -3 -11   5    2.50    5.89
  -3  11  -5   -1.61    5.29
   3 -11   6   18.32    6.31
   3  11  -6    4.34    6.07
  -3 -11   6    3.09    5.77
  -3  11  -6   18.86    6.60
   3  11  -7   -9.99    5.95
  -3 -11   7   -2.74    6.01
  -3  11  -7    0.95    5.65
   3  11  -8    6.66    6.07
  -3 -11   8   -5.65    6.31
   3  11  -9   -2.62    5.95
  -3 -11   9    7.02    6.36
   3  12   0    4.34    6.19
  -3 -12   0   -6.36    6.36
   3 -12   1   17.79    6.42
   3  12  -1    8.03    6.90
  -3 -12   1   19.87    7.67
  -3  12  -1   14.39    6.13
   3  12  -2   -2.02    6.60
  -3 -12   2    7.02    5.95
  -3  12  -2    2.50    5.59
   3 -12   3   29.80    7.20
   3  12  -3   36.46    8.74
  -3 -12   3   28.67    7.38
  -3  12  -3   29.62    7.32
   3 -12   4   61.98   11.18
   3  12  -4   58.77   11.30
  -3 -12   4   52.17   10.17
  -3  12  -4   63.77   11.48
   3 -12   5   38.37    8.51
   3  12  -5   40.09    8.92
  -3 -12   5   25.22    7.32
  -3  12  -5   69.65   12.61
   3 -12   6   -0.18    5.71
   3  12  -6    9.04    6.48
  -3 -12   6  -12.43    6.36
  -3  12  -6    0.06    5.71
   3 -12   7    6.78    6.36
   3  12  -7    4.04    6.48
  -3 -12   7   17.07    7.20
  -3  12  -7   -4.04    6.19
   3  12  -8   21.89    7.38
  -3 -12   8   10.41    6.66
  -3  12  -8    8.68    6.54
   3  12  -9    8.33    6.25
  -3 -12   9    5.06    6.07
   3  12 -10    4.94    5.47
   3  13   0    2.38    5.83
  -3 -13   0    8.74    6.25
   3 -13   1   27.18    7.32
   3  13  -1   34.98    8.74
  -3 -13   1   43.36    9.58
  -3  13  -1   28.31    7.38
   3 -13   2   22.54    7.02
   3  13  -2   16.36    7.26
  -3 -13   2   18.92    7.38
  -3  13  -2   29.03    7.55
   3 -13   3  112.30   18.44
   3  13  -3  107.84   18.14
  -3 -13   3  111.47   18.50
  -3  13  -3  110.04   18.20
   3 -13   4   15.05    6.31
   3  13  -4   -4.34    6.01
  -3 -13   4   -4.34    5.47
  -3  13  -4    2.38    5.71
   3 -13   5   50.86   10.35
   3  13  -5   43.18    9.40
  -3 -13   5   44.55    9.28
  -3  13  -5   46.04    9.76
   3 -13   6   10.47    6.42
   3  13  -6    2.14    6.42
  -3 -13   6    4.46    6.54
  -3  13  -6    2.44    6.48
   3 -13   7   21.35    7.61
   3  13  -7    9.58    6.78
  -3 -13   7    6.31    6.90
  -3  13  -7   36.88    9.16
   3 -13   8   12.91    6.54
   3  13  -8    8.39    6.25
  -3 -13   8    8.39    6.66
  -3  13  -8    7.67    6.54
   3  13  -9    9.04    5.89
  -3 -13   9    8.21    6.01
   3  13 -10    1.19    5.77
   3  14   0   -4.52    5.89
  -3 -14   0    3.57    6.07
   3 -14   1    2.26    6.13
   3  14  -1   -8.21    6.48
  -3 -14   1   -3.75    6.48
  -3  14  -1    2.68    5.77
   3 -14   2   -7.97    6.42
   3  14  -2   -0.24    6.48
  -3 -14   2   -5.65    6.36
  -3  14  -2   -2.02    6.19
   3 -14   3    5.29    5.83
   3  14  -3   -2.50    6.07
  -3 -14   3   -1.19    5.83
  -3  14  -3   10.23    6.01
   3 -14   4    3.33    5.77
   3  14  -4    0.00    5.95
  -3 -14   4    8.74    5.83
  -3  14  -4    5.89    6.07
   3 -14   5   48.36   10.35
   3  14  -5   37.89    8.80
  -3 -14   5   27.72    7.73
  -3  14  -5   22.48    7.38
   3 -14   6   -4.82    6.84
   3  14  -6    3.09    6.31
  -3 -14   6   -1.07    7.14
  -3  14  -6    9.52    7.20
   3 -14   7   -0.24    6.19
   3  14  -7    7.44    6.72
  -3 -14   7   20.28    7.73
  -3  14  -7    2.14    6.90
   3 -14   8    6.66    5.95
   3  14  -8   -1.13    6.13
  -3 -14   8    5.89    6.25
  -3  14  -8    2.68    6.07
   3 -14   9   -2.38    5.00
   3  14  -9   -3.57    5.59
  -3 -14   9    3.57    5.71
  -3  14  -9    3.57    5.23
   3  15   0    3.03    6.07
  -3 -15   0    1.25    6.07
   3 -15   0    0.06    6.01
   3 -15   1   13.74    6.84
   3  15  -1   22.96    7.67
  -3 -15   1    9.40    6.60
  -3  15  -1   19.09    6.78
   3 -15   2    3.21    6.54
   3  15  -2   -7.14    6.54
  -3 -15   2   -8.51    6.66
  -3  15  -2    9.46    6.72
   3 -15   3   21.65    7.14
   3  15  -3    9.70    6.54
  -3 -15   3   17.19    6.72
  -3  15  -3   32.18    8.39
   3 -15   4   14.93    6.84
   3  15  -4   17.25    7.26
  -3 -15   4    8.39    6.60
  -3  15  -4   20.70    7.55
   3 -15   5    5.06    6.42
   3  15  -5    7.08    6.66
  -3 -15   5    2.26    6.48
  -3  15  -5   17.61    7.44
   3 -15   6    5.65    6.72
   3  15  -6    0.06    6.54
  -3 -15   6   12.91    6.54
  -3  15  -6    8.45    7.26
   3 -15   7   -3.15    6.01
   3  15  -7    2.32    6.54
  -3 -15   7    9.52    6.60
  -3  15  -7   -0.12    6.60
   3 -15   8    9.87    5.83
   3  15  -8    8.80    6.19
  -3 -15   8   -1.61    5.71
  -3  15  -8    3.87    5.77
   3  16   0   -9.34    6.36
  -3 -16   0    5.29    6.84
   3 -16   0    4.76    6.36
   3 -16   1   19.99    7.79
   3  16  -1   49.25   10.53
  -3 -16   1   20.16    8.09
  -3  16  -1   23.61    7.85
   3 -16   2    2.86    7.08
   3  16  -2   15.17    7.44
  -3 -16   2    9.34    7.49
  -3  16  -2    8.62    7.44
   3 -16   3   21.53    7.73
   3  16  -3   17.37    7.20
  -3 -16   3    5.65    6.54
  -3  16  -3    7.02    6.90
   3 -16   4    4.22    6.60
   3  16  -4    7.55    6.84
  -3 -16   4   10.29    6.78
  -3  16  -4   -7.26    6.84
   3 -16   5   -2.62    6.36
   3  16  -5    1.72    6.66
  -3 -16   5   12.91    6.54
  -3  16  -5   -0.59    6.48
   3 -16   6   -0.36    6.36
   3  16  -6   -5.83    6.25
  -3 -16   6    2.44    6.13
  -3  16  -6    0.48    6.19
   3 -16   7    3.09    5.71
   3  16  -7    2.91    6.31
  -3 -16   7    4.28    6.25
  -3  16  -7    2.26    5.95
   3  17   0    6.66    6.60
  -3 -17   0    6.84    7.08
   3 -17   0    3.69    6.66
   3 -17   1    4.22    7.20
   3  17  -1   11.06    7.44
  -3 -17   1    2.68    7.32
  -3  17  -1   -0.06    6.84
   3 -17   2    5.00    7.20
   3  17  -2   -5.77    7.32
  -3 -17   2   -4.52    7.26
  -3  17  -2   -4.88    7.26
   3 -17   3   -3.75    6.54
  -3 -17   3    7.14    6.36
   3 -17   4    0.00    6.25
   3  17  -4    6.60    6.54
  -3 -17   4   -4.88    6.25
  -3  17  -4   11.48    6.66
   3 -17   5   -8.39    6.07
  -3 -17   5  -11.90    6.07
  -3  17  -5    2.62    6.07
   3 -17   6    6.25    5.35
   3  17  -6    4.40    5.77
  -3 -17   6    3.15    5.77
  -3  17  -6    2.80    5.71
   3  18   0    1.90    6.42
  -3 -18   0   -3.81    6.66
   3 -18   0    8.21    6.31
   3 -18   1    3.15    6.84
   3  18  -1    6.48    6.90
  -3 -18  -1   -0.65    6.84
  -3 -18   1    3.21    7.14
  -3  18  -1   -8.45    6.60
   3 -18   2    2.38    6.90
   3  18  -2   17.43    7.44
  -3 -18   2   -4.94    7.08
  -3  18  -2   10.83    7.26
   3 -18   3    9.46    5.95
   3  18  -3  -10.05    6.90
  -3 -18   3    5.23    5.89
  -3  18  -3   -3.15    6.60
   3 -18   4   14.16    6.13
   3  18  -4   23.50    7.44
  -3 -18   4   26.71    7.55
  -3  18  -4   14.22    6.48
   3 -18   5   -3.09    5.29
   3  18  -5    9.04    5.95
  -3 -18   5    2.38    5.59
  -3  18  -5   -2.44    5.77
   3  19   0   -3.03    5.65
  -3 -19   0   -5.17    6.19
   3 -19   0    2.68    5.47
   3 -19   1   -0.65    5.89
   3  19  -1   -6.90    6.07
  -3 -19  -1   -7.38    5.83
  -3 -19   1    2.56    6.31
  -3  19  -1   -9.28    5.95
   3 -19   2   -8.33    6.13
   3  19  -2    5.41    6.42
  -3 -19   2  -13.56    6.48
  -3  19  -2   11.06    6.66
   3 -19   3    1.31    5.59
   3  19  -3   -2.20    6.25
  -3  19  -3   -2.68    6.36
   4   0   0  391.04   59.96
  -4   0   0  324.95   50.02
  -4   0   1   -1.78    5.77
   4   0  -1    5.23    6.07
   4   1   0   39.44    8.57
  -4  -1   0   74.00   13.44
   4  -1   0   32.54    6.01
  -4  -1   1   17.19    7.08
  -4  -1   2   48.95   10.23
  -4  -2   0   38.90    9.99
   4   2  -1  751.26  115.04
  -4  -2   1  744.72  114.03
   4   2  -2    7.32    7.38
  -4  -2   2    0.65    7.20
   4   3   0  832.16  127.41
  -4  -3   0  946.37  144.78
   4   3  -1   44.37   10.41
  -4  -3   1   59.19   11.78
   4   3  -2 1256.86  192.01
  -4  -3   2 1300.29  198.55
   4   3  -3   26.47    8.15
  -4  -3   3   23.20    7.97
   4   4   0    8.45    8.15
  -4  -4   0   31.05    9.58
   4  -4   1    5.47    3.87
   4   4  -1    9.76    7.49
  -4  -4   1   12.67    7.32
  -4   4  -1   20.34    5.17
   4   4  -2    0.59    6.96
  -4  -4   2   -1.37    7.20
   4   4  -3   12.85    7.49
  -4  -4   3   13.86    7.32
   4   4  -4   -4.46    6.66
  -4  -4   4   10.65    6.48
   4   5   0  212.71   33.79
  -4  -5   0  216.87   34.38
   4  -5   1  126.52   19.93
   4   5  -1   74.41   13.92
  -4  -5   1   98.50   17.07
   4  -5   2   52.29    9.28
   4   5  -2   61.45   12.13
  -4  -5   2   55.02   11.42
  -4   5  -2   43.24    8.33
   4   5  -3   28.61    8.39
  -4  -5   3   18.02    7.02
   4   5  -4    1.01    6.90
  -4  -5   4    7.44    6.60
   4   5  -5   14.69    6.84
  -4  -5   5    4.34    5.53
   4   6   0   17.61    8.21
  -4  -6   0   18.62    8.68
   4  -6   1   -3.39    5.12
   4   6  -1    3.27    7.32
  -4  -6   1   -5.83    7.38
  -4   6  -1    9.93    5.47
   4  -6   2    9.22    5.17
   4   6  -2    6.96    7.26
  -4  -6   2    2.62    6.96
  -4   6  -2   -0.89    4.94
   4  -6   3    6.90    5.23
   4   6  -3   19.87    8.03
  -4  -6   3   12.85    6.96
  -4   6  -3   14.04    5.29
   4   6  -4   -6.78    6.96
   4   6  -5   14.45    6.90
   4   7   0  452.60   69.83
  -4  -7   0  463.43   71.44
   4  -7   1   10.41    5.77
   4   7  -1    6.72    8.27
  -4  -7   1    5.71    6.19
  -4   7  -1    1.96    5.47
   4  -7   2  498.11   76.32
   4   7  -2  430.65   66.50
  -4   7  -2  336.61   51.81
   4  -7   3   -3.99    5.53
   4   7  -3   -0.12    7.14
  -4   7  -3    8.27    5.47
   4   7  -4   14.39    7.55
  -4  -7   4    3.03    6.54
   4   7  -5    4.28    6.36
  -4  -7   5  -14.81    6.48
   4   7  -6   47.47    9.58
  -4  -7   6   42.77    9.04
   4   8   0   27.84    8.80
   4  -8   1  230.79   35.93
   4   8  -1  316.57   49.37
  -4   8  -1  223.18   34.80
   4  -8   2   23.50    6.84
   4   8  -2   18.20    7.97
  -4  -8   2   10.77    6.66
  -4   8  -2   29.21    7.32
   4  -8   3  789.33  120.75
   4   8  -3  745.32  114.33
  -4  -8   3  889.86  136.21
  -4   8  -3  832.75  127.35
   4  -8   4   22.31    6.25
   4   8  -4   19.21    7.67
  -4  -8   4   19.03    7.20
  -4   8  -4   10.89    5.47
   4   8  -5  304.79   47.41
  -4  -8   5  355.94   55.08
   4   8  -6   13.98    6.31
  -4  -8   6    8.98    6.01
   4   8  -7  807.18  123.55
  -4  -8   7  776.84  118.96
   4   9   0   -4.40    7.67
  -4  -9   0   -2.50    7.44
   4  -9   1   -1.37    6.48
   4   9  -1    1.67    8.21
  -4  -9   1    6.13    7.67
  -4   9  -1    1.78    5.95
   4  -9   2   -7.14    5.29
   4   9  -2    5.53    6.72
  -4  -9   2    8.62    6.48
  -4   9  -2   12.07    5.89
   4  -9   3    6.84    5.83
   4   9  -3   10.47    6.84
  -4  -9   3   -6.13    6.25
  -4   9  -3    3.69    5.47
   4  -9   4   14.81    5.65
   4   9  -4   13.62    6.48
  -4  -9   4    8.68    6.54
  -4   9  -4    5.71    5.23
   4  -9   5    6.48    5.17
   4   9  -5    8.51    6.42
  -4  -9   5    2.26    5.95
  -4   9  -5   -3.09    4.94
   4   9  -6   12.25    6.07
  -4  -9   6    2.08    5.83
   4   9  -7   -0.71    5.59
  -4  -9   7    1.49    5.53
   4   9  -8    1.55    5.53
   4  10   0   15.47    7.44
  -4 -10   0   20.11    7.79
   4 -10   1   -1.61    5.29
   4  10  -1    1.90    7.20
  -4 -10   1    3.51    7.38
  -4  10  -1    7.44    6.07
   4  10  -2   45.44   10.05
  -4 -10   2   43.90    9.46
  -4  10  -2   32.89    7.73
   4 -10   3   47.17    9.04
   4  10  -3   11.30    6.72
  -4 -10   3   28.85    7.61
  -4  10  -3   33.67    7.61
   4 -10   4    2.97    5.23
   4  10  -4    9.28    6.19
  -4 -10   4    2.44    5.65
  -4  10  -4    7.08    5.59
   4 -10   5   92.20   15.41
   4  10  -5  103.62   17.49
  -4 -10   5  109.09   18.26
  -4  10  -5  141.93   22.66
   4  10  -6   -7.91    5.71
  -4 -10   6   -9.22    5.95
  -4  10  -6    9.81    5.47
   4  10  -7    2.50    5.71
  -4 -10   7    2.32    5.83
   4  10  -8   -3.99    5.77
  -4 -10   8   -0.95    6.19
   4  10  -9   67.39   12.61
   4  11   0   -1.01    6.31
  -4 -11   0    4.10    6.72
   4 -11   1   -1.01    5.47
   4  11  -1   -1.07    6.96
  -4 -11   1   -2.91    6.66
  -4  11  -1   -2.91    5.47
   4 -11   2   18.62    6.01
   4  11  -2   23.97    7.61
  -4 -11   2   10.17    5.71
   4 -11   3    2.86    5.00
   4  11  -3    6.48    6.42
  -4 -11   3    6.72    5.71
  -4  11  -3   -4.82    5.23
   4 -11   4   -2.32    5.29
   4  11  -4   -2.14    5.65
  -4 -11   4   -0.36    5.59
  -4  11  -4    1.78    5.35
   4 -11   5    5.47    5.29
   4  11  -5    5.41    6.54
  -4 -11   5    5.29    6.13
  -4  11  -5    4.28    5.41
   4 -11   6   -1.43    5.41
   4  11  -6    7.85    6.07
  -4 -11   6   -1.67    5.95
  -4  11  -6    0.18    5.41
   4  11  -7    4.70    6.07
  -4 -11   7   -3.57    6.25
   4  11  -8   41.70    9.28
  -4 -11   8   25.99    7.73
   4  11  -9    1.07    5.95
  -4 -11   9   -2.91    6.19
   4  12   0   17.31    6.90
  -4 -12   0    6.54    6.36
   4 -12   1  394.49   60.73
   4  12  -1  375.75   58.23
  -4 -12   1  382.53   59.24
  -4  12  -1  352.79   54.43
   4  12  -2   -5.17    6.25
  -4 -12   2   -7.49    5.77
  -4  12  -2   -6.54    5.65
   4 -12   3   90.29   15.11
   4  12  -3   67.22   12.25
  -4 -12   3   89.88   15.47
  -4  12  -3   88.63   14.93
   4 -12   4    5.65    5.35
   4  12  -4    3.45    5.59
  -4 -12   4    1.78    5.53
  -4  12  -4   -0.77    5.29
   4 -12   5   80.00   13.92
   4  12  -5   66.32   12.25
  -4 -12   5   43.24    9.04
  -4  12  -5   69.06   12.43
   4 -12   6    4.04    5.95
   4  12  -6    9.04    6.36
  -4 -12   6    0.36    6.42
  -4  12  -6   -4.82    5.89
   4 -12   7  385.15   59.48
   4  12  -7  260.35   40.86
  -4 -12   7  296.34   46.28
  -4  12  -7  374.98   58.00
   4  12  -8    0.30    6.31
  -4 -12   8   10.71    6.78
   4  12  -9   31.64    8.03
  -4 -12   9   29.68    7.85
   4  12 -10   -1.55    5.23
  -4 -12  10   -6.07    5.17
   4  13   0  493.82   76.02
  -4 -13   0  632.30   97.08
   4 -13   1   26.05    7.20
   4  13  -1   19.15    7.20
  -4 -13   1   17.37    7.20
  -4  13  -1   17.96    6.07
   4 -13   2  497.39   76.43
   4  13  -2  829.78  127.17
  -4 -13   2  778.63  119.44
  -4  13  -2  610.88   93.68
   4 -13   3   -4.52    5.35
   4  13  -3   -1.61    5.71
  -4 -13   3    0.59    5.41
  -4  13  -3    2.20    5.71
   4 -13   4  122.89   20.05
   4  13  -4  166.67   26.71
  -4 -13   4  162.51   26.05
  -4  13  -4  284.15   44.25
   4 -13   5    4.46    6.31
   4  13  -5   -0.12    5.65
  -4 -13   5   -2.50    5.89
  -4  13  -5   10.94    6.66
   4 -13   6  475.26   73.28
   4  13  -6  594.82   91.54
  -4 -13   6  710.22  109.09
   4 -13   7   20.88    7.44
   4  13  -7   11.42    6.96
  -4 -13   7   13.03    7.32
  -4  13  -7   17.90    7.44
   4 -13   8   79.17   13.98
   4  13  -8   61.68   12.02
  -4 -13   8  110.40   18.80
  -4  13  -8   54.25   10.83
   4  13  -9   -5.00    5.71
  -4 -13   9   -4.40    5.77
   4  14   0    2.20    5.95
  -4 -14   0   -1.25    6.36
   4 -14   1   11.48    6.25
   4  14  -1   17.73    7.20
  -4 -14   1    6.31    6.42
   4 -14   2    1.13    6.19
   4  14  -2    9.04    6.78
  -4 -14   2    8.45    6.54
  -4  14  -2    0.18    6.25
   4 -14   3   -2.86    5.65
   4  14  -3    5.89    6.01
  -4 -14   3    2.74    5.89
  -4  14  -3   -7.20    5.95
   4 -14   4    3.45    5.77
   4  14  -4    3.21    6.01
  -4 -14   4    2.14    5.95
  -4  14  -4   10.89    6.48
   4 -14   5    2.68    6.90
   4  14  -5   10.29    6.66
  -4 -14   5   -8.15    6.42
  -4  14  -5    9.40    6.48
   4 -14   6    3.87    6.72
   4  14  -6   11.00    6.78
  -4 -14   6    9.46    7.55
  -4  14  -6   18.92    7.67
   4 -14   7    6.90    6.66
   4  14  -7    0.89    6.66
  -4 -14   7   12.43    7.26
  -4  14  -7   11.06    6.84
   4 -14   8   -4.10    5.53
   4  14  -8   -4.70    6.07
  -4 -14   8    8.92    6.36
  -4  14  -8   -5.77    5.95
   4  14  -9    4.40    5.71
  -4 -14   9    6.42    5.95
  -4  14  -9   13.92    6.01
   4  15   0  106.89   17.90
  -4 -15   0  113.85   19.21
   4 -15   1    8.86    6.60
   4  15  -1    4.82    6.48
  -4 -15  -1    6.01    6.25
  -4 -15   1   -1.13    6.84
  -4  15  -1    3.03    6.25
   4 -15   2    1.43    6.66
   4  15  -2    8.03    7.08
  -4 -15   2    2.02    7.02
  -4  15  -2   14.28    7.32
   4 -15   3    9.58    6.25
   4  15  -3    0.65    6.36
  -4 -15   3   15.58    6.78
  -4  15  -3   -2.14    6.25
   4 -15   4    8.15    6.66
   4  15  -4    2.20    6.60
  -4 -15   4    9.46    6.72
  -4  15  -4    3.27    6.60
   4 -15   5    9.99    6.60
   4  15  -5   16.12    7.20
  -4 -15   5   11.06    6.72
  -4  15  -5   13.50    7.14
   4 -15   6   47.17   10.35
   4  15  -6   54.01   10.94
  -4 -15   6   47.41   10.05
  -4  15  -6   35.21    9.16
   4 -15   7    0.42    6.01
   4  15  -7   -2.62    6.13
  -4 -15   7   -5.41    6.54
  -4  15  -7   -3.09    6.19
   4 -15   8    8.21    5.65
   4  15  -8    6.54    6.19
  -4 -15   8   14.45    6.42
  -4  15  -8    2.97    5.83
   4  16   0   21.95    7.32
  -4 -16   0   23.20    8.27
   4 -16   1   85.18   15.41
   4  16  -1  109.15   18.68
  -4 -16  -1   95.89   16.71
  -4 -16   1  103.26   18.20
  -4  16  -1   92.32   16.06
   4 -16   2    9.64    7.61
   4  16  -2    0.48    6.90
  -4 -16   2   11.06    7.55
  -4  16  -2   28.85    8.86
   4 -16   3   50.14   10.71
   4  16  -3   33.43    8.62
   4 -16   4   -1.37    6.60
   4  16  -4    2.97    6.42
  -4 -16   4    5.83    6.48
  -4  16  -4   -4.34    6.72
   4 -16   5    5.83    6.42
   4  16  -5    2.97    6.42
  -4 -16   5   -4.28    6.07
  -4  16  -5    2.74    6.66
   4 -16   6   10.77    6.60
   4  16  -6   -5.89    6.01
  -4 -16   6   -3.45    5.83
  -4  16  -6   -6.54    7.08
   4 -16   7    3.21    5.59
   4  16  -7   12.97    6.42
  -4 -16   7   -8.62    6.19
  -4  16  -7    4.16    5.83
   4  17   0   -7.61    6.54
  -4 -17   0   -7.08    7.02
   4 -17   1   17.31    8.03
   4  17  -1    3.45    6.84
  -4 -17  -1    8.68    6.72
  -4 -17   1    3.09    7.44
  -4  17  -1   -1.43    6.78
   4 -17   2   18.44    8.09
   4  17  -2    3.09    7.02
  -4 -17   2    7.32    7.32
  -4  17  -2    3.39    7.44
   4 -17   3    3.93    6.42
  -4 -17   3   -9.22    6.13
  -4  17  -3   -0.18    6.96
   4 -17   4    9.76    6.19
   4  17  -4   17.96    7.26
  -4 -17   4   -1.37    6.25
  -4  17  -4   -7.38    6.13
   4 -17   5    1.67    5.65
   4  17  -5    9.46    6.19
  -4 -17   5   -2.86    5.47
  -4  17  -5    3.15    5.95
   4 -17   6   17.31    6.84
   4  17  -6   22.54    7.08
  -4 -17   6   16.18    6.19
  -4  17  -6   16.95    6.42
   4  18   0    2.74    6.25
  -4 -18   0   15.88    7.38
   4 -18   1   49.31   10.53
   4  18  -1   63.11   12.31
  -4 -18  -1   41.22    9.46
  -4 -18   1   44.67   10.29
  -4  18  -1   25.22    7.61
   4 -18   2    5.29    6.66
   4  18  -2    4.94    6.66
  -4 -18   2   13.09    7.38
  -4  18  -2    0.95    6.54
   4 -18   3   14.45    6.07
   4  18  -3   18.68    7.44
  -4 -18   3    1.90    5.83
  -4  18  -3    2.26    6.36
   4 -18   4   -6.66    5.53
   4  18  -4   -5.65    5.71
  -4 -18   4    5.83    5.41
  -4  18  -4    1.78    5.65
   4 -18   5   29.92    7.61
   4  18  -5   18.50    6.72
  -4 -18   5   37.59    8.62
  -4  18  -5   14.16    6.42
   4  19   0   -9.70    5.83
  -4 -19   0   -2.20    6.07
   4 -19   0   -2.74    5.65
   4 -19   1    5.29    5.95
   4  19  -1   -8.21    6.36
  -4 -19  -1   -1.31    5.71
  -4 -19   1    2.14    6.42
  -4  19  -1    1.55    5.53
   4 -19   2    1.49    5.95
   4  19  -2    0.65    6.01
  -4 -19   2   -2.62    5.89
  -4  19  -2  -10.83    6.07
   4 -19   3   -2.86    5.59
   4  19  -3    0.42    6.13
  -4  19  -3    3.33    6.07
   5   0   0    1.72    5.65
  -5   0   0    4.28    6.25
  -5   0   1 9505.30 1448.99
   5   0  -1 9999.00 1523.94
   5   1   0    0.24    7.32
  -5  -1   0   12.55    7.97
   5  -1   0   -5.41    5.53
  -5   1   0   12.19    5.53
   5   1  -1   66.74   12.43
  -5  -1   1   50.38   10.35
   5  -1  -1   36.05    7.49
   5   1  -2  307.05   47.53
  -5  -1   2  364.27   56.21
   5   2   0    7.20    8.15
  -5  -2   0    2.08    8.03
  -5   2   0    9.70    4.16
  -5  -2   1  394.55   60.85
  -5  -2   2    6.60    7.38
   5   2  -3  205.21   32.18
  -5  -2   3  257.98   40.21
  -5  -3   0   20.40    8.98
  -5  -3   1   24.69    8.09
   5   3  -2  115.87   19.45
  -5  -3   2  126.46   20.88
   5   3  -3   19.81    7.38
  -5  -3   3    7.97    6.66
   5   3  -4  185.70   29.38
   5   4   0   -7.61    7.97
  -5  -4   0    8.15    8.15
   5  -4   1  105.88   16.42
   5   4  -1  134.61   22.07
  -5  -4   1  132.29   21.83
  -5   4  -1  177.61   27.30
   5   4  -2    6.72    7.08
  -5  -4   2    0.06    7.02
   5   4  -3   15.17    7.44
  -5  -4   3    3.45    6.72
   5   4  -4   -2.91    6.78
  -5  -4   4    1.13    6.54
   5   5   0  -17.96    8.03
  -5  -5   0   -7.85    8.09
   5  -5   1    2.97    3.57
   5   5  -1   18.26    7.67
  -5  -5   1   22.84    8.39
  -5   5  -1    2.68    3.69
   5   5  -2 1218.20  186.24
  -5  -5   2 1225.93  187.31
   5   5  -3   27.36    8.51
  -5  -5   3   18.20    7.61
   5   5  -4   47.35   10.17
  -5  -5   4   48.48    9.93
   5   5  -5    9.16    6.72
  -5  -5   5   13.44    6.36
   5   6   0    7.20    7.61
  -5  -6   0    3.87    7.14
   5   6  -1  112.48   18.86
  -5  -6   1  121.46   19.93
   5  -6   2   -1.67    4.58
   5   6  -2   -1.90    7.32
  -5  -6   2   11.96    6.60
  -5   6  -2    7.26    4.64
   5   6  -3   26.05    8.62
  -5  -6   3   26.05    8.21
   5   6  -4    2.44    7.44
  -5  -6   4   -5.65    6.54
   5   6  -5   11.06    6.19
  -5  -6   5   -0.12    6.31
   5   6  -6    8.51    5.83
   5   7   0  -11.24    8.27
  -5  -7   0   -6.66    7.61
   5  -7   1    4.88    5.00
   5   7  -1    8.74    8.57
  -5  -7   1   10.05    7.61
  -5   7  -1    8.74    5.47
   5  -7   2   30.63    6.90
   5   7  -2   26.77    9.04
  -5  -7   2   19.99    7.08
  -5   7  -2   31.64    6.96
   5  -7   3   21.59    6.13
   5   7  -3    8.33    7.49
  -5  -7   3   28.25    8.03
  -5   7  -3   16.12    5.59
   5   7  -4   22.07    7.91
   5   7  -5   15.70    6.42
   5   7  -6    9.93    6.25
  -5  -7   6    8.45    5.06
   5   7  -7   -1.13    5.35
   5   8   0   -2.02    8.33
  -5  -8   0    7.91    7.32
   5  -8   1   30.40    7.26
   5   8  -1   47.29   11.30
  -5  -8   1   53.30   11.48
  -5   8  -1   46.10    8.98
   5  -8   2   11.60    5.47
   5   8  -2   34.26    8.98
  -5   8  -2   15.41    5.77
   5   8  -3   56.15   11.36
  -5   8  -3   75.54   12.79
   5  -8   4    1.19    4.64
   5   8  -4   -7.61    6.66
  -5  -8   4   -3.63    5.12
  -5   8  -4   16.54    5.53
   5   8  -5  487.88   75.13
  -5  -8   5  430.77   66.50
   5   8  -6    3.51    5.89
  -5  -8   6   10.53    6.19
   5   8  -7  170.00   27.01
  -5  -8   7  190.94   30.16
   5   9   0    9.40    7.55
   5  -9   1    0.12    5.17
   5   9  -1   -0.24    7.61
  -5   9  -1   -2.91    5.29
   5  -9   2    6.90    4.82
   5   9  -2    6.19    6.72
  -5  -9   2    2.68    5.41
  -5   9  -2    1.78    5.17
   5  -9   3   -1.43    5.23
   5   9  -3    3.69    6.25
  -5  -9   3   -5.23    5.89
  -5   9  -3   -0.12    5.53
   5  -9   4   54.37    9.81
   5   9  -4   66.62   12.31
  -5  -9   4   54.43   10.59
  -5   9  -4   51.69    9.58
   5   9  -5    4.94    6.13
  -5  -9   5   -0.12    6.13
  -5   9  -5  -11.72    5.06
   5   9  -6   -0.54    5.71
  -5  -9   6   -3.93    5.71
   5   9  -7   -5.89    5.71
  -5  -9   7   11.60    6.25
   5   9  -8    9.40    6.01
  -5  -9   8    3.63    6.01
   5  10   0    2.86    6.48
  -5 -10   0   -4.16    6.90
   5 -10   1  323.82   49.91
   5  10  -1  368.67   57.16
  -5 -10   1  339.64   52.76
  -5  10  -1  318.11   49.07
   5 -10   2    3.33    4.70
   5  10  -2   14.04    6.66
  -5 -10   2   17.73    6.72
  -5  10  -2    4.94    5.17
   5 -10   3  106.12   17.13
   5  10  -3   87.80   15.29
  -5 -10   3   85.54   14.75
  -5  10  -3  103.14   16.89
   5 -10   4    4.04    4.88
   5  10  -4    1.31    5.77
  -5 -10   4   -2.26    5.65
  -5  10  -4    7.73    5.23
   5 -10   5    2.38    4.88
   5  10  -5    3.33    6.01
  -5 -10   5    2.02    5.77
  -5  10  -5   10.23    5.35
   5  10  -6   -6.01    6.01
  -5 -10   6   -2.80    5.89
   5  10  -7   36.94    8.51
  -5 -10   7   24.92    7.49
   5  10  -8    3.87    6.25
  -5 -10   8    9.40    6.19
   5  10  -9  234.00   36.82
  -5 -10   9  142.46   23.14
   5  11   0    3.63    6.36
  -5 -11   0    1.07    6.48
   5 -11   1    9.70    5.17
   5  11  -1    1.96    6.36
  -5 -11  -1    2.44    5.95
  -5 -11   1    6.42    6.66
  -5  11  -1   -7.67    5.41
   5 -11   2   10.05    5.12
   5  11  -2   10.94    6.25
  -5 -11   2    5.12    5.59
   5 -11   3    0.77    4.70
   5  11  -3    2.14    6.01
  -5 -11   3    1.90    5.41
  -5  11  -3   -5.77    5.23
   5 -11   4   22.07    6.42
   5  11  -4   50.68   10.29
  -5 -11   4   34.20    7.91
  -5  11  -4   15.05    5.89
   5 -11   5   -5.35    5.29
   5  11  -5   -2.02    5.65
  -5 -11   5   -6.13    6.13
  -5  11  -5   -0.48    5.41
   5 -11   6    5.65    5.47
   5  11  -6    4.58    5.89
  -5 -11   6   -7.14    6.19
  -5  11  -6   -8.92    5.89
   5  11  -7    3.63    6.36
  -5 -11   7   -5.41    6.31
   5  11  -8   17.84    7.08
  -5 -11   8   -0.30    6.25
   5  11  -9    9.04    6.19
  -5 -11   9    5.00    6.19
   5  11 -10   -1.61    5.59
   5  12   0   -9.10    6.01
  -5 -12   0    3.45    6.31
   5 -12   1   17.07    5.95
   5  12  -1   34.68    8.62
  -5 -12  -1   15.35    6.48
  -5 -12   1   25.64    7.91
  -5  12  -1   22.13    6.54
   5  12  -2    6.31    6.36
  -5 -12   2    6.66    5.65
  -5  12  -2    7.32    5.89
   5 -12   3  132.59   21.24
   5  12  -3  153.05   24.63
  -5 -12   3  141.15   22.84
  -5  12  -3  146.09   23.38
   5 -12   4   24.09    7.14
   5  12  -4   11.48    6.25
  -5 -12   4   26.95    7.32
  -5  12  -4   34.14    7.91
   5 -12   5   18.08    6.31
   5  12  -5    5.65    5.83
  -5 -12   5   16.06    6.31
  -5  12  -5    7.91    5.95
   5 -12   6    9.70    6.07
   5  12  -6    1.37    6.31
  -5 -12   6   13.03    6.96
  -5  12  -6   15.35    6.60
   5 -12   7    2.80    5.89
   5  12  -7   -2.38    6.54
  -5 -12   7   10.71    7.08
  -5  12  -7   -0.65    6.07
   5  12  -8    6.48    6.84
  -5 -12   8   -0.12    6.66
   5  12  -9    2.14    5.83
  -5 -12   9   11.30    6.48
   5  12 -10    8.45    5.71
  -5 -12  10    3.09    5.41
   5  13   0    0.42    5.83
  -5 -13   0    5.12    6.42
   5 -13   1    5.41    5.59
   5  13  -1   11.06    6.66
  -5 -13  -1   19.57    6.66
  -5 -13   1    6.48    6.66
  -5  13  -1    8.03    5.71
   5 -13   2    5.53    5.77
   5  13  -2   -2.97    6.42
  -5 -13   2    8.74    6.60
  -5  13  -2    9.52    6.42
   5 -13   3   48.24    9.40
   5  13  -3   48.78    9.81
  -5 -13   3   48.36    9.81
  -5  13  -3   45.86    9.40
   5 -13   4   25.40    6.96
   5  13  -4   20.16    6.90
  -5 -13   4   37.24    8.68
  -5  13  -4   16.30    6.54
   5 -13   5    9.28    6.48
   5  13  -5   -3.15    6.31
  -5 -13   5    7.97    6.19
  -5  13  -5   -4.94    6.36
   5 -13   6  442.43   68.23
   5  13  -6  392.35   60.97
  -5 -13   6  431.37   66.80
  -5  13  -6  396.69   61.39
   5 -13   7    1.61    6.48
   5  13  -7   -4.34    6.96
  -5 -13   7    7.08    7.02
  -5  13  -7   -6.36    6.66
   5  13  -8    6.78    6.42
  -5 -13   8    3.33    6.42
  -5  13  -8   13.68    6.54
   5  13  -9    5.83    5.59
  -5 -13   9   -4.34    5.59
   5  14   0   -4.70    5.77
  -5 -14   0    4.76    6.54
   5 -14   1    3.15    5.71
   5  14  -1   -1.07    6.25
  -5 -14  -1    1.78    6.01
  -5 -14   1   -0.89    6.48
  -5  14  -1   -6.96    5.77
   5 -14   2    6.90    6.13
   5  14  -2   -7.32    6.42
  -5 -14   2   -4.22    6.66
  -5  14  -2   -4.58    6.36
   5 -14   3   24.69    7.20
   5  14  -3   18.20    6.72
  -5 -14   3   15.47    6.60
  -5  14  -3   23.38    7.20
   5 -14   4    3.15    5.95
   5  14  -4    0.12    6.42
  -5 -14   4    8.92    6.36
  -5  14  -4   -2.50    6.01
   5 -14   5  204.92   32.54
   5  14  -5  116.65   19.63
  -5 -14   5  149.72   24.39
  -5  14  -5  205.63   32.66
   5 -14   6    2.56    6.90
   5  14  -6    6.60    6.60
  -5 -14   6   13.74    7.20
  -5  14  -6    0.95    6.78
   5 -14   7   15.35    6.78
   5  14  -7   -0.54    6.48
  -5 -14   7    0.00    6.84
  -5  14  -7    1.67    6.42
   5 -14   8    1.96    5.47
   5  14  -8    4.46    5.95
  -5 -14   8   -7.73    5.95
  -5  14  -8   -3.39    5.71
   5  14  -9   10.17    6.54
   5  15   0   -5.35    6.19
  -5 -15   0   -4.82    6.96
   5 -15   1    5.23    6.54
   5  15  -1    6.96    6.90
  -5 -15  -1   -0.65    6.60
  -5 -15   1   19.57    7.91
  -5  15  -1    0.89    6.13
   5 -15   2   11.72    7.02
   5  15  -2   18.92    7.61
  -5 -15   2   11.54    7.49
  -5  15  -2   11.30    6.90
   5 -15   3   -0.36    6.01
   5  15  -3   -0.42    6.48
  -5 -15   3    6.96    6.42
  -5  15  -3    1.37    6.19
   5 -15   4  348.45   54.07
   5  15  -4  369.74   57.46
  -5 -15   4  319.96   49.97
  -5  15  -4  454.09   70.13
   5 -15   5   -1.25    6.25
   5  15  -5    1.13    6.42
  -5 -15   5    1.25    6.42
  -5  15  -5   -5.23    6.54
   5 -15   6   20.64    7.61
   5  15  -6   24.45    7.49
  -5 -15   6   12.97    6.72
  -5  15  -6   25.87    8.09
   5 -15   7    6.19    5.89
   5  15  -7   -1.31    6.13
  -5 -15   7    0.65    6.13
  -5  15  -7   11.48    6.36
   5 -15   8   17.01    6.07
   5  15  -8   24.03    7.32
  -5 -15   8   12.31    6.36
  -5  15  -8   11.24    5.89
   5  16   0    0.89    6.60
  -5 -16   0   -3.99    7.26
   5 -16   1  378.19   58.59
   5  16  -1  358.08   55.74
  -5 -16  -1  314.19   48.95
  -5 -16   1  393.95   61.27
  -5  16  -1  368.91   57.10
   5 -16   2   13.32    7.44
   5  16  -2    3.81    7.08
  -5 -16   2    7.85    7.67
  -5  16  -2    2.68    7.14
   5 -16   3   10.53    6.90
   5  16  -3   12.73    7.20
  -5 -16   3    9.58    7.02
  -5  16  -3    7.02    6.96
   5 -16   4    7.20    6.54
   5  16  -4    6.96    6.54
  -5 -16   4   -3.15    6.48
  -5  16  -4    6.31    6.72
   5 -16   5   -6.19    5.95
   5  16  -5   -2.74    6.07
  -5 -16   5   -5.59    6.31
  -5  16  -5    0.95    6.31
   5 -16   6   -3.81    6.07
   5  16  -6   -0.83    5.59
  -5 -16   6  -16.95    6.01
  -5  16  -6   -5.17    6.19
   5 -16   7   -0.18    5.47
   5  16  -7   -0.36    5.29
  -5 -16   7   -1.72    5.89
  -5  16  -7    6.36    5.77
   5  17   0    4.82    6.60
  -5 -17   0    2.26    7.20
   5 -17   1    1.55    7.02
   5  17  -1   10.17    6.96
  -5 -17  -1   -1.13    6.78
  -5 -17   1   -1.19    7.49
  -5  17  -1   -5.77    6.60
   5 -17   2    4.88    7.26
   5  17  -2    6.01    7.02
  -5 -17   2    7.79    7.61
  -5  17  -2    9.52    7.26
   5 -17   3    1.07    6.13
   5  17  -3    2.56    6.31
  -5 -17   3    6.66    6.42
  -5  17  -3    0.48    6.54
   5 -17   4    9.64    6.07
   5  17  -4    8.62    6.31
  -5 -17   4    3.81    5.95
  -5  17  -4   -3.69    6.19
   5 -17   5    2.08    5.59
   5  17  -5   -0.59    5.53
  -5 -17   5    2.20    5.65
  -5  17  -5    4.10    5.95
   5 -17   6   -0.24    5.89
   5  17  -6    1.31    5.35
  -5 -17   6    1.43    5.29
  -5  17  -6    4.58    5.35
   5  18   0    0.65    6.07
  -5 -18   0  -12.02    6.90
   5 -18   1   37.65    8.98
   5  18  -1   17.96    7.55
  -5 -18  -1   19.57    7.02
  -5 -18   1   30.57    8.80
  -5  18  -1    9.46    6.19
   5 -18   2   -3.15    6.54
   5  18  -2   -0.36    6.60
  -5 -18   2   -6.72    6.84
  -5  18  -2    6.78    6.48
   5 -18   3    3.51    5.65
   5  18  -3    0.42    6.42
  -5 -18   3    1.49    5.77
  -5  18  -3   -3.03    6.48
   5 -18   4   22.01    6.78
   5  18  -4    3.57    5.65
  -5 -18   4   -3.51    5.35
  -5  18  -4    0.12    5.71
   5  19   0    1.67    5.47
  -5 -19   0    2.91    6.36
   5 -19   1    3.93    5.89
   5  19  -1   -3.57    6.01
  -5 -19  -1    6.96    5.95
  -5 -19   1    4.64    6.48
  -5  19  -1    4.76    5.47
   5 -19   2    8.86    6.13
   5  19  -2   -3.21    6.19
  -5 -19   2    7.79    6.72
  -5  19  -2    2.91    6.07
   6   0   0 1127.79  172.14
  -6   0   0  636.46   97.37
  -6   0   1  189.15   29.74
   6   0  -1  120.57   19.57
  -6   0   2   14.28    6.31
   6   0  -2    6.90    5.77
   6   1   0  194.98   30.87
  -6  -1   0  180.05   28.61
   6  -1   0  199.50   30.99
  -6   1   0  260.89   40.33
  -6   1   1   17.90    6.19
   6   1  -1   10.05    6.60
  -6  -1   1   12.73    6.72
   6  -1  -1    5.29    5.35
   6   1  -2  119.74   19.63
  -6  -1   2   95.11   16.24
   6   2   0   15.70    7.85
  -6  -2   0    7.85    8.21
   6  -2   0   -2.44    4.16
  -6   2   0    8.92    4.70
   6   2  -1   43.96    9.70
  -6  -2   1   46.63   10.23
   6   2  -2   29.62    8.27
  -6  -2   2   24.98    7.97
   6   2  -3    1.67    5.71
  -6  -2   3    6.36    6.31
   6   3   0  678.10  103.92
  -6  -3   0  582.69   89.52
   6   3  -1    2.08    6.66
  -6  -3   1    5.47    7.32
  -6  -3   2  990.98  151.50
  -6  -3   3    5.29    6.36
   6   3  -4   47.47   10.11
  -6  -3   4   63.94   11.84
  -6  -4   0    9.70    7.91
  -6  -4   1   -3.63    6.84
   6   4  -2    2.74    6.60
  -6  -4   2   -0.54    6.72
   6   4  -3   -7.61    7.02
  -6  -4   3   -3.57    6.72
   6   4  -4    1.67    6.90
  -6  -4   4    0.00    6.25
   6   4  -5    2.86    6.36
  -6  -4   5   -7.67    5.95
   6   5   0  376.35   58.35
  -6  -5   0  347.91   54.01
   6  -5   1   74.29   11.72
  -6  -5   1  102.85   17.25
   6   5  -2  386.10   59.72
  -6  -5   2  423.10   65.25
   6   5  -3   13.26    7.55
  -6  -5   3   18.44    7.32
   6   5  -4   24.86    8.39
  -6  -5   4   19.39    7.20
   6   5  -5    1.01    5.65
  -6  -5   5   10.17    6.48
   6   6   0   24.74    9.04
  -6  -6   0   19.93    8.03
   6  -6   1   -2.20    3.51
   6   6  -1   -2.50    7.38
  -6  -6  -1   -4.58    6.48
  -6  -6   1   -4.52    6.19
  -6   6  -1    6.36    3.81
   6  -6   2    6.19    4.10
   6   6  -2   -2.50    7.38
  -6  -6   2   -2.91    6.31
   6   6  -3   12.97    7.91
  -6  -6   3    7.08    6.42
   6   6  -4   -0.42    6.72
  -6  -6   4   10.59    6.90
   6   6  -5    8.27    6.42
  -6  -6   5    2.26    5.77
   6   6  -6   -3.63    5.47
  -6  -6   6   -3.21    5.77
   6   7   0   11.30    8.21
  -6  -7   0    0.71    7.32
   6  -7   1    1.01    4.40
   6   7  -1   20.11    8.98
  -6  -7  -1  -13.92    6.78
  -6  -7   1   -3.03    7.55
   6  -7   2   66.32   11.12
   6   7  -2   58.11   12.13
  -6  -7   2   58.23   11.24
  -6   7  -2   72.09   12.07
   6  -7   3   -2.20    4.16
   6   7  -3    6.54    7.26
  -6  -7   3    7.79    6.36
  -6   7  -3    2.56    4.40
   6   7  -4   11.24    6.66
  -6  -7   4   18.86    7.26
   6   7  -5   -5.47    5.71
  -6  -7   5   -2.62    5.95
   6   7  -6    2.56    5.83
  -6  -7   6    0.48    5.35
   6   7  -7    3.33    5.77
   6   8   0   41.82   10.53
  -6  -8   0   30.46    8.74
   6  -8   1    3.33    4.88
   6   8  -1   25.52    9.40
  -6  -8  -1   10.05    6.78
  -6  -8   1    7.26    7.38
  -6   8  -1    5.59    4.94
   6  -8   2   16.54    5.35
   6   8  -2   12.02    7.44
  -6  -8   2   14.39    6.60
  -6   8  -2    3.69    4.70
   6  -8   3  119.14   18.92
   6   8  -3  137.29   22.31
  -6  -8   3  119.32   19.69
  -6   8  -3  170.18   26.59
   6   8  -4   25.87    7.49
  -6  -8   4   20.05    7.08
   6   8  -5    9.76    6.36
   6   8  -6   12.43    6.01
   6   8  -7  254.17   39.67
  -6  -8   7  263.21   41.10
   6   8  -8    3.21    5.83
   6   9   0   21.83    7.61
  -6  -9   0    4.46    6.96
   6  -9   1   -1.55    4.64
   6   9  -1    9.16    6.90
  -6  -9  -1  -20.05    6.90
   6   9   1  -10.23    6.25
  -6  -9   1    0.48    7.14
  -6   9  -1    0.71    4.94
   6  -9   2    2.91    4.46
   6   9  -2    4.58    5.83
  -6  -9   2   -2.86    5.17
  -6   9  -2   -4.70    4.82
   6  -9   3   -1.31    4.58
   6   9  -3    2.86    5.65
  -6   9  -3   -2.68    4.70
   6  -9   4   -1.01    4.46
   6   9  -4    4.16    5.77
  -6   9  -4    7.44    4.82
   6   9  -5    0.30    5.59
  -6  -9   5   -3.39    6.01
   6   9  -6   -1.78    5.77
  -6  -9   6    7.79    5.77
   6   9  -7    1.49    5.71
  -6  -9   7   11.84    6.01
   6   9  -8   -8.57    5.95
  -6  -9   8    6.66    5.89
   6   9  -9   11.06    6.13
   6  10   0   46.34    9.81
   6 -10   1   -1.01    4.58
   6  10  -1    7.20    6.78
  -6 -10  -1   -2.80    5.71
   6  10   1   -5.00    5.77
  -6  10  -1   -5.71    4.82
   6  10  -2   36.82    8.45
  -6  10  -2   40.45    8.21
   6 -10   3    2.97    4.40
   6  10  -3    6.31    5.83
  -6 -10   3    5.89    5.59
  -6  10  -3   10.83    5.29
   6 -10   4    9.81    5.06
   6  10  -4    2.14    5.47
  -6 -10   4   -1.49    5.71
  -6  10  -4   10.41    5.12
   6 -10   5    7.97    4.88
   6  10  -5    3.69    5.95
  -6 -10   5    2.86    6.01
  -6  10  -5    0.36    4.76
   6  10  -6    3.27    5.89
  -6 -10   6   -5.23    6.13
   6  10  -7   12.49    6.54
  -6 -10   7   -2.62    6.19
   6  10  -8    0.30    6.13
  -6 -10   8   -5.00    6.31
   6  10  -9   79.53   14.16
  -6 -10   9   60.79   11.72
   6  11   0    7.67    6.42
  -6 -11   0    2.91    5.53
   6 -11   1    5.41    4.82
   6  11  -1    7.55    6.42
   6  11   1   -0.24    5.83
  -6 -11   1    8.62    6.90
  -6  11  -1    4.70    5.17
   6 -11   2    7.97    4.58
   6  11  -2    8.51    6.07
  -6 -11   2    3.09    5.65
   6 -11   3    4.22    4.46
   6  11  -3    1.37    5.83
  -6 -11   3   12.37    5.95
  -6  11  -3    4.34    5.17
   6 -11   4  -10.35    5.06
   6  11  -4   -3.81    5.53
  -6 -11   4   12.91    5.95
  -6  11  -4   -0.77    5.06
   6 -11   5   -0.59    4.94
   6  11  -5    3.87    5.77
  -6 -11   5   -1.01    5.89
  -6  11  -5    6.48    5.35
   6  11  -6    3.33    6.31
  -6 -11   6    7.91    6.78
  -6  11  -6   -4.88    5.53
   6  11  -7    2.91    6.42
  -6 -11   7    5.59    6.66
   6  11  -8   10.53    6.60
  -6 -11   8   14.87    7.02
   6  11  -9    3.09    6.07
  -6 -11   9    0.65    6.25
   6  11 -10    2.91    5.53
  -6 -11  10   -4.04    5.29
   6  12   0   14.28    6.48
  -6 -12   0   10.59    6.66
   6  12  -1   27.96    7.97
  -6 -12  -1    6.42    6.13
   6  12   1    6.13    5.83
  -6 -12   1   10.83    6.54
  -6  12  -1   25.34    6.66
   6  12  -2   14.22    6.72
  -6 -12   2   12.97    6.01
  -6  12  -2   -2.08    5.65
   6 -12   3   -3.27    4.64
   6  12  -3    9.76    6.01
  -6 -12   3    0.24    5.59
  -6  12  -3    0.42    5.29
   6 -12   4   11.72    5.95
   6  12  -4    0.48    5.83
  -6 -12   4   12.07    5.83
  -6  12  -4   -9.40    5.41
   6 -12   5   12.73    6.07
   6  12  -5    0.89    5.83
  -6 -12   5   13.26    6.60
   6 -12   6    0.54    5.83
   6  12  -6   -5.95    6.72
  -6 -12   6   -0.12    6.66
  -6  12  -6   10.11    6.25
   6  12  -7   75.90   14.04
  -6 -12   7   76.08   14.10
  -6  12  -7   93.92   15.94
   6  12  -8    2.32    6.42
  -6 -12   8  -10.29    6.54
   6  12  -9    1.49    5.59
  -6 -12   9    3.63    5.77
   6  13   0  113.43   18.92
  -6 -13   0  160.19   25.82
   6 -13   1   11.30    5.59
   6  13  -1   14.39    6.96
  -6 -13  -1   -6.07    5.95
   6  13   1   -0.36    5.65
  -6 -13   1   -8.98    6.54
  -6  13  -1   -3.63    5.29
   6  13  -2  398.12   61.68
  -6 -13   2  527.79   81.49
  -6  13  -2  351.48   54.31
   6 -13   3    1.07    5.17
   6  13  -3   13.86    6.48
  -6 -13   3    6.42    6.01
  -6  13  -3    6.48    5.65
   6 -13   4   66.26   11.96
   6  13  -4   77.98   13.98
  -6 -13   4   66.62   12.49
  -6  13  -4   57.64   11.12
   6 -13   5   17.84    6.96
   6  13  -5   19.51    7.20
  -6 -13   5   16.71    6.78
  -6  13  -5   14.63    7.08
   6 -13   6   39.62    8.92
   6  13  -6   57.28   11.42
  -6 -13   6   43.90   10.11
  -6  13  -6   33.19    8.33
   6 -13   7   47.76    9.93
   6  13  -7   32.18    8.92
  -6 -13   7   42.17    9.81
  -6  13  -7   41.16    9.46
   6  13  -8   11.60    6.54
  -6 -13   8   -2.97    6.42
   6  13  -9    8.39    6.19
  -6 -13   9   -4.76    5.41
   6  14   0   16.71    6.84
  -6 -14   0   10.05    7.20
   6 -14   1   -7.55    5.77
   6  14  -1    4.52    6.36
  -6 -14  -1    2.32    6.60
   6  14   1    7.38    6.07
  -6 -14   1    0.65    6.90
  -6  14  -1   12.97    6.54
   6 -14   2    3.33    6.07
   6  14  -2  -12.31    6.78
  -6 -14   2   -3.45    6.90
  -6  14  -2   -1.49    6.84
   6 -14   3    1.78    5.59
   6  14  -3    6.13    6.48
  -6 -14   3    7.26    6.42
  -6  14  -3   -0.24    6.36
   6 -14   4    2.97    6.01
   6  14  -4    0.71    6.31
  -6 -14   4   -7.14    6.42
  -6  14  -4   11.90    6.78
   6 -14   5    8.51    6.90
   6  14  -5   -2.97    6.48
  -6 -14   5   21.89    7.32
  -6  14  -5   13.26    7.20
   6 -14   6   18.02    7.32
   6  14  -6   10.77    7.02
  -6 -14   6   16.00    6.96
  -6  14  -6    6.36    6.78
   6 -14   7    1.49    6.01
   6  14  -7   10.41    6.78
  -6 -14   7    6.90    6.96
  -6  14  -7   12.79    6.66
   6 -14   8    5.29    5.35
   6  14  -8   -7.49    5.89
  -6 -14   8    0.65    5.89
  -6  14  -8    3.99    5.53
   6  15   0   19.27    7.32
  -6 -15   0   17.01    7.61
   6 -15   1  -10.89    6.48
   6  15  -1   -0.54    6.84
  -6 -15  -1    9.52    6.48
   6  15   1   -3.03    6.42
  -6 -15   1    3.87    7.14
  -6  15  -1    3.81    6.42
   6 -15   2   11.18    7.20
   6  15  -2   11.18    7.49
  -6 -15   2   14.63    7.85
  -6  15  -2    4.88    7.20
   6 -15   3    6.96    6.42
   6  15  -3   16.54    7.26
  -6 -15   3    9.76    6.78
  -6  15  -3   21.65    7.67
   6 -15   4    8.45    6.54
   6  15  -4   10.94    7.08
  -6 -15   4   11.96    7.08
  -6  15  -4    8.51    6.90
   6 -15   5   17.90    7.97
   6  15  -5   -1.61    6.90
  -6 -15   5   13.68    6.96
  -6  15  -5   28.55    8.03
   6 -15   6    7.38    6.13
   6  15  -6   -0.06    6.07
  -6 -15   6   -8.86    6.07
  -6  15  -6  -14.93    6.84
   6 -15   7    3.93    5.77
   6  15  -7   -2.32    6.01
  -6 -15   7    8.68    6.31
  -6  15  -7    1.25    5.95
   6  16   0   23.38    8.03
  -6 -16   0   40.15    9.87
   6 -16   1   33.07    8.74
   6  16  -1   36.64    9.70
  -6 -16  -1   19.15    7.67
   6  16   1   20.40    7.38
  -6 -16   1   41.82   10.29
  -6  16  -1   39.79    9.04
   6 -16   2    5.77    7.26
   6  16  -2   -3.21    7.61
  -6 -16   2   16.42    8.15
  -6  16  -2   10.94    7.38
   6 -16   3   26.17    7.97
   6  16  -3    9.87    7.38
  -6 -16   3   28.19    8.21
   6 -16   4   10.83    6.60
   6  16  -4    1.07    6.54
  -6 -16   4   -1.90    6.36
  -6  16  -4   13.74    6.72
   6 -16   5   31.17    7.73
   6  16  -5   20.52    6.96
  -6 -16   5   29.09    8.03
  -6  16  -5   11.72    6.60
   6 -16   6    7.38    5.95
   6  16  -6   -7.02    5.59
  -6 -16   6    8.74    5.89
  -6  16  -6    9.64    6.42
   6 -16   7   15.58    6.25
   6  16  -7    9.34    6.72
  -6 -16   7   20.52    7.79
  -6  16  -7   -1.61    5.89
   6  17   0   10.53    7.02
  -6 -17   0    8.51    7.55
   6 -17   1    0.95    6.60
   6  17  -1    1.72    6.90
  -6 -17  -1   11.66    6.90
   6  17   1    9.81    6.60
  -6 -17   1   -2.26    7.55
  -6  17  -1   -3.51    6.13
   6 -17   2   22.37    7.73
   6  17  -2   10.23    7.26
  -6 -17   2   13.68    7.79
  -6  17  -2   -0.42    6.60
   6 -17   3    4.34    5.83
   6  17  -3  -14.22    5.89
  -6 -17   3    1.19    6.01
  -6  17  -3    3.45    6.42
   6 -17   4    3.69    5.83
   6  17  -4    5.47    5.95
  -6 -17   4    8.57    6.36
  -6  17  -4    8.27    6.13
   6 -17   5   -2.80    5.06
   6  17  -5   -0.83    5.35
  -6 -17   5   -4.52    5.41
  -6  17  -5   -4.88    5.71
   6  18   0    2.56    5.95
  -6 -18   0   19.99    7.44
   6 -18   1   -6.84    6.01
   6  18  -1   -4.16    6.19
  -6 -18  -1   -1.61    5.95
   6  18   1   13.50    6.31
  -6 -18   1   -3.33    6.78
  -6  18  -1   -4.40    5.95
   6 -18   2   -4.88    6.19
   6  18  -2    0.77    6.25
  -6 -18   2   -0.59    6.60
  -6  18  -2    5.95    6.25
   6  18  -3    1.78    6.01
  -6 -18   3    2.08    5.65
  -6  18  -3    2.02    5.89
   6 -18   4    2.80    5.23
   6  18  -4   -0.06    5.47
  -6 -18   4   -0.95    5.35
  -6  18  -4   -2.86    5.65
   6  19   0   -1.96    5.89
  -6 -19   0    2.26    6.01
   6 -19   1    4.16    5.53
   6  19  -1    3.87    6.36
  -6 -19  -1   -3.75    5.83
   6  19   1    2.38    5.71
  -6 -19   1   11.42    6.66
  -6  19  -1   -3.99    5.47
  -7   0   1  112.54   18.26
   7   0  -1  115.99   18.86
  -7   0  -1   74.35   12.79
  -7   0   2   71.56   12.55
   7   0  -2   71.20   12.43
   7   1   0    3.39    6.66
  -7  -1   0    0.77    6.25
   7  -1   0   -2.50    4.94
  -7   1   0    3.45    5.23
  -7   1   1   33.73    7.38
   7   1  -1   35.81    8.27
  -7  -1  -1   27.42    7.32
  -7  -1   1   28.67    7.32
   7  -1  -1   20.46    6.07
   7   1  -2   33.13    8.09
  -7  -1   2   18.92    6.72
   7   1  -3   18.08    6.48
  -7  -1   3   18.32    6.54
   7   2   0    3.15    6.90
  -7  -2   0  -18.97    7.79
  -7   2   0    1.67    4.28
   7   2  -1    7.85    6.36
  -7  -2  -1    2.62    6.42
   7   2   1   14.75    6.60
  -7  -2   1   -6.19    6.25
   7   2  -2   10.94    6.84
  -7  -2   2   18.14    7.14
   7   2  -3    0.42    6.66
  -7  -2   3   20.16    6.84
   7   2  -4   79.17   13.92
   7   3   0   -2.62    7.44
  -7  -3   0  -10.53    7.55
   7  -3   0   -6.07    3.39
  -7   3   0   -1.43    3.39
   7   3  -1  362.37   55.97
  -7  -3  -1  272.31   42.35
   7   3   1  231.21   36.11
  -7  -3   1  372.60   57.52
   7   3  -2  107.25   18.08
  -7  -3   2   91.78   15.64
   7   3  -3   -0.06    6.84
  -7  -3   3    4.70    6.01
  -7  -3   4   86.43   14.81
   7   4   0    6.90    7.97
  -7  -4   0    3.87    7.32
   7   4  -1   -0.54    6.90
  -7  -4  -1   -5.83    6.60
   7   4   1    7.38    7.08
  -7  -4   1   11.06    6.36
  -7  -4   2   -8.98    6.25
  -7  -4   3   13.62    7.02
   7   4  -4    3.15    6.13
  -7  -4   4    0.30    6.31
   7   4  -5    5.77    5.89
  -7  -4   5   -0.71    5.65
  -7  -5   0   -3.39    6.84
   7  -5   1   49.85    7.85
  -7  -5  -1   42.47    9.52
  -7   5  -1   81.37   12.61
  -7  -5   2   55.68   10.94
   7   5  -3   62.04   12.43
  -7  -5   3   52.40   10.94
   7   5  -4   10.47    7.02
  -7  -5   4    2.80    6.54
   7   5  -5   15.52    6.31
  -7  -5   5   11.18    6.13
   7   5  -6   13.03    6.01
  -7  -5   6   15.52    5.77
   7   6   0    6.72    7.79
  -7  -6   0    3.69    7.32
   7  -6   1    5.12    2.80
   7   6  -1    7.73    7.67
  -7  -6  -1    0.18    6.36
  -7  -6   1    9.64    6.42
  -7   6  -1    7.61    3.09
   7   6  -2   -4.64    7.20
  -7  -6   2    7.73    6.42
  -7   6  -2    4.58    3.51
   7   6  -3    7.91    7.08
  -7  -6   3   12.85    6.54
   7   6  -4   -6.48    6.36
  -7  -6   4    1.37    6.25
   7   6  -5    0.83    5.89
  -7  -6   5   -0.18    5.83
   7   6  -6    3.87    5.65
  -7  -6   6   -0.42    5.23
   7   6  -7    6.84    5.29
   7   7   0    4.10    8.09
  -7  -7   0    6.31    7.32
   7  -7   1   57.58    9.58
   7   7  -1   33.67   10.05
  -7  -7  -1   34.20    8.62
   7   7   1   58.29   11.78
  -7  -7   1   57.64   11.66
  -7   7  -1   41.52    7.26
   7  -7   2    3.87    3.87
   7   7  -2   10.53    7.44
  -7  -7   2    2.26    6.48
   7   7  -3   22.96    7.08
  -7  -7   3   17.07    6.84
   7   7  -4    4.94    6.66
  -7  -7   4   12.19    6.78
   7   7  -5   60.20   11.30
  -7  -7   5   45.39    9.46
   7   7  -6   13.68    6.19
  -7  -7   6   14.45    6.31
   7   7  -7    1.01    5.65
  -7  -7   7   -0.77    5.47
   7   8   0    6.25    6.90
  -7  -8   0  -12.97    7.20
   7  -8   1   66.32   11.06
   7   8  -1  112.84   19.09
  -7  -8  -1   66.14   12.31
   7   8   1   55.85   11.06
  -7  -8   1   87.97   15.64
  -7   8  -1   58.95    9.81
   7   8  -2   -0.24    6.07
  -7  -8   2    2.80    5.95
   7  -8   3  156.44   24.39
   7   8  -3  159.00   25.52
  -7  -8   3  142.16   23.08
  -7   8  -3  169.94   26.47
   7   8  -4  131.22   21.29
  -7  -8   4  126.64   20.88
   7   8  -5   57.64   11.18
  -7  -8   5   55.62   10.71
   7   8  -6   17.01    6.54
  -7  -8   6   16.83    6.54
   7   8  -7   -3.09    5.89
   7   8  -8   18.92    6.66
   7   9   0    2.62    6.60
  -7  -9   0  -13.21    6.90
   7  -9   1    0.12    3.93
   7   9  -1    3.21    6.90
  -7  -9  -1   -1.67    6.07
   7   9   1   -4.04    6.19
  -7  -9   1    5.12    6.84
  -7   9  -1   -2.50    4.34
   7  -9   2    7.91    4.04
   7   9  -2    2.02    5.65
  -7  -9   2   -2.74    5.59
  -7   9  -2   -0.95    4.52
   7  -9   3   -0.24    4.16
   7   9  -3    0.54    5.41
  -7  -9   3    0.30    5.71
  -7   9  -3    2.86    4.58
   7  -9   4    3.81    4.10
   7   9  -4   -8.57    5.71
  -7  -9   4   -0.71    5.83
  -7   9  -4   -4.16    4.40
   7   9  -5   -0.48    6.13
   7   9  -6    1.01    6.01
   7   9  -7    0.89    5.89
  -7  -9   7    1.37    5.00
   7   9  -8    3.69    6.25
  -7  -9   8   10.11    6.48
   7   9  -9   -3.03    6.19
   7  10   0   -3.51    6.07
  -7 -10   0    8.86    6.78
   7 -10   1    5.23    4.10
   7  10  -1    5.06    6.42
  -7 -10  -1   17.07    6.66
   7  10   1   22.07    6.78
  -7 -10   1    3.93    6.60
  -7  10  -1   14.81    5.00
   7 -10   2    0.59    3.87
   7  10  -2   14.34    6.25
  -7 -10   2    5.65    5.95
   7 -10   3   29.86    6.78
   7  10  -3   44.25    9.34
  -7  10  -3   41.52    8.09
   7 -10   4    4.58    4.40
   7  10  -4   19.09    6.60
  -7  10  -4    3.15    4.52
   7  10  -5   13.38    6.60
  -7 -10   5    6.19    4.88
  -7  10  -5    4.16    4.70
   7  10  -6   23.20    7.38
  -7 -10   6   34.44    8.57
   7  10  -7   19.21    7.20
  -7 -10   7   23.50    7.49
   7  10  -8    2.91    6.48
  -7 -10   8   11.42    6.66
   7  10  -9   11.48    6.60
  -7 -10   9    5.06    6.19
   7  10 -10    5.47    5.59
   7  11   0   -6.13    6.13
  -7 -11   0   -6.60    5.71
   7 -11   1    2.74    4.46
   7  11  -1    2.56    6.48
  -7 -11  -1   13.32    6.31
   7  11   1    7.61    6.07
  -7  11  -1   -4.22    4.64
   7 -11   2    4.28    4.28
   7  11  -2    1.01    5.65
   7 -11   3    0.24    4.10
   7  11  -3    6.96    5.77
  -7 -11   3    1.25    4.88
  -7  11  -3    3.75    4.76
   7 -11   4    0.12    4.64
   7  11  -4    4.34    5.41
  -7 -11   4    1.07    5.41
  -7  11  -4   -0.89    4.82
   7 -11   5    1.07    5.00
   7  11  -5    3.75    5.59
  -7 -11   5    8.57    5.77
  -7  11  -5    2.20    5.12
   7  11  -6   14.99    6.96
  -7 -11   6    9.70    6.66
   7  11  -7   -8.45    6.66
  -7 -11   7    2.14    6.90
   7  11  -8    0.95    6.60
  -7 -11   8    3.27    6.36
   7  11  -9    1.37    6.19
  -7 -11   9    7.79    6.25
   7  11 -10    6.90    5.65
  -7 -11  10    3.27    5.41
   7  12   0    8.39    6.48
   7 -12   1   22.19    5.83
   7  12  -1   35.87    8.92
   7  12   1   16.83    6.60
  -7 -12   1   37.41    8.86
  -7  12  -1   24.80    6.19
   7  12  -2   23.38    7.44
  -7 -12   2    7.67    5.77
  -7  12  -2   12.31    5.71
   7 -12   3   11.66    5.06
   7  12  -3   10.05    5.89
  -7 -12   3   11.48    6.13
  -7  12  -3   19.09    5.95
   7 -12   4  115.81   18.80
   7  12  -4   99.51   16.83
  -7 -12   4  114.74   19.09
  -7  12  -4  133.30   21.53
   7 -12   5    3.57    5.35
   7  12  -5    4.10    5.95
  -7 -12   5    4.76    5.83
  -7  12  -5    5.53    6.01
   7 -12   6    5.47    5.83
   7  12  -6   -0.48    6.84
  -7 -12   6    1.25    6.78
  -7  12  -6    3.15    5.83
   7  12  -7    9.40    6.96
  -7 -12   7    8.45    6.96
   7  12  -8    8.21    6.54
  -7 -12   8    9.52    6.72
   7  12  -9   14.22    6.42
  -7 -12   9    1.67    5.77
   7  13   0    8.39    6.19
  -7 -13   0   11.36    6.90
   7 -13   1  189.27   29.62
   7  13  -1  142.82   23.38
  -7 -13  -1  130.92   21.41
   7  13   1  168.16   26.83
  -7 -13   1  171.55   27.60
  -7  13  -1  161.32   25.46
   7  13  -2   44.97    9.99
  -7  13  -2   49.01    9.81
   7 -13   3   16.18    5.65
   7  13  -3    7.02    6.01
  -7 -13   3    2.86    6.07
  -7  13  -3    4.52    5.65
   7 -13   4   90.06   15.17
   7  13  -4   69.71   12.91
  -7 -13   4   70.07   12.97
  -7  13  -4   67.87   12.43
   7  13  -5   94.46   16.48
  -7 -13   5   82.92   14.87
  -7  13  -5   51.75   10.41
   7 -13   6   26.11    7.55
   7  13  -6    9.58    6.36
  -7 -13   6   21.77    8.33
  -7  13  -6    4.10    6.42
   7 -13   7    5.89    5.77
   7  13  -7    4.82    6.66
  -7 -13   7   -0.65    6.66
  -7  13  -7   -1.37    6.01
   7  13  -8   33.37    8.39
  -7 -13   8   15.88    6.84
   7  13  -9   18.08    6.72
  -7 -13   9    5.59    6.13
   7  14   0  -11.84    6.66
  -7 -14   0   -1.96    6.72
   7 -14   1    2.26    5.53
   7  14  -1    7.02    6.96
  -7 -14  -1   14.39    6.72
   7  14   1   -1.01    6.13
  -7 -14   1    1.37    7.02
  -7  14  -1   -2.32    5.83
   7 -14   2   10.23    6.13
   7  14  -2   -9.34    6.84
  -7 -14   2    6.42    7.20
  -7  14  -2   -5.23    6.60
   7 -14   3   17.61    6.42
   7  14  -3   20.82    7.38
  -7 -14   3   10.11    6.60
  -7  14  -3   17.61    6.78
   7 -14   4    4.16    5.77
   7  14  -4    5.35    6.72
  -7 -14   4    9.52    6.66
  -7  14  -4    0.00    6.36
   7 -14   5    4.40    6.36
   7  14  -5    4.58    6.84
  -7 -14   5    4.82    6.42
  -7  14  -5    6.25    6.66
   7 -14   6   -1.43    6.13
   7  14  -6   -7.67    6.48
  -7 -14   6    7.38    6.31
  -7  14  -6   -7.67    6.60
   7 -14   7   -3.63    5.47
   7  14  -7  -11.42    6.36
  -7 -14   7   -8.15    6.48
  -7  14  -7   -0.24    5.83
   7  14  -8   -0.89    5.89
  -7 -14   8    4.82    5.83
  -7  14  -8   -2.02    5.35
   7  15   0   -7.55    6.78
  -7 -15   0   -0.30    7.20
   7 -15   1   22.01    7.20
   7  15  -1   31.76    9.10
  -7 -15  -1   13.09    7.08
   7  15   1   22.37    7.49
  -7 -15   1   12.07    7.73
  -7  15  -1   11.78    6.66
   7 -15   2   12.49    6.84
   7  15  -2    5.17    7.44
  -7 -15   2    0.24    7.44
  -7  15  -2   19.27    7.79
   7 -15   3   16.06    6.48
   7  15  -3    6.78    6.90
  -7 -15   3   24.98    7.73
  -7  15  -3   17.84    7.26
   7 -15   4    5.77    6.01
   7  15  -4   -6.72    6.78
  -7 -15   4    6.36    6.31
  -7  15  -4    4.46    6.54
   7 -15   5   -2.56    6.07
   7  15  -5   -7.49    6.48
  -7 -15   5    8.86    6.31
  -7  15  -5   -2.32    6.19
   7 -15   6    4.52    5.71
   7  15  -6   29.03    7.79
  -7 -15   6   16.66    6.54
  -7  15  -6    8.45    6.36
   7 -15   7    5.59    5.23
   7  15  -7    4.16    6.31
  -7 -15   7    8.51    5.83
  -7  15  -7    2.32    5.35
   7  16   0    2.74    6.72
  -7 -16   0    5.00    7.55
   7 -16   1   25.76    7.73
   7  16  -1   10.53    7.44
  -7 -16  -1    1.19    7.08
   7  16   1   16.89    7.14
  -7 -16   1   26.47    8.92
  -7  16  -1   13.62    7.02
   7 -16   2   -2.80    6.60
   7  16  -2    1.37    7.44
  -7 -16   2    0.59    7.14
  -7  16  -2    7.38    7.20
   7 -16   3   22.96    7.14
   7  16  -3   28.25    8.33
  -7 -16   3   22.19    7.55
  -7  16  -3   26.17    7.55
   7 -16   4   18.02    6.42
   7  16  -4   11.78    6.84
  -7 -16   4   27.72    7.97
  -7  16  -4   26.17    7.73
   7 -16   5   -1.72    5.47
   7  16  -5   14.87    6.36
  -7 -16   5   10.35    6.19
  -7  16  -5    8.74    5.83
   7 -16   6   13.62    5.95
   7  16  -6   12.61    6.31
  -7 -16   6    6.07    5.59
  -7  16  -6   17.43    6.36
   7  17   0    0.30    6.48
  -7 -17   0    8.21    7.26
   7 -17   1   11.30    6.36
   7  17  -1    9.04    6.90
  -7 -17  -1   16.18    7.14
   7  17   1   32.18    8.03
  -7 -17   1    6.13    7.02
  -7  17  -1    5.29    6.54
   7 -17   2    8.68    6.36
   7  17  -2    1.78    6.72
  -7 -17   2   -2.08    6.90
  -7  17  -2   -3.51    6.60
   7 -17   3   -0.95    5.41
   7  17  -3    5.83    5.71
  -7 -17   3   10.23    6.36
  -7  17  -3   -5.95    6.42
   7 -17   4   -4.28    5.12
   7  17  -4    1.78    5.95
  -7 -17   4    1.43    5.65
  -7  17  -4   -1.43    5.23
   7 -17   5    6.54    5.17
   7  17  -5    5.06    5.95
  -7 -17   5    3.51    5.29
  -7  17  -5    0.89    5.23
   7  18   0    3.57    6.13
  -7 -18   0    6.96    6.42
   7 -18   1    4.46    5.59
   7  18  -1   12.49    6.90
  -7 -18  -1   11.96    6.31
   7  18   1   15.35    6.42
  -7 -18   1   -3.33    6.60
  -7  18  -1   21.35    6.31
   7 -18   2   -4.34    5.53
   7  18  -2   -8.57    6.42
  -7 -18   2    0.83    6.36
  -7  18  -2    6.36    5.59
   7  18  -3    8.33    6.54
  -7 -18   3   15.41    6.31
  -7  18  -3   14.69    6.36
   8   0   1    7.26    5.71
  -8   0   1   18.68    6.25
   8   0  -1    4.88    5.71
  -8   0   2  459.68   70.55
   8   0  -2  395.08   60.73
   8   1   0    8.27    6.96
  -8  -1   0    2.68    6.42
   8  -1   0    2.26    4.88
  -8   1   0    5.59    4.82
   8  -1   1  135.20   21.41
  -8   1   1  103.08   16.77
   8   1  -1  160.19   25.46
   8   1   1  117.42   19.21
  -8  -1   1  134.55   21.65
   8  -1  -1  114.62   18.50
  -8   1  -1  111.89   18.02
  -8   1   2    0.24    5.06
   8   1  -2    1.90    6.07
  -8  -1   2   15.41    6.54
   8  -1  -2   -1.96    5.23
   8   1  -3   30.22    7.85
  -8  -1   3   23.08    7.08
   8   2   0  298.42   46.40
  -8  -2   0  370.40   57.28
   8  -2   0  317.87   48.78
  -8   2   0  327.99   50.32
   8  -2   1   19.33    5.35
  -8   2   1   24.09    5.89
   8   2  -1   20.64    7.26
  -8  -2  -1   12.07    6.78
   8   2   1    6.84    6.54
  -8  -2   1   26.35    7.32
   8  -2  -1   20.64    5.65
  -8   2  -1   12.19    4.94
   8   2  -2   14.63    6.96
  -8  -2   2   11.72    6.54
   8   2  -3   18.74    7.14
  -8  -2   3   16.71    6.54
   8   2  -4   51.04   10.23
  -8  -2   4   43.66    9.10
   8   3   0  102.37   17.61
  -8  -3   0   89.52   15.88
   8  -3   0   96.66   15.35
  -8   3   0   68.40   11.18
   8  -3   1    4.82    3.87
   8   3  -1   14.45    6.90
  -8  -3  -1   19.27    7.55
   8   3   1   10.29    6.90
  -8  -3   1   26.35    7.38
  -8   3  -1    3.69    3.99
   8   3  -2   14.69    7.08
  -8  -3   2   18.20    6.96
   8   3  -3  229.42   36.05
  -8  -3   3  241.68   37.77
   8   3  -4   17.49    6.90
  -8  -3   4    8.62    6.01
   8   3  -5   76.38   13.38
   8   4   0   22.90    8.62
  -8  -4   0    4.04    7.61
   8   4  -1   13.62    7.32
  -8  -4  -1   -0.54    6.84
   8   4   1    8.09    6.84
  -8  -4   1    9.58    6.48
  -8   4  -1   -1.67    3.33
   8   4  -2   31.70    8.80
  -8  -4   2   21.12    7.38
   8   4  -3   11.12    7.08
  -8  -4   3   24.03    7.67
   8   4  -4   33.96    8.21
  -8  -4   4   53.30   10.59
  -8  -4   5   -0.36    5.59
   8   5   0   -8.51    8.09
  -8  -5   0   -9.22    7.55
   8   5  -1  112.12   18.97
  -8  -5  -1  144.30   23.50
   8   5  -2   27.60    8.21
  -8  -5   2   34.68    8.39
  -8  -5   3  484.19   74.53
  -8  -5   4   42.71    9.28
   8   5  -5  332.39   51.51
  -8  -5   5  411.56   63.47
   8   5  -6  135.98   21.89
  -8  -5   6  158.82   25.22
  -8  -6   0  106.18   18.08
  -8  -6  -1    7.49    6.60
   8   6   1    7.02    7.32
  -8  -6   1   -2.20    5.89
  -8  -6   2    0.00    6.07
   8   6  -3    7.97    6.25
  -8  -6   3    7.14    5.77
   8   6  -4   12.13    6.54
  -8  -6   4    7.91    6.13
   8   6  -5   -4.22    5.77
  -8  -6   5   -1.78    5.47
   8   6  -6    1.96    5.71
  -8  -6   6    2.91    5.71
   8   6  -7   -3.63    5.41
  -8  -6   7   -4.64    5.41
  -8  -7   0   -2.26    6.90
   8  -7   1   21.53    4.28
   8   7  -1   13.68    8.51
  -8  -7   1   25.82    8.21
   8  -7   2    2.68    3.03
   8   7  -2    3.33    5.83
  -8  -7   2   -3.03    5.89
  -8   7  -2    2.44    3.63
   8   7  -3   21.24    6.78
  -8  -7   3    6.07    5.65
   8   7  -4    2.26    6.13
  -8  -7   4    2.62    5.65
   8   7  -5   36.40    8.57
  -8  -7   5   43.07    9.16
   8   7  -6    2.91    5.47
  -8  -7   6    3.33    5.59
   8   7  -7   36.76    8.51
  -8  -7   7   30.28    7.67
   8   7  -8   -3.21    5.77
   8   8   0  350.41   54.31
  -8  -8   0  353.74   54.84
   8  -8   1    6.25    3.21
   8   8  -1    6.01    6.78
  -8  -8  -1    8.74    6.13
   8   8   1   -2.50    6.07
  -8  -8   1   17.13    7.32
   8  -8   2   16.60    4.16
   8   8  -2   13.50    6.19
  -8  -8   2   25.99    7.14
   8  -8   3   76.67   12.31
   8   8  -3   83.93   14.51
  -8  -8   3   73.46   12.97
  -8   8  -3   69.71   11.42
   8   8  -4  112.84   18.68
  -8  -8   4  120.87   19.75
   8   8  -5  135.03   21.95
  -8  -8   5   98.50   16.66
   8   8  -6   76.08   13.44
  -8  -8   6   54.55   10.59
   8   8  -7   24.57    7.26
  -8  -8   7    3.51    6.07
   8   8  -8   26.23    7.67
  -8  -8   8   28.79    7.67
   8   9   0    3.99    6.36
  -8  -9   0    4.34    6.25
   8   9  -1   28.55    8.15
  -8  -9  -1   55.91   10.65
   8   9   1   61.50   11.48
  -8  -9   1   35.51    8.62
   8  -9   2    4.82    3.69
   8   9  -2   -4.76    5.53
  -8  -9   2    0.65    5.47
  -8   9  -2    5.35    4.04
   8   9  -3   50.38    9.99
  -8  -9   3   37.35    8.27
  -8   9  -3   36.22    7.08
   8   9  -4   -1.78    5.35
  -8  -9   4   10.29    5.71
  -8   9  -4    3.51    4.04
   8   9  -5   11.48    6.36
  -8  -9   5    4.82    6.13
   8   9  -6   -1.37    6.01
  -8  -9   6   -1.72    5.95
   8   9  -7    4.82    6.01
  -8  -9   7    4.52    5.65
   8   9  -8   -1.78    6.13
   8   9  -9   -0.83    6.13
  -8  -9   9    3.15    4.82
   8  10   0    6.25    6.42
  -8 -10   0    3.69    6.42
   8 -10   1   20.40    5.06
   8  10  -1   11.42    6.96
  -8 -10  -1   11.54    6.07
   8  10   1   30.75    7.61
  -8 -10   1   29.21    8.03
  -8  10  -1   17.31    5.12
   8  10  -2  107.43   17.90
  -8 -10   2  102.73   17.19
  -8  10  -2   86.37   14.10
   8 -10   3    5.95    4.34
   8  10  -3    8.21    5.77
  -8 -10   3    5.77    5.53
  -8  10  -3   -7.67    5.00
   8 -10   4  382.41   58.71
   8  10  -4  225.62   35.45
  -8 -10   4  253.93   39.73
   8  10  -5   44.97    9.46
  -8 -10   5   55.91   10.89
   8  10  -6  268.27   41.99
   8  10  -7   10.29    6.78
   8  10  -8   40.03    9.40
  -8 -10   8   41.64    9.70
   8  10  -9    6.72    6.31
  -8 -10   9    0.12    6.13
   8  10 -10   -5.29    5.12
  -8 -10  10    0.00    5.47
   8  11   0    9.40    6.25
  -8 -11   0    5.59    6.48
   8 -11   1   13.56    4.58
   8  11  -1   16.12    7.02
  -8 -11  -1   27.60    7.67
   8  11   1   20.05    6.66
  -8 -11   1    8.80    6.54
  -8  11  -1    6.07    4.40
   8 -11   2   -0.18    3.99
   8  11  -2   -1.13    5.47
  -8 -11   2    9.76    5.83
   8 -11   3    2.38    4.16
   8  11  -3   10.05    6.07
  -8 -11   3    3.39    4.88
  -8  11  -3   17.73    5.59
   8 -11   4    9.04    5.00
   8  11  -4   -0.06    5.83
  -8  11  -4   -0.06    5.00
   8 -11   5   10.35    5.06
   8  11  -5   -0.18    5.77
  -8  11  -5   17.49    5.71
   8  11  -6   -2.32    6.54
  -8 -11   6   -0.18    6.42
   8  11  -7   15.82    7.38
  -8 -11   7   11.96    6.96
   8  11  -8    5.23    6.60
  -8 -11   8    7.91    6.36
   8  11  -9   18.20    6.72
  -8 -11   9    9.58    6.36
   8  12   0  163.64   26.35
  -8 -12   0  125.45   20.82
   8 -12   1   11.54    4.82
   8  12  -1    3.03    6.66
  -8 -12  -1   -6.84    5.89
   8  12   1    6.42    6.01
  -8  12  -1    2.38    4.64
   8  12  -2    6.36    6.90
  -8  12  -2   13.68    5.89
   8 -12   3   23.08    6.07
   8  12  -3   24.63    7.26
  -8  12  -3   14.99    5.83
   8 -12   4   16.71    6.01
   8  12  -4    9.46    6.07
  -8 -12   4   -3.75    5.95
  -8  12  -4   -5.17    5.23
   8 -12   5   22.19    6.54
   8  12  -5   17.31    7.02
  -8 -12   5   17.19    6.90
  -8  12  -5   24.27    6.72
   8  12  -6   15.29    7.67
  -8 -12   6   19.03    7.79
  -8  12  -6   17.90    6.66
   8  12  -7    9.16    7.14
  -8 -12   7   -3.15    6.60
   8  12  -8   11.12    6.66
  -8 -12   8   10.35    6.66
   8  12  -9    1.72    5.65
  -8 -12   9   -0.77    5.41
   8  13   0   95.71   16.48
   8 -13   1   11.60    5.35
   8  13  -1   13.62    7.20
  -8 -13   1   -1.72    5.77
  -8  13  -1    9.76    5.47
   8 -13   2   -7.02    5.41
   8  13  -2    2.56    6.90
  -8  13  -2   -2.50    5.89
   8 -13   3  239.60   37.30
   8  13  -3  209.38   33.25
  -8 -13   3  202.72   32.24
  -8  13  -3  263.45   40.98
   8 -13   4    2.91    6.07
   8  13  -4    6.36    6.42
  -8 -13   4    3.57    6.19
  -8  13  -4   11.72    6.07
   8 -13   5   12.19    6.19
   8  13  -5   15.88    6.96
  -8 -13   5    1.13    6.36
  -8  13  -5   20.82    6.90
   8 -13   6   89.58   15.29
   8  13  -6   65.79   12.61
  -8 -13   6   71.80   13.56
  -8  13  -6   71.80   12.91
   8  13  -7   39.14    9.40
  -8 -13   7   28.67    8.27
   8  13  -8    2.86    6.07
  -8 -13   8   -0.06    5.95
   8  14   0   -0.71    6.66
  -8 -14   0    6.90    7.20
   8 -14   1   -7.08    5.53
   8  14  -1    0.54    6.90
  -8 -14  -1    0.42    6.66
   8  14   1    3.09    6.42
  -8 -14   1    6.36    7.02
  -8  14  -1   -2.50    5.59
   8 -14   2   91.25   15.52
   8  14  -2  112.72   19.33
  -8 -14   2  103.74   18.14
  -8  14  -2  122.95   20.28
   8 -14   3   17.25    6.25
   8  14  -3    2.68    6.19
  -8 -14   3   13.98    7.02
  -8  14  -3   12.79    6.31
   8 -14   4    3.45    5.53
   8  14  -4   -2.38    6.48
  -8 -14   4    0.24    6.54
  -8  14  -4    7.26    6.07
   8 -14   5   16.66    6.90
   8  14  -5   14.34    6.84
  -8 -14   5    9.93    6.84
  -8  14  -5    4.16    6.25
   8 -14   6   32.00    7.73
   8  14  -6   20.34    7.14
  -8 -14   6   23.79    7.49
  -8  14  -6   16.12    6.48
   8 -14   7   -3.87    5.12
   8  14  -7    6.72    6.48
  -8 -14   7   -7.44    6.42
  -8  14  -7   -4.04    5.35
   8  14  -8    4.04    6.07
  -8 -14   8    0.06    6.36
   8  15   0   -7.02    6.96
  -8 -15   0    9.28    7.91
   8 -15   1  159.77   25.46
   8  15  -1  180.05   29.21
  -8 -15  -1  156.86   25.52
   8  15   1  237.93   37.47
  -8 -15   1  218.18   34.86
  -8  15  -1  138.83   22.31
   8 -15   2   11.12    6.42
   8  15  -2   -9.99    7.55
  -8 -15   2    1.72    7.67
  -8  15  -2   -2.68    6.48
   8  15  -3   21.65    7.61
  -8 -15   3   17.55    7.32
  -8  15  -3   12.13    6.54
   8 -15   4   15.11    6.42
   8  15  -4    9.99    6.60
  -8 -15   4   16.18    7.14
  -8  15  -4   28.43    7.85
   8 -15   5    5.83    6.01
   8  15  -5    5.77    6.01
  -8 -15   5   15.47    6.72
  -8  15  -5    9.22    6.36
   8 -15   6   -0.89    5.23
   8  15  -6    4.28    5.77
  -8 -15   6    3.51    5.65
  -8  15  -6    2.08    5.53
   8 -15   7   23.02    6.48
   8  15  -7   21.83    6.72
  -8 -15   7   21.41    7.38
  -8  15  -7   32.66    7.73
   8  16   0   35.87    9.40
  -8 -16   0   32.06    9.40
   8 -16   1   14.69    6.60
   8  16  -1   -0.89    7.26
  -8 -16  -1   12.25    7.20
   8  16   1   -0.48    6.48
  -8 -16   1   19.51    8.15
  -8  16  -1    2.50    6.19
   8 -16   2   27.48    7.85
   8  16  -2   21.18    8.03
  -8 -16   2   28.25    8.86
  -8  16  -2   23.61    7.97
   8 -16   3    3.51    5.59
   8  16  -3   16.06    6.66
  -8 -16   3   -1.07    6.13
  -8  16  -3   -1.01    6.07
   8 -16   4   71.02   12.55
   8  16  -4   58.83   11.54
  -8 -16   4   65.61   12.49
  -8  16  -4   58.89   11.24
   8 -16   5    5.83    5.00
   8  16  -5    0.89    5.65
  -8 -16   5    1.43    5.59
  -8  16  -5   10.41    5.59
   8 -16   6   -1.84    5.35
   8  16  -6    5.29    5.89
  -8 -16   6    2.97    5.65
  -8  16  -6    5.17    5.47
   8  17   0    8.68    6.60
  -8 -17   0    2.86    7.08
   8 -17   1   13.44    6.07
   8  17  -1    5.17    6.72
  -8 -17  -1   16.66    7.14
   8  17   1    7.20    6.36
  -8 -17   1   -1.67    7.02
  -8  17  -1   11.24    6.25
   8 -17   2   10.53    6.01
   8  17  -2    2.20    6.66
  -8 -17   2  -14.16    7.08
  -8  17  -2   -3.75    6.25
   8 -17   3   11.24    5.53
   8  17  -3   11.00    5.89
  -8 -17   3    8.09    5.77
  -8  17  -3   -1.37    5.83
   8 -17   4   -0.54    4.88
   8  17  -4    2.74    6.13
  -8 -17   4    1.19    5.47
  -8  17  -4   -0.65    5.29
   8  18   0    8.74    6.13
  -8 -18   0   -2.32    6.13
   8 -18   1    6.42    5.29
   8  18  -1   -0.06    5.95
  -8 -18  -1    0.54    5.95
   8  18   1   -8.33    5.95
  -8 -18   1    5.83    6.31
  -8  18  -1    4.34    5.23
   8 -18   2   -0.12    5.59
   8  18  -2   10.23    6.66
  -8 -18   2    4.40    6.25
  -8  18  -2    3.03    5.77
   9   0   1    7.32    6.07
  -9   0   1   15.41    6.19
   9   0  -1   16.83    6.48
  -9   0  -1   19.33    6.72
  -9   0   2   68.82   12.25
   9   0  -2  106.47   17.55
  -9   0   3    8.92    5.89
   9   0  -3    5.06    5.89
   9   1   0    5.06    6.96
  -9  -1   0    1.84    7.79
   9  -1   0   -8.62    5.12
  -9   1   0    2.80    5.17
   9  -1   1    9.93    5.59
  -9   1   1   17.43    6.07
   9   1  -1   19.27    6.96
  -9  -1  -1   -6.48    6.66
   9   1   1    6.84    6.31
  -9  -1   1    5.95    5.89
   9  -1  -1   -4.58    5.53
  -9   1  -1   -3.81    5.71
  -9   1   2    1.55    5.59
   9   1  -2   -8.86    6.48
  -9  -1   2   -1.61    6.42
   9  -1  -2   11.00    5.65
   9   1  -3   -1.55    6.19
  -9  -1   3    4.94    6.01
   9   2   0    1.90    7.32
  -9  -2   0   16.12    7.85
   9  -2   0    3.27    4.64
  -9   2   0    5.35    4.40
   9  -2   1    2.86    4.82
  -9   2   1   -0.42    4.94
   9   2  -1    2.20    6.48
  -9  -2  -1    6.42    6.90
   9   2   1   14.10    6.96
  -9  -2   1   11.00    6.54
   9  -2  -1    7.85    4.82
  -9   2  -1    5.29    5.12
   9   2  -2   83.81   14.81
  -9  -2   2   78.81   14.10
   9   2  -3   -1.61    6.60
  -9  -2   3   -0.77    5.95
   9   2  -4  307.70   47.70
  -9  -2   4  260.35   40.45
   9   3   0    3.39    7.67
  -9  -3   0    7.26    7.73
   9  -3   0   -2.86    3.81
  -9   3   0    0.54    4.04
   9  -3   1   62.46   10.53
   9   3  -1   75.78   13.74
  -9  -3  -1   65.25   12.55
   9   3   1   46.87   10.11
  -9  -3   1   85.65   14.93
  -9   3  -1   83.10   13.56
   9   3  -2    3.99    6.90
  -9  -3   2    8.27    6.25
   9   3  -3  427.56   65.91
  -9  -3   3  453.79   69.89
   9   3  -4    7.55    6.36
  -9  -3   4    3.81    5.77
   9   3  -5  101.66   16.89
  -9  -3   5   84.58   14.34
   9   4   0   10.83    7.91
  -9  -4   0   -1.96    7.44
   9  -4   0    7.73    3.45
  -9   4   0   -1.19    3.27
   9  -4   1    9.58    3.93
   9   4  -1   -1.01    6.78
  -9  -4  -1    5.89    6.90
   9   4   1    6.84    7.26
  -9  -4   1    2.26    6.25
  -9   4  -1    6.19    3.93
   9   4  -2   11.60    7.14
  -9  -4   2   19.57    7.14
   9   4  -3   -4.58    6.25
  -9  -4   3   -3.57    6.42
   9   4  -4   13.80    6.42
  -9  -4   4    0.83    5.89
   9   4  -5    2.08    5.59
  -9  -4   5   11.12    5.83
   9   4  -6   -2.50    4.94
  -9  -4   6   -3.33    4.82
   9   5   0    1.67    7.67
  -9  -5   0    2.02    7.49
   9   5  -1   58.11   11.36
  -9  -5  -1   34.02    8.92
   9   5   1   36.11    9.10
   9   5  -2    2.86    6.66
  -9  -5   2   18.56    6.96
   9   5  -3   14.28    6.31
  -9  -5   3   19.33    6.48
   9   5  -4   35.39    8.27
  -9  -5   4   24.74    7.32
  -9  -5   5   44.43    8.98
  -9  -5   6   -3.51    5.29
   9   5  -7   74.77   13.09
   9   6   0    7.02    7.79
  -9  -6   0   -5.65    6.96
   9   6  -1   -0.42    6.96
  -9  -6  -1    5.00    6.90
   9   6   1   12.61    6.96
  -9  -6   1   -1.49    5.77
   9   6  -2    0.30    6.07
  -9  -6   2    6.31    5.89
  -9  -6   3    1.67    5.47
  -9  -6   4    9.93    6.01
   9   6  -5    2.62    5.77
  -9  -6   5    6.78    5.59
   9   6  -6    9.10    5.71
  -9  -6   6    1.90    5.59
   9   6  -7   -1.67    5.53
  -9  -6   7    1.67    5.41
   9   7   0   -2.02    6.60
  -9  -7   0    1.19    6.42
  -9  -7  -1   35.15    8.45
   9   7   1   36.17    8.39
  -9  -7   1   40.21    9.34
  -9  -7   2    6.84    5.77
  -9   7  -2   -5.12    2.74
   9   7  -3  134.55   21.59
  -9  -7   3  115.22   18.92
   9   7  -4    6.19    6.07
  -9  -7   4   13.50    6.25
   9   7  -5  138.89   22.54
  -9  -7   5  129.97   21.24
   9   7  -6    1.84    5.71
  -9  -7   6    4.16    5.59
   9   7  -7   32.95    7.97
  -9  -7   7   37.18    8.51
   9   7  -8    2.56    6.25
  -9  -7   8   -5.47    5.89
  -9  -8   0   -6.36    6.42
   9   8  -1    6.96    6.19
  -9  -8  -1   -1.55    5.71
  -9  -8   1    7.61    6.54
   9  -8   2   29.21    5.41
   9   8  -2   29.56    7.61
  -9  -8   2   29.56    7.38
  -9   8  -2   19.57    4.52
   9   8  -3    0.89    5.47
  -9  -8   3    6.31    5.53
   9   8  -4  883.31  135.26
  -9  -8   4  841.08  128.78
   9   8  -5    4.76    6.01
  -9  -8   5   12.02    6.36
   9   8  -6   37.18    8.80
  -9  -8   6   24.92    7.26
   9   8  -7    7.44    6.25
  -9  -8   7   -2.68    6.01
   9   8  -8  100.05   17.07
  -9  -8   8   87.26   15.29
   9   8  -9    3.09    6.19
   9   9   0   -9.22    6.36
  -9  -9   0    9.10    6.48
   9   9  -1   13.32    6.90
  -9  -9  -1    5.17    5.95
   9   9   1    8.62    6.25
  -9  -9   1   33.67    8.51
   9  -9   2    6.07    3.45
   9   9  -2   -1.84    5.35
  -9  -9   2    7.26    5.53
   9  -9   3    0.71    3.33
   9   9  -3    4.76    5.53
  -9  -9   3   -4.52    5.29
  -9   9  -3    5.06    3.81
   9   9  -4    2.02    5.71
  -9  -9   4   20.88    6.42
   9   9  -5    2.32    6.01
  -9  -9   5    0.77    5.95
   9   9  -6   -3.87    6.36
  -9  -9   6   -3.45    6.25
   9   9  -7   -8.39    6.48
  -9  -9   7    1.43    6.13
   9   9  -8    8.51    6.66
  -9  -9   8    6.01    6.60
   9   9  -9   -2.91    5.77
  -9  -9   9    5.17    5.83
   9   9 -10    1.49    5.77
   9  10   0    2.20    6.31
  -9 -10   0   -0.18    6.31
   9 -10   1   -3.15    3.57
   9  10  -1   -1.84    6.60
  -9 -10  -1   -3.75    5.95
   9  10   1    8.27    5.77
  -9 -10   1   -2.62    6.25
   9  10  -2   33.61    7.79
  -9 -10   2   45.33    9.28
  -9  10  -2   42.77    7.85
   9 -10   3   -2.32    3.87
   9  10  -3   -0.36    5.47
  -9 -10   3   11.60    6.01
  -9  10  -3    7.97    4.34
   9 -10   4   21.83    5.29
   9  10  -4   16.24    6.36
  -9 -10   4   24.45    7.08
  -9  10  -4   23.61    5.71
   9  10  -5   -7.85    5.83
  -9 -10   5    2.56    6.36
   9  10  -6   22.07    7.55
  -9 -10   6   23.85    7.79
   9  10  -7    1.01    6.66
  -9 -10   7   -3.39    7.02
   9  10  -8   62.04   11.96
   9  10  -9   -5.53    6.01
   9  10 -10    6.13    5.77
  -9 -10  10    1.25    6.13
   9  11   0    2.44    6.19
  -9 -11   0   -9.76    6.54
   9 -11   1   10.65    4.22
   9  11  -1    0.42    6.42
  -9 -11  -1    7.14    6.07
   9  11   1    6.42    5.89
  -9 -11   1    5.95    6.36
   9 -11   2    8.80    4.16
   9  11  -2   -2.62    5.53
  -9 -11   2    1.43    5.41
  -9  11  -2    3.81    4.58
   9 -11   3    1.19    3.99
   9  11  -3    1.96    5.77
  -9 -11   3    0.83    5.35
  -9  11  -3    2.97    4.52
   9 -11   4    4.70    4.52
   9  11  -4   14.39    6.31
  -9 -11   4    0.54    5.59
  -9  11  -4    1.19    4.76
   9  11  -5   23.14    7.26
  -9 -11   5    6.13    6.19
  -9  11  -5   10.71    5.12
   9  11  -6   -1.31    6.78
   9  11  -7   13.98    7.14
   9  11  -8   -3.87    6.25
  -9 -11   8    3.21    5.89
   9  11  -9    9.70    6.01
  -9 -11   9    7.44    5.83
   9  12   0    0.18    6.36
  -9 -12   0   -3.15    6.36
   9 -12   1   -1.96    4.28
   9  12  -1   -2.68    6.78
  -9 -12  -1    5.95    6.19
   9  12   1    7.67    6.13
  -9 -12   1    8.03    6.96
   9  12  -2   73.16   13.80
  -9 -12   2   78.04   13.92
  -9  12  -2   46.34    8.92
   9 -12   3    1.96    4.52
   9  12  -3   -3.51    5.77
  -9 -12   3    8.21    6.07
  -9  12  -3   -2.62    5.06
   9 -12   4  314.42   48.54
   9  12  -4  369.92   57.40
  -9  12  -4  304.91   47.17
   9 -12   5    0.36    5.17
   9  12  -5   -2.68    6.19
  -9  12  -5    2.02    5.41
   9  12  -6   45.56    9.87
  -9 -12   6   27.24    7.49
   9  12  -7    6.19    6.90
  -9 -12   7   11.54    7.20
   9  12  -8   94.87   16.54
  -9 -12   8   76.49   13.86
   9  13   0    1.25    6.66
  -9 -13   0    2.50    6.72
   9 -13   1   90.47   14.75
   9  13  -1   83.51   15.11
  -9 -13  -1   82.92   14.57
   9  13   1   94.16   16.18
  -9 -13   1   66.68   12.67
   9 -13   2   10.35    5.41
   9  13  -2   15.76    7.38
  -9  13  -2   14.39    6.13
   9 -13   3  637.06   97.61
   9  13  -3  584.12   90.00
  -9  13  -3  630.51   96.66
   9 -13   4   13.86    6.01
   9  13  -4    4.58    6.25
  -9 -13   4    4.88    5.71
  -9  13  -4   11.12    5.89
   9 -13   5  271.30   42.17
   9  13  -5  307.11   48.00
  -9 -13   5  324.60   50.68
  -9  13  -5  343.45   53.06
   9 -13   6    2.86    5.53
   9  13  -6    9.46    6.48
  -9 -13   6   -6.84    6.19
  -9  13  -6   -6.78    5.83
   9  13  -7   16.66    7.32
  -9 -13   7   33.67    8.80
   9  13  -8    0.54    5.59
  -9 -13   8   -8.33    5.95
   9  14   0    5.41    6.72
   9 -14   1    8.98    5.35
   9  14  -1    8.39    7.44
   9  14   1   -2.86    6.31
   9 -14   2    7.73    5.83
   9  14  -2    6.19    7.20
  -9 -14   2    6.78    7.55
  -9  14  -2    6.96    6.19
   9 -14   3    0.89    5.23
   9  14  -3    2.32    6.36
  -9 -14   3    6.78    6.78
  -9  14  -3    6.96    5.71
   9 -14   4   10.35    5.83
   9  14  -4   24.63    7.91
  -9 -14   4   10.23    6.78
  -9  14  -4   32.77    7.85
   9 -14   5    3.87    5.71
   9  14  -5    3.45    6.42
  -9 -14   5   -2.80    6.19
  -9  14  -5    7.26    5.95
   9 -14   6    2.74    5.35
   9  14  -6    9.87    6.13
  -9 -14   6    1.96    5.83
  -9  14  -6    4.82    5.29
   9 -14   7   -2.14    4.58
   9  14  -7   -7.49    5.83
  -9 -14   7    3.39    5.89
  -9  14  -7    5.41    4.82
   9  15   0   -0.12    6.90
  -9 -15   0    6.66    7.55
   9 -15   1   10.11    5.89
   9  15  -1   14.57    7.73
  -9 -15  -1   11.30    6.72
   9  15   1   11.18    6.90
  -9 -15   1   -5.23    7.44
   9 -15   2   -4.58    6.01
   9  15  -2    2.97    7.67
  -9 -15   2   -2.91    7.26
  -9  15  -2    5.77    6.25
   9 -15   3   44.31    9.16
   9  15  -3   29.98    8.57
  -9 -15   3   32.83    8.57
  -9  15  -3   59.13   11.18
   9 -15   4   -3.09    5.23
   9  15  -4   -8.45    6.25
  -9 -15   4    8.21    6.36
  -9  15  -4   -7.26    5.83
   9 -15   5    8.45    5.71
   9  15  -5   13.15    6.25
  -9 -15   5    7.32    6.13
  -9  15  -5    0.89    5.77
   9 -15   6    5.65    4.70
   9  15  -6    0.18    5.47
  -9 -15   6   -6.48    5.17
  -9  15  -6    2.32    5.06
   9  16   0    0.59    6.84
  -9 -16   0    1.07    6.96
   9 -16   1   -1.61    5.29
   9  16  -1   -4.76    7.20
  -9 -16  -1  -19.21    7.20
   9  16   1    0.59    6.48
  -9 -16   1    3.93    7.32
   9 -16   2   78.75   13.74
   9  16  -2   77.98   14.57
  -9 -16   2   79.77   14.75
  -9  16  -2   69.12   12.67
   9 -16   3   -0.59    5.06
   9  16  -3    3.69    5.77
  -9 -16   3    8.98    6.07
   9 -16   4   -5.12    5.00
   9  16  -4    3.09    5.77
  -9 -16   4    2.38    5.47
  -9  16  -4    7.73    5.35
   9 -16   5   -2.38    5.06
   9  16  -5    5.71    5.53
  -9 -16   5   -3.75    5.29
  -9  16  -5    5.17    5.00
   9  17   0    4.10    6.01
  -9 -17   0   10.94    6.72
   9 -17   1    6.60    5.23
   9  17  -1    2.02    6.25
  -9 -17  -1    7.20    6.25
   9  17   1    3.69    5.53
  -9 -17   1   -1.49    6.48
   9 -17   2   -0.71    5.35
   9  17  -2    7.08    6.48
  -9 -17   2    0.30    6.31
  -9  17  -2    6.01    5.59
   9 -17   3    7.91    5.00
   9  17  -3    0.18    5.23
  -9 -17   3    8.62    5.77
  -9  17  -3   -0.42    5.47
  10   0   0 2005.15  305.92
 -10   0   0 1208.68  184.57
  10   0   1    6.25    5.95
 -10   0   1   27.66    7.14
  10   0  -1   28.31    7.20
 -10   0  -1    8.27    6.31
 -10   0   2 1745.22  266.30
  10   0  -2 1573.31  240.13
 -10   0   3   11.06    5.83
  10   0  -3   24.33    6.84
  10   1   0   27.48    8.27
 -10  -1   0   29.27    8.98
  10  -1   0   28.02    6.78
 -10   1   0   23.26    6.13
  10  -1   1   51.10    9.70
 -10   1   1   72.51   12.55
  10   1  -1   56.45   10.77
 -10  -1  -1   53.77   10.71
  10   1   1   50.08   10.05
 -10  -1   1   54.96   10.53
  10  -1  -1   48.89    9.40
 -10   1  -1   50.44    9.70
 -10   1   2   -1.55    5.29
  10   1  -2    8.03    6.42
 -10  -1   2    6.72    6.07
  10  -1  -2    0.89    5.23
  10   1  -3  -10.83    5.71
 -10  -1   3    4.34    5.89
  10   1  -4    2.38    5.53
 -10  -1   4   -6.31    5.59
  10   2   0  219.01   34.50
 -10  -2   0  183.56   29.32
  10  -2   0  241.80   37.35
 -10   2   0  234.72   36.28
  10  -2   1   22.01    6.01
 -10   2   1   20.64    5.71
  10   2  -1   13.80    6.72
 -10  -2  -1   17.31    7.26
  10   2   1   27.06    7.67
 -10  -2   1   31.53    7.91
  10  -2  -1   19.69    5.71
 -10   2  -1   20.16    6.19
  10   2  -2    6.07    6.07
 -10  -2   2    3.39    5.89
  10  -2  -2   -2.80    4.64
  10   2  -3   32.00    8.15
 -10  -2   3   28.31    7.49
  10   2  -4    9.46    6.19
 -10  -2   4   10.05    5.89
  10   2  -5    7.44    5.29
  10   3   0   51.04   11.00
 -10  -3   0   46.04   10.41
  10  -3   0   35.93    6.96
 -10   3   0   44.25    7.91
  10  -3   1   23.67    5.77
 -10   3   1   36.52    7.14
  10   3  -1   34.38    8.57
 -10  -3  -1   21.12    7.61
  10   3   1   17.61    7.26
 -10  -3   1   33.96    8.21
  10  -3  -1   43.12    7.85
 -10   3  -1   34.02    7.08
  10   3  -2    9.16    6.78
 -10  -3   2    4.52    5.89
  10   3  -3   10.65    6.66
 -10  -3   3    3.87    6.07
  10   3  -4    1.49    5.77
 -10  -3   4   19.87    6.42
  10   3  -5   93.39   15.58
 -10  -3   5   99.22   16.48
  10   4   0   64.66   12.73
 -10  -4   0   50.44   10.89
  10  -4   0   64.48   10.53
 -10   4   0   66.44   10.83
  10  -4   1   -3.75    3.93
  10   4  -1    1.90    6.48
 -10  -4  -1    9.52    6.66
  10   4   1    6.42    6.78
 -10  -4   1   -0.18    5.77
 -10   4  -1    1.49    4.10
  10   4  -2   14.69    6.90
 -10  -4   2    8.74    6.13
  10   4  -3   -2.14    6.01
 -10  -4   3    3.03    5.95
  10   4  -4    2.32    5.71
 -10  -4   4    1.25    5.59
  10   4  -5    4.52    5.65
 -10  -4   5    0.24    5.41
  10   4  -6    0.95    5.47
 -10  -4   6    0.71    5.12
  10   5   0   19.09    8.03
 -10  -5   0    3.09    6.96
  10  -5   1  271.48   41.58
 -10  -5  -1  247.51   38.72
  10   5   1  242.21   37.95
 -10  -5   1  360.05   55.68
 -10   5  -1  217.11   33.37
  10   5  -2    6.96    5.83
 -10  -5   2    0.59    5.71
  10   5  -3   30.69    7.55
 -10  -5   3   36.58    8.15
  10   5  -4    8.62    6.36
 -10  -5   4    4.58    5.89
  10   5  -5    5.12    5.59
 -10  -5   5   -0.06    5.35
  10   5  -6   -5.35    5.53
 -10  -5   6    4.76    5.35
 -10  -5   7   27.60    7.08
  10   6   0   69.53   12.97
 -10  -6   0   64.42   12.43
  10   6  -1    6.42    5.95
 -10  -6  -1    2.62    6.36
  10   6   1   -2.32    5.95
 -10  -6   1    0.65    5.59
  10   6  -2    2.56    5.53
 -10  -6   2    5.77    5.35
  10   6  -3    1.25    5.47
 -10  -6   3    2.74    5.29
  10   6  -4    1.67    5.83
 -10  -6   4   10.35    5.95
  10   6  -5   -1.78    4.76
 -10  -6   5    2.50    5.47
 -10  -6   6    0.48    5.47
 -10  -6   7    1.67    5.77
  10   6  -8    9.52    6.36
  10   7   0   12.49    6.78
 -10  -7   0   21.77    7.32
  10   7  -1   24.86    7.67
 -10  -7  -1    3.75    5.83
 -10  -7   1   22.60    7.32
  10   7  -2   -7.49    5.59
 -10  -7   2    7.20    5.47
  10   7  -3    5.17    5.06
 -10  -7   3    2.74    5.06
 -10  -7   4   11.24    6.07
 -10  -7   5    5.23    5.83
  10   7  -6    5.41    6.01
 -10  -7   6   -6.42    5.77
  10   7  -7   17.19    6.84
 -10  -7   7   18.80    6.84
  10   7  -8    3.87    6.48
 -10  -7   8    1.96    5.95
  10   8   0   31.94    8.33
 -10  -8   0   17.01    6.90
 -10  -8  -1    0.54    5.65
  10   8   1    9.64    6.01
 -10  -8   1    7.61    6.13
  10  -8   2    1.96    2.38
 -10  -8   2    0.06    5.06
 -10   8  -2   -3.63    2.91
 -10  -8   3   10.89    5.53
  10   8  -4   31.47    7.67
 -10  -8   4   38.72    8.33
  10   8  -5   10.71    6.19
 -10  -8   5   13.03    6.42
  10   8  -7    8.27    6.72
 -10  -8   7   11.42    6.84
  10   8  -8    2.50    6.36
 -10  -8   8   15.64    6.72
  10   8  -9   -4.94    5.95
 -10  -8   9   10.83    6.07
 -10  -9   0    0.89    6.31
 -10  -9  -1  -10.17    5.89
 -10  -9   1    3.39    6.13
  10  -9   2   -1.67    2.80
  10   9  -2    5.89    5.47
 -10  -9   2   -5.83    5.17
 -10   9  -2   -0.18    3.21
  10  -9   3   -0.24    3.03
  10   9  -3    8.09    5.65
 -10  -9   3   10.89    5.83
 -10   9  -3    3.69    3.15
  10   9  -4    2.08    5.53
 -10  -9   4    4.76    5.59
  10   9  -5    0.89    6.25
 -10  -9   5   10.35    6.42
  10   9  -6   -3.87    6.42
 -10  -9   6   18.62    7.26
  10   9  -7   10.65    7.20
 -10  -9   7   -1.13    6.60
  10   9  -8    7.79    6.78
 -10  -9   8    6.07    6.36
  10   9  -9   11.90    6.42
 -10  -9   9   10.35    6.07
  10   9 -10   12.25    5.83
  10  10   0  436.60   67.45
 -10 -10   0  568.47   87.50
  10  10  -1   -2.74    6.13
 -10 -10  -1    8.86    6.07
  10  10   1   -0.30    5.41
 -10 -10   1    2.97    6.25
  10 -10   2    5.89    3.33
  10  10  -2   18.56    6.48
  10 -10   3   -1.25    3.51
  10  10  -3   10.53    5.95
 -10 -10   3   10.47    5.89
 -10  10  -3    9.46    4.16
  10  10  -4    0.77    5.71
 -10 -10   4    8.68    5.83
 -10  10  -4    5.65    4.04
  10  10  -5    1.84    5.83
 -10 -10   5   -9.28    5.89
  10  10  -6   24.45    8.21
 -10 -10   6   17.37    7.32
  10  10  -7    6.25    6.96
 -10 -10   7   14.04    7.08
  10  10  -8   45.68    9.81
 -10 -10   8   47.65   10.23
  10  10  -9    1.01    5.71
 -10 -10   9   -1.72    5.71
  10  11   0    6.78    6.42
 -10 -11   0    5.23    6.48
  10  11  -1    3.33    6.60
 -10 -11  -1    3.69    6.19
  10  11   1   -0.18    5.89
 -10 -11   1    1.19    6.36
  10 -11   2    1.55    3.57
  10  11  -2    1.78    5.71
 -10 -11   2   -0.36    5.59
 -10  11  -2   -1.55    4.16
  10 -11   3   12.79    4.58
  10  11  -3    7.79    6.13
 -10 -11   3   14.87    6.42
 -10  11  -3    6.96    4.46
  10 -11   4    0.65    4.28
  10  11  -4    3.87    6.13
 -10 -11   4   -5.71    5.83
 -10  11  -4    3.99    4.70
  10  11  -5    1.25    6.36
 -10 -11   5   -8.09    6.07
  10  11  -6    4.28    6.72
 -10 -11   6   15.76    7.49
  10  11  -7   12.67    7.02
 -10 -11   7   20.40    7.61
  10  11  -8    4.82    5.89
 -10 -11   8   -5.65    5.00
  10  11  -9    2.68    5.83
  10  12   0    5.83    6.84
 -10 -12   0    2.08    6.84
  10  12  -1    9.99    7.26
 -10 -12  -1    5.59    6.60
  10  12   1    4.34    6.31
 -10 -12   1   10.11    7.08
  10  12  -2   53.77   11.96
 -10 -12   2   33.90    8.33
 -10  12  -2   22.07    6.07
  10 -12   3   11.06    4.70
  10  12  -3   -2.62    6.19
 -10 -12   3   -7.14    5.95
 -10  12  -3   -0.48    4.94
  10 -12   4   -0.95    4.76
  10  12  -4    4.70    6.31
 -10 -12   4    3.21    6.36
 -10  12  -4    5.83    5.35
  10 -12   5    7.44    5.00
  10  12  -5    9.04    6.72
 -10 -12   5   11.54    6.90
 -10  12  -5   -1.25    5.00
  10  12  -6   -1.01    5.89
 -10 -12   6    1.13    6.72
  10  12  -7    7.02    6.42
  10  12  -8    4.16    6.25
  10  13   0   48.30   10.83
 -10 -13   0   64.78   12.73
  10  13  -1   14.39    8.03
 -10 -13  -1   -1.67    6.60
  10  13   1   -2.68    6.66
 -10 -13   1    3.81    7.32
  10 -13   2    2.02    5.12
  10  13  -2   13.92    7.73
 -10 -13   2   14.81    6.96
 -10  13  -2   20.58    6.48
  10 -13   3    8.45    5.00
  10  13  -3    2.02    6.42
 -10 -13   3    1.78    6.78
 -10  13  -3    2.62    5.47
  10 -13   4   -2.97    5.17
  10  13  -4    7.91    6.42
 -10 -13   4    5.77    5.77
 -10  13  -4   11.84    6.48
  10 -13   5   55.50   10.23
  10  13  -5   35.39    8.80
 -10  13  -5   57.10   10.65
  10  13  -6    9.64    6.19
 -10  13  -6   13.03    5.47
  10  13  -7    9.52    6.25
 -10 -13   7    4.16    6.25
  10  14   0   12.25    7.44
 -10 -14   0   23.85    8.86
  10 -14   1    4.58    5.06
  10  14  -1    6.25    7.55
 -10 -14  -1   -0.06    6.90
  10  14   1    7.49    6.72
 -10 -14   1    0.18    7.49
  10 -14   2   22.37    6.66
  10  14  -2   11.24    7.61
 -10  14  -2   34.50    8.09
  10 -14   3    3.99    4.94
  10  14  -3   -4.22    5.95
 -10  14  -3    1.01    5.35
  10 -14   4    7.61    4.88
  10  14  -4    4.34    6.19
 -10  14  -4    1.78    5.23
  10 -14   5   -6.54    5.41
  10  14  -5   -8.27    5.95
 -10 -14   5    8.57    6.36
 -10  14  -5    2.80    5.00
  10 -14   6   11.90    5.29
  10  14  -6   16.71    6.54
 -10 -14   6   20.16    6.96
 -10  14  -6    9.10    5.17
  10  15   0   14.45    7.38
  10 -15   1    5.29    5.06
  10  15  -1   10.59    7.44
  10  15   1    5.29    6.60
  10 -15   2    9.04    5.41
  10  15  -2    5.77    7.38
 -10 -15   2    6.54    6.66
 -10  15  -2   12.37    5.95
  10 -15   3    0.54    4.76
  10  15  -3   10.05    6.42
 -10 -15   3   -1.19    6.31
 -10  15  -3    7.38    5.35
  10 -15   4    3.99    4.64
  10  15  -4   -1.13    5.95
 -10 -15   4   -6.36    6.01
 -10  15  -4    4.10    5.00
  10 -15   5    7.85    5.00
  10  15  -5    4.16    5.47
 -10 -15   5   -5.47    5.77
 -10  15  -5    0.71    4.94
  10 -15   6   -6.78    4.94
  10  16   0   92.38   16.24
 -10 -16   0   71.38   13.74
  10 -16   1    0.48    5.12
  10  16  -1   -1.19    6.72
  10  16   1    2.97    5.95
 -10 -16   1   14.81    7.55
  10 -16   2    5.71    5.12
  10  16  -2   12.37    7.08
 -10 -16   2    6.54    6.84
 -10  16  -2   -3.87    5.29
  10 -16   3    0.89    4.52
  10  16  -3    6.54    5.65
 -10 -16   3   -1.96    5.77
  10 -16   4   13.92    5.06
 -10  16  -4    5.23    5.00
  10  17   0  -13.15    6.07
 -10 -17   0    4.40    6.60
  10 -17   1   -0.36    4.52
  10  17  -1    3.45    5.83
 -10 -17  -1    0.24    6.19
  10  17   1   -5.35    5.47
 -10 -17   1    3.69    6.25
  10 -17   2    8.21    5.06
  10  17  -2   -4.64    6.01
 -10 -17   2   -0.95    6.36
 -10  17  -2    1.55    5.06
  11   0   1   78.75   13.56
 -11   0   1   56.69   10.41
  11   0  -1   55.79   10.23
 -11   0  -1   73.04   12.85
 -11   0   2   69.59   12.25
  11   0  -2   61.68   11.18
 -11   0   3   94.52   15.64
  11   0  -3   89.88   14.99
  11   1   0  -14.22    6.60
 -11  -1   0   -1.25    6.96
  11  -1   0   -4.34    5.00
 -11   1   0   -9.10    4.94
  11  -1   1    1.90    5.47
 -11   1   1   13.38    5.65
  11   1  -1    8.15    5.89
 -11  -1  -1   14.10    6.60
  11   1   1   11.12    6.07
 -11  -1   1    7.55    5.53
  11  -1  -1   23.73    6.25
 -11   1  -1    4.22    5.65
 -11   1   2   15.11    5.53
  11   1  -2   17.96    6.78
 -11  -1   2   -4.64    5.53
  11  -1  -2    7.61    5.17
 -11   1   3   17.25    5.41
  11   1  -3   17.13    6.25
 -11  -1   3   13.26    5.95
  11  -1  -3   11.48    5.23
  11   1  -4   -2.97    5.17
 -11  -1   4   13.38    5.83
  11   2   0    4.40    6.90
 -11  -2   0    7.44    6.90
  11  -2   0   -4.10    4.34
 -11   2   0   -0.65    4.16
  11  -2   1   -3.45    4.82
 -11   2   1    2.44    4.58
  11   2  -1   15.11    6.42
 -11  -2  -1   -9.04    6.48
  11   2   1  -11.06    6.42
 -11  -2   1   -1.84    5.59
  11  -2  -1    2.62    4.82
 -11   2  -1    8.03    5.29
 -11   2   2   -6.60    4.76
  11   2  -2    3.93    5.77
 -11  -2   2    8.86    5.71
  11  -2  -2   10.41    4.94
  11   2  -3   -1.84    5.71
 -11  -2   3   -2.20    5.95
  11   2  -4   21.24    6.31
 -11  -2   4   45.15    9.10
  11   2  -5   -5.35    4.94
 -11  -2   5    7.73    4.94
  11   3   0    1.43    6.78
 -11  -3   0   -2.14    6.66
  11  -3   0   -6.07    3.99
 -11   3   0    2.44    3.93
  11  -3   1  385.45   59.13
 -11   3   1  285.75   43.96
  11   3  -1  371.05   57.34
 -11  -3  -1  260.06   40.57
  11   3   1  218.54   34.26
 -11  -3   1  273.08   42.53
  11  -3  -1  272.37   41.94
 -11   3  -1  287.12   44.20
  11   3  -2   15.35    6.54
 -11  -3   2   20.11    6.78
  11   3  -3   36.88    8.39
 -11  -3   3   27.72    7.55
  11   3  -4    5.29    5.41
 -11  -3   4    2.86    5.29
  11   3  -5   -7.32    5.47
 -11  -3   5    1.13    5.17
  11   3  -6    3.93    5.41
  11   4   0   -2.97    6.78
 -11  -4   0   -5.29    6.84
  11  -4   0   -0.30    3.63
 -11   4   0    1.25    3.51
  11  -4   1   -1.49    3.99
  11   4  -1   11.66    6.31
 -11  -4  -1   -7.38    6.66
  11   4   1   -6.90    6.25
 -11  -4   1   -2.50    5.89
 -11   4  -1    7.20    4.58
  11   4  -2    3.09    5.35
 -11  -4   2    3.69    5.89
  11   4  -3    7.44    5.35
 -11  -4   3   -6.19    5.59
  11   4  -4   -8.51    5.53
 -11  -4   4    5.41    5.41
  11   4  -5   -3.21    5.41
 -11  -4   5   -9.46    5.17
  11   4  -6    8.92    5.47
 -11  -4   6    9.70    5.29
  11   4  -7   -4.82    5.23
  11   5   0    1.31    6.31
 -11  -5   0    3.45    6.90
  11  -5   0    5.53    2.86
 -11   5   0    3.99    2.97
  11  -5   1  192.49   29.62
  11   5  -1  178.57   28.31
 -11  -5  -1  150.25   24.33
  11   5   1  162.92   25.93
 -11  -5   1  168.63   26.83
 -11   5  -1  197.48   30.46
  11   5  -2    4.04    5.47
 -11  -5   2   12.19    5.83
  11   5  -3  125.81   20.40
 -11  -5   3  127.29   20.64
  11   5  -4    0.12    5.65
 -11  -5   4    1.31    5.47
  11   5  -5    0.18    5.77
 -11  -5   5    7.79    5.59
  11   5  -6   15.64    6.01
 -11  -5   6   17.31    6.07
  11   5  -7  117.95   19.45
 -11  -5   7  102.67   17.13
  11   6   0    6.01    6.25
 -11  -6   0  -11.06    6.72
  11  -6   1    4.28    1.90
  11   6  -1    8.51    5.71
 -11  -6  -1    1.84    6.19
  11   6   1    4.94    5.83
 -11  -6   1    4.94    5.59
 -11   6  -1    6.01    2.26
  11   6  -2    0.83    5.35
 -11  -6   2    6.19    5.65
  11   6  -3    3.27    5.47
 -11  -6   3    5.53    5.12
  11   6  -4    1.84    6.01
 -11  -6   4    2.86    5.65
  11   6  -5   -1.25    5.59
 -11  -6   5   -8.45    5.71
  11   6  -6    9.22    5.89
 -11  -6   6   10.35    6.01
  11   6  -7   -8.09    5.89
 -11  -6   7    3.93    5.83
 -11  -6   8    8.33    6.31
  11   7   0   -4.28    6.25
 -11  -7   0    9.22    6.48
  11   7  -1   10.41    6.84
 -11  -7  -1    1.49    6.07
  11   7   1   -2.26    5.71
 -11  -7   1    6.96    6.13
  11   7  -2    1.13    5.41
 -11  -7   2    8.74    5.71
  11   7  -3   10.05    5.89
 -11  -7   3    1.13    5.06
  11   7  -4   -4.46    5.29
 -11  -7   4   -9.04    5.29
  11   7  -5    3.39    5.95
 -11  -7   5    7.32    5.95
 -11  -7   6    0.36    5.95
 -11  -7   7   -4.16    5.83
  11   7  -8   -3.45    6.31
 -11  -7   8   -2.08    6.13
  11   7  -9    7.20    5.77
  11   8   0  -10.05    6.48
 -11  -8   0   10.59    6.54
  11   8  -1    5.59    6.48
 -11  -8  -1   -1.07    5.77
  11   8   1    5.65    6.01
 -11  -8   1    2.86    5.89
  11   8  -2   42.17    8.98
 -11  -8   2   63.71   11.54
 -11   8  -2   48.30    7.79
  11   8  -3    4.10    5.41
 -11  -8   3   -0.24    5.23
 -11  -8   4    4.70    5.35
 -11  -8   5    3.45    6.07
  11   8  -6   24.69    7.44
 -11  -8   6   49.37   10.35
  11   8  -8   21.06    7.32
 -11  -8   8    8.03    6.54
  11   8  -9   -1.13    5.59
 -11  -8   9   -2.26    5.65
  11   9   0   -8.51    6.36
 -11  -9   0   -2.74    6.13
  11   9  -1   -0.42    5.95
 -11  -9  -1    6.36    5.89
  11   9   1    8.51    5.95
 -11  -9   1    1.61    6.19
  11  -9   2   -1.55    2.56
 -11  -9   2   -2.14    5.23
 -11   9  -2    1.07    2.80
 -11  -9   3    6.48    5.59
  11   9  -4   -1.90    4.94
 -11  -9   4    1.67    5.59
  11   9  -5   -0.42    6.13
 -11  -9   5    3.21    6.36
  11   9  -6   -8.80    6.78
 -11  -9   6   -9.10    6.60
  11   9  -7    4.28    6.78
 -11  -9   7    3.03    6.60
  11   9  -8   -5.00    5.95
 -11  -9   8    9.81    6.42
  11   9  -9   -0.06    5.59
 -11  -9   9    0.30    5.53
 -11 -10   0    2.68    6.36
 -11 -10  -1   17.43    6.66
 -11 -10   1   10.83    6.72
  11 -10   2    4.64    2.97
 -11  10  -2    4.22    3.09
  11 -10   3    7.38    3.39
  11  10  -3    1.19    5.77
 -11 -10   3   -1.96    5.77
  11  10  -4    5.47    6.36
 -11 -10   4    2.38    6.01
  11  10  -5   20.94    7.44
 -11 -10   5    8.21    6.72
  11  10  -6   91.48   16.36
 -11 -10   6  119.20   20.11
  11  10  -7   16.12    7.08
 -11 -10   7   11.90    6.90
  11  10  -8    7.08    6.13
 -11 -10   8   -0.95    5.95
  11  10  -9    5.53    5.35
 -11 -10   9   -0.54    5.59
  11  11   0   -1.37    6.54
 -11 -11   0    5.29    6.72
  11  11  -1   10.23    7.02
 -11 -11  -1   -9.64    6.48
 -11 -11   1    0.65    6.78
  11 -11   2    3.45    3.39
  11  11  -2   -2.14    5.77
 -11 -11   2    5.65    5.89
 -11  11  -2    1.67    3.39
  11 -11   3   13.21    4.40
  11  11  -3    4.34    6.19
 -11 -11   3   -5.71    6.19
 -11  11  -3    6.78    4.52
  11 -11   4    8.68    4.22
  11  11  -4   -0.95    6.66
 -11 -11   4    3.21    6.25
 -11  11  -4   11.90    4.88
  11  11  -5   11.54    7.02
 -11 -11   5   13.09    6.84
  11  11  -6   -5.12    6.90
 -11 -11   6   -1.25    6.84
  11  11  -7    6.60    6.42
 -11 -11   7    0.18    6.19
  11  11  -8   -7.61    5.71
 -11 -11   8    9.16    6.01
  11  12   0    5.23    7.14
 -11 -12   0    4.34    7.26
  11  12  -1   21.71    8.33
 -11 -12  -1    7.08    6.72
  11  12   1    5.89    6.60
 -11 -12   1    8.86    7.49
  11  12  -2    9.93    8.57
 -11 -12   2   -1.13    6.31
 -11  12  -2    5.95    4.94
  11 -12   3   -1.67    4.16
  11  12  -3    6.78    6.72
 -11 -12   3   -5.23    6.54
 -11  12  -3   11.96    5.17
  11 -12   4   26.95    6.25
  11  12  -4   28.67    8.39
 -11 -12   4   34.44    8.80
 -11  12  -4   14.10    5.53
  11  12  -5    4.40    6.36
 -11 -12   5   -0.30    6.36
 -11  12  -5   -0.89    4.94
  11  12  -6    3.21    5.89
 -11 -12   6   12.85    7.08
  11  12  -7    1.37    5.83
 -11 -12   7    1.67    6.13
  11  13   0    0.59    7.44
 -11 -13   0   -2.68    7.26
  11  13  -1  199.92   32.18
 -11 -13  -1  159.41   25.93
  11  13   1  167.26   27.06
 -11 -13   1  172.74   28.08
  11 -13   2   -2.62    4.82
  11  13  -2    4.10    7.67
 -11 -13   2   13.38    6.96
 -11  13  -2    4.52    5.12
  11 -13   3    6.60    4.76
  11  13  -3   15.41    7.08
 -11 -13   3   -5.06    6.42
 -11  13  -3   10.89    5.29
  11 -13   4   10.05    5.06
  11  13  -4   20.82    7.44
 -11 -13   4    5.00    6.42
 -11  13  -4   -4.10    5.12
  11 -13   5    0.48    4.52
  11  13  -5    4.28    5.95
 -11 -13   5    8.80    6.25
 -11  13  -5    6.54    4.76
  11  13  -6   13.44    5.95
 -11 -13   6   -2.74    5.59
 -11  13  -6    0.65    4.34
  11  13  -7   -3.57    6.01
  11  14   0   10.05    7.38
 -11 -14   0   -5.83    7.61
  11  14  -1    2.80    7.55
 -11 -14  -1    2.80    6.90
  11  14   1   -1.37    6.48
 -11 -14   1   -0.89    7.32
  11 -14   2    5.53    5.06
  11  14  -2   10.35    7.67
 -11 -14  -2   -0.36    6.25
 -11 -14   2   -1.19    7.14
 -11  14  -2   -0.59    5.23
  11 -14   3    1.01    4.64
  11  14  -3    1.55    6.19
 -11 -14   3    6.31    6.25
 -11  14  -3    3.69    4.88
  11 -14   4   -5.23    4.94
  11  14  -4    2.91    5.83
 -11 -14   4    1.72    6.01
 -11  14  -4   -3.51    4.82
  11 -14   5   -5.35    4.10
  11  14  -5    1.01    5.59
 -11  14  -5    3.51    4.52
  11 -14   6    1.49    4.10
  11  14  -6    5.06    5.65
 -11  14  -6    1.61    4.46
  11  15   0    1.25    6.54
 -11 -15   0    1.61    6.90
  11  15  -1    7.61    6.78
 -11 -15  -1   -9.58    6.54
  11  15   1   -0.24    6.31
 -11 -15   1    2.08    7.14
  11 -15   2   -7.38    5.00
  11  15  -2    4.10    6.84
 -11 -15  -2    2.38    6.13
 -11 -15   2   -2.74    5.83
 -11  15  -2    4.52    5.00
  11 -15   3    0.71    4.28
 -11  15  -3   -0.06    4.40
  11 -15   4    7.73    4.28
  11  15  -4    4.40    5.89
 -11  15  -4   -4.52    4.46
  11 -15   5    3.51    4.52
  11  15  -5   -1.31    5.47
 -11 -15   5   -0.65    5.06
 -11  15  -5    0.71    4.70
  11  16   0    5.41    6.19
  11  16  -1   -1.31    6.72
 -11 -16  -1   -1.25    5.71
  11  16   1   -3.69    5.83
  11 -16   2   -4.82    4.46
  11  16  -2   -0.71    6.60
 -11 -16  -2    4.82    5.95
 -11  16  -2    1.84    4.58
  11 -16   3    4.40    4.16
  11  16  -3    8.86    5.77
 -11 -16   3    1.90    5.59
  12   0   0   72.39   12.25
 -12   0   0   87.97   14.63
  12   0   1   38.07    8.09
  12   0  -1   38.78    7.79
 -12   0  -1   39.62    8.68
 -12   0   2  687.02  105.22
  12   0  -2  463.96   71.26
 -12   0   3   11.00    5.41
  12   0  -3    1.01    5.00
 -12   0   4  387.83   59.66
  12   0  -4  404.18   62.16
  12   1   0    1.19    5.77
 -12  -1   0    8.92    6.25
  12  -1   0    2.20    4.22
 -12   1   0    6.48    4.52
  12  -1   1   22.66    6.13
 -12   1   1   12.02    5.12
  12   1  -1   31.47    6.96
  12   1   1   12.67    6.01
 -12  -1   1   15.11    5.83
  12  -1  -1   19.27    5.35
 -12   1  -1   22.90    6.48
 -12   1   2   20.94    5.95
  12   1  -2   34.32    7.55
 -12  -1   2   23.97    6.78
  12  -1  -2   25.99    6.48
 -12   1   3   29.21    6.78
  12   1  -3   22.42    6.48
 -12  -1   3   24.51    6.78
  12   1  -4   20.70    6.13
 -12  -1   4   24.80    6.60
  12   1  -5    2.08    5.06
  12   2   0   20.52    7.02
 -12  -2   0    8.80    6.42
  12  -2   0   20.58    5.06
 -12   2   0    9.81    4.52
  12  -2   1   50.80    9.28
 -12   2   1   66.56   11.36
  12   2  -1   62.75   11.24
 -12  -2  -1   56.92   11.00
  12   2   1   55.79   10.53
 -12  -2   1   66.80   11.90
  12  -2  -1   45.62    8.45
 -12   2  -1   77.62   13.09
 -12   2   2    7.73    4.70
  12   2  -2   12.31    5.41
 -12  -2   2   20.46    6.31
  12  -2  -2   10.05    4.76
  12   2  -3   45.86    9.22
 -12  -2   3   18.62    6.48
  12   2  -4    9.81    5.47
 -12  -2   4    9.04    5.53
  12   2  -5   17.73    5.89
 -12  -2   5   18.32    5.71
  12   3   0  541.89   83.28
 -12  -3   0  600.77   92.32
  12  -3   0  613.26   93.80
 -12   3   0  718.55  109.80
  12  -3   1   32.30    6.72
 -12   3   1   36.94    7.26
  12   3  -1   36.22    7.73
 -12  -3  -1   45.68    9.64
  12   3   1   38.25    8.57
 -12  -3   1   25.34    6.96
  12  -3  -1   22.37    5.41
 -12   3  -1   33.90    7.20
  12   3  -2    3.99    5.17
 -12  -3   2    7.26    5.83
  12  -3  -2   -2.44    3.93
  12   3  -3   66.08   11.96
 -12  -3   3   46.93    9.52
  12   3  -4    8.27    5.47
 -12  -3   4   14.57    5.89
  12   3  -5   12.07    5.77
 -12  -3   5    8.15    5.29
  12   3  -6   22.25    6.48
 -12  -3   6   25.93    6.60
  12   4   0   -3.69    6.31
 -12  -4   0    5.23    6.72
  12  -4   0    3.63    3.57
 -12   4   0    1.31    3.75
  12  -4   1   -3.75    4.10
 -12   4   1   -5.71    3.81
  12   4  -1    2.26    5.17
 -12  -4  -1   -3.45    6.31
  12   4   1    6.72    5.77
 -12  -4   1    7.91    5.65
  12  -4  -1    1.78    3.57
 -12   4  -1   13.03    4.88
  12   4  -2    5.89    5.29
 -12  -4   2   -0.06    5.41
  12   4  -3   -2.68    4.94
 -12  -4   3   -0.95    5.06
  12   4  -4   15.29    6.13
 -12  -4   4    6.84    5.23
  12   4  -5    9.52    5.71
 -12  -4   5    8.45    5.47
  12   4  -6    5.53    5.59
 -12  -4   6   -0.18    5.12
  12   4  -7    3.09    5.59
 -12  -4   7    4.04    5.00
  12   5   0   21.95    7.08
 -12  -5   0   17.55    7.08
  12  -5   0   23.20    4.70
 -12   5   0   29.86    5.65
  12   5  -1   67.51   12.02
 -12  -5  -1   67.99   12.55
  12   5   1   84.64   14.57
 -12  -5   1   47.11    9.46
 -12   5  -1   81.85   13.09
  12   5  -2   75.96   13.26
 -12  -5   2   66.68   11.96
  12   5  -3   33.25    7.67
 -12  -5   3   29.03    7.08
  12   5  -4   29.38    7.67
 -12  -5   4   41.22    8.62
  12   5  -5   -0.54    5.77
 -12  -5   5   -1.19    5.17
  12   5  -6   53.47   10.41
 -12  -5   6   42.71    9.04
  12   5  -7  269.75   42.11
 -12  -5   7  256.49   40.03
  12   5  -8    6.54    6.25
  12   6   0    9.22    6.36
 -12  -6   0   22.90    7.26
  12  -6   1    3.93    2.32
  12   6  -1    5.59    5.53
 -12  -6  -1   12.97    6.36
  12   6   1   -1.55    5.47
 -12  -6   1    0.83    5.00
 -12   6  -1    2.44    2.56
  12   6  -2    3.45    5.35
 -12  -6   2    4.28    5.29
  12   6  -3    3.39    5.17
 -12  -6   3    9.04    5.35
  12   6  -4    5.23    5.47
 -12  -6   4   -4.76    5.53
  12   6  -5   -2.56    5.89
 -12  -6   5    5.71    5.71
  12   6  -6    1.96    5.95
 -12  -6   6   18.56    6.48
  12   6  -7    6.54    6.42
 -12  -6   7   21.06    7.02
  12   6  -8   13.15    6.54
 -12  -6   8   12.07    6.25
  12   7   0  259.64   40.63
 -12  -7   0  231.39   36.34
  12  -7   1    1.25    1.49
  12   7  -1    0.42    6.25
 -12  -7  -1  -12.91    6.19
  12   7   1   10.17    5.95
 -12  -7   1    4.76    5.65
  12   7  -2   33.79    7.91
 -12  -7   2   31.88    7.44
  12   7  -3    8.45    5.77
 -12  -7   3   -1.90    5.06
  12   7  -4   11.42    5.83
 -12  -7   4    5.00    5.47
  12   7  -5   -2.50    6.19
 -12  -7   5  -10.59    6.25
  12   7  -6   14.81    7.08
 -12  -7   6    6.90    6.25
  12   7  -7    6.31    6.60
 -12  -7   7   -2.80    6.25
 -12  -7   8   22.19    7.08
 -12  -7   9    3.21    5.47
  12   8   0   35.75    8.68
 -12  -8   0   26.95    7.55
  12   8  -1  111.95   18.92
 -12  -8  -1  163.22   25.99
  12   8   1  120.63   19.81
 -12  -8   1  134.91   22.01
  12   8  -2  132.53   21.53
 -12  -8   2  137.29   22.13
  12   8  -3   87.80   15.05
 -12  -8   3  100.58   16.83
  12   8  -4   71.56   12.97
 -12  -8   4   80.96   14.16
  12   8  -5   66.74   12.73
 -12  -8   5   83.69   14.81
  12   8  -6   11.24    6.48
 -12  -8   6   12.02    6.66
 -12  -8   7   18.20    7.26
 -12  -8   8   15.52    6.48
  12   8  -9   61.39   11.48
 -12  -8   9   47.59    9.58
  12   9   0   -2.02    6.07
 -12  -9   0    3.03    6.13
  12   9  -1    1.01    6.31
 -12  -9  -1    9.93    6.13
  12   9   1   11.18    6.13
 -12  -9   1    2.08    6.01
  12  -9   2    2.80    2.20
  12   9  -2   -1.37    5.53
 -12  -9  -2   -4.88    5.35
 -12  -9   2    0.71    5.23
 -12   9  -2    1.25    2.38
  12   9  -3    5.65    5.71
 -12  -9   3   -1.31    5.53
  12   9  -4    4.16    5.71
 -12  -9   4   16.36    6.42
 -12  -9   5   -1.07    6.31
 -12  -9   6    6.01    6.90
  12   9  -7    8.21    7.02
 -12  -9   7   -3.15    6.42
  12   9  -8    2.97    5.77
 -12  -9   8   -1.72    5.89
  12   9  -9    5.59    5.83
 -12  -9   9    1.25    5.83
  12  10   0   -5.71    6.48
 -12 -10   0   -3.57    6.42
  12  10  -1    5.77    6.78
 -12 -10  -1    2.74    6.31
  12  10   1    8.39    6.31
 -12 -10   1   11.66    7.14
  12  10  -2   24.09    6.54
 -12 -10   2    6.42    6.07
  12 -10   3    6.72    3.09
 -12 -10   3   25.10    7.32
 -12 -10   4   35.87    8.62
  12  10  -5   76.14   14.16
 -12 -10   5   76.20   13.86
  12  10  -6   13.62    7.38
 -12 -10   6   34.02    8.92
  12  10  -7   12.49    6.84
 -12 -10   7    7.61    6.60
  12  10  -8   -7.61    5.83
 -12 -10   8   -8.51    5.71
 -12 -11   0   -1.49    6.72
 -12 -11  -1    5.89    6.54
  12  11   1    0.95    6.01
 -12 -11   1    4.34    6.54
  12 -11   2    6.90    3.45
 -12 -11  -2    6.60    6.19
 -12 -11   2   13.80    6.42
  12 -11   3    0.54    3.57
  12  11  -3   -3.69    6.48
 -12 -11   3   -9.28    6.07
  12  11  -4   -0.95    6.48
 -12 -11   4    7.79    6.36
 -12  11  -4    5.47    4.10
  12  11  -5    4.94    6.31
 -12 -11   5   -0.65    6.36
  12  11  -6    0.95    5.71
 -12 -11   6  -11.18    6.72
  12  11  -7    2.08    6.13
 -12 -11   7   -6.84    5.89
  12  12   0   53.24   11.30
 -12 -12   0   61.56   12.43
  12  12  -1   76.02   14.63
 -12 -12  -1   96.18   16.77
 -12 -12   1   98.09   17.37
  12  12  -2   15.11    8.86
 -12 -12  -2    7.02    6.66
 -12 -12   2   12.67    6.72
 -12  12  -2    5.77    4.40
  12 -12   3   56.39    9.70
  12  12  -3   54.13   11.18
 -12 -12   3   55.91   11.24
 -12  12  -3   49.79    8.98
  12 -12   4    9.22    4.22
  12  12  -4    5.95    6.60
 -12 -12   4   18.38    7.14
 -12  12  -4    8.98    4.64
  12  12  -5   20.88    7.02
 -12 -12   5   21.53    7.20
  12  12  -6  -10.11    5.83
 -12 -12   6    8.33    5.83
  12  12  -7    5.00    6.01
 -12 -12   7   15.17    6.42
  12  13   0  800.04  122.95
 -12 -13   0  739.96  113.79
  12  13  -1   27.12    8.98
 -12 -13  -1   15.41    7.44
  12  13   1   14.81    7.20
 -12 -13   1   20.94    8.33
  12 -13   2   20.05    5.35
  12  13  -2    4.70    7.49
 -12 -13  -2   12.91    6.90
 -12 -13   2   20.11    7.32
 -12  13  -2   18.68    5.47
  12 -13   3   66.14   11.06
  12  13  -3   33.19    8.57
 -12 -13   3   50.38   10.47
 -12  13  -3   54.60    9.76
  12  13  -4   -5.59    5.77
 -12 -13   4    3.87    5.83
 -12  13  -4    1.61    4.52
  12 -13   5    5.06    3.93
  12  13  -5   11.24    6.13
 -12 -13   5   15.41    6.25
 -12  13  -5    3.99    4.16
  12  13  -6   72.63   13.15
 -12 -13   6   79.94   14.22
  12  14   0    5.47    6.84
 -12 -14   0   10.17    7.26
  12  14  -1    2.97    7.14
 -12 -14  -1   -7.20    6.60
  12  14   1   -2.62    6.36
 -12 -14   1    0.77    6.96
  12 -14   2   -4.82    4.40
  12  14  -2    5.95    6.90
 -12 -14  -2    0.59    6.19
 -12 -14   2    4.28    6.84
 -12  14  -2    1.43    4.52
  12 -14   3    2.08    3.93
  12  14  -3    4.52    5.89
 -12 -14   3    0.36    5.65
 -12  14  -3    4.16    4.40
  12 -14   4    4.88    4.10
  12  14  -4    2.08    5.65
 -12 -14   4   -2.38    5.35
 -12  14  -4   -7.49    4.28
  12 -14   5    1.31    3.81
  12  14  -5   -4.46    5.12
 -12 -14   5   -0.42    5.06
 -12  14  -5    5.83    4.22
  12  15   0    0.65    6.19
 -12 -15   0    6.48    6.66
  12  15  -1   11.72    6.66
 -12 -15  -1   -3.21    6.25
  12  15   1   -0.89    5.89
 -12 -15   1    4.22    6.42
  12 -15   2    9.46    4.52
  12  15  -2   13.62    6.84
 -12 -15  -2   11.96    6.19
 -12 -15   2    9.28    6.60
 -12  15  -2   -6.66    4.40
  12  15  -3   15.29    6.13
 -12 -15   3   10.41    5.83
 -12  15  -3    8.62    4.22
  12 -15   4   -2.02    3.99
  12  15  -4    4.16    5.53
 -12 -15   4   -1.25    5.47
 -12  15  -4   -5.95    4.28
  12  16   0    5.17    5.95
 -12 -16   0   -4.88    6.01
  12  16  -1    8.45    6.42
 -12 -16  -1   13.80    6.48
  12  16   1    5.12    5.83
 -12 -16   1    9.28    6.42
  13   0   0   -1.90    4.58
 -13   0   0    4.22    4.64
  13   0   1  173.51   27.36
 -13   0   1  111.65   18.08
  13   0  -1   88.51   14.57
 -13   0  -1  130.68   21.06
 -13   0   2    7.79    5.41
  13   0  -2   30.46    7.08
 -13   0   3 3295.33  502.63
  13   0  -3 3605.83  549.86
 -13   0   4  238.58   37.12
  13   0  -4  310.26   47.94
  13   1   0   -0.12    5.59
 -13  -1   0   -1.49    5.35
  13  -1   0   -0.71    4.10
 -13   1   0    2.44    4.28
  13  -1   1   13.21    5.29
 -13   1   1    3.03    4.52
  13   1  -1    6.31    5.00
 -13  -1  -1   -4.34    5.77
  13   1   1   -1.96    5.06
 -13  -1   1    8.45    5.23
  13  -1  -1    8.68    4.70
 -13   1  -1    8.98    5.47
 -13   1   2  152.87   24.21
  13   1  -2  152.51   24.15
 -13  -1   2  162.21   25.70
  13  -1  -2  140.08   22.19
 -13   1   3   -0.95    4.88
  13   1  -3    4.52    5.35
 -13  -1   3   14.57    5.77
  13  -1  -3   15.70    5.47
  13   1  -4   31.41    7.20
 -13  -1   4   21.35    6.19
  13   1  -5   14.63    5.65
 -13  -1   5    6.54    5.12
  13   2   0   -0.54    6.07
 -13  -2   0    1.90    6.19
  13  -2   0   -1.13    3.93
 -13   2   0    0.89    4.34
  13  -2   1   80.48   13.50
 -13   2   1   65.73   11.30
 -13  -2  -1   57.58   11.00
  13   2   1   57.22   10.89
 -13  -2   1   81.31   13.92
  13  -2  -1   48.66    9.04
 -13   2  -1   84.70   14.34
 -13   2   2   -0.48    4.52
  13   2  -2   -1.43    4.76
 -13  -2   2   -5.77    5.06
  13  -2  -2    2.62    4.58
  13   2  -3   89.94   15.23
 -13  -2   3   83.57   14.34
  13  -2  -3   88.51   14.51
  13   2  -4   10.71    5.53
 -13  -2   4    4.46    4.94
  13   2  -5   32.77    7.61
 -13  -2   5   24.33    6.31
  13   2  -6    1.61    5.35
  13   3   0  -10.89    6.25
 -13  -3   0   -0.30    5.95
  13  -3   0   -2.91    3.69
 -13   3   0   -0.06    4.28
  13  -3   1   36.76    7.49
 -13   3   1   63.17   10.89
  13   3  -1   48.54    9.34
 -13  -3  -1   47.47    9.93
  13   3   1   32.60    7.85
 -13  -3   1   44.14    8.92
  13  -3  -1   44.91    8.27
 -13   3  -1   44.85    8.62
 -13   3   2  181.30   28.25
  13   3  -2  239.95   37.41
 -13  -3   2  206.82   32.48
  13  -3  -2  195.28   30.34
  13   3  -3    5.59    5.59
 -13  -3   3    7.32    5.47
  13   3  -5   25.40    7.02
 -13  -3   5   15.41    5.77
  13   3  -6   35.04    7.97
 -13  -3   6   18.50    6.01
  13   4   0    3.27    6.13
 -13  -4   0    6.66    6.31
  13  -4   0   11.00    3.93
 -13   4   0   -0.42    3.93
  13  -4   1    1.67    4.28
 -13   4   1    2.86    4.16
  13   4  -1    3.39    5.12
 -13  -4  -1    3.75    6.25
  13   4   1    6.90    5.65
 -13  -4   1    4.82    5.29
  13  -4  -1    2.08    3.87
 -13   4  -1   -0.12    4.52
  13   4  -2    7.14    5.29
 -13  -4  -2   -1.31    5.59
 -13  -4   2    5.00    5.06
  13   4  -3   28.73    7.02
 -13  -4   3   45.27    8.80
  13   4  -4   10.71    5.71
 -13  -4   4   -1.84    5.41
  13   4  -5   10.94    5.83
 -13  -4   5    4.52    5.29
  13   4  -6    0.36    5.71
 -13  -4   6    3.87    5.23
  13   4  -7   34.02    8.21
 -13  -4   7   29.62    7.49
  13   5   0   -1.31    6.01
 -13  -5   0    0.42    5.89
  13  -5   0    2.02    3.33
  13  -5   1   45.98    8.09
  13   5  -1   52.46    9.93
 -13  -5  -1   68.29   12.31
  13   5   1   84.58   14.51
 -13   5  -1   41.64    7.38
  13   5  -2  723.31  110.88
 -13  -5  -2  506.49   77.80
 -13  -5   2  730.44  111.95
  13   5  -3    3.99    5.17
 -13  -5   3   -1.49    5.12
  13   5  -4  158.46   25.46
 -13  -5   4  173.27   27.54
  13   5  -5  113.43   18.80
 -13  -5   5  109.98   18.14
  13   5  -6  724.50  111.11
 -13  -5   6  662.63  101.71
  13   5  -7    6.96    6.42
 -13  -5   7    0.06    5.71
  13   5  -8   13.50    6.25
 -13  -5   8   17.79    6.25
  13   6   0    5.23    6.01
 -13  -6   0    6.48    6.13
  13  -6   0    5.71    2.97
  13  -6   1   14.93    3.57
  13   6  -1    9.70    5.89
 -13  -6  -1    2.91    6.01
  13   6   1   -1.96    5.59
 -13  -6   1    9.34    5.29
 -13   6  -1   12.43    3.51
  13   6  -2   24.80    6.90
 -13  -6  -2   -0.48    5.47
 -13  -6   2   13.32    5.77
  13   6  -4   -6.36    5.23
 -13  -6   4   -2.68    5.59
  13   6  -5    1.37    6.25
 -13  -6   5    2.86    5.89
  13   6  -6    4.22    6.31
 -13  -6   6    1.72    6.07
  13   6  -7   39.73    9.04
 -13  -6   7   61.56   11.72
  13   6  -8   10.05    6.01
 -13  -6   8    6.48    5.53
  13   6  -9    4.58    5.35
  13   7   0   10.65    6.42
 -13  -7   0   -3.15    6.07
  13  -7   1    1.31    1.96
  13   7  -1   13.03    6.60
 -13  -7  -1    4.34    5.95
  13   7   1    9.46    6.07
 -13  -7   1    2.62    5.29
 -13   7  -1    2.68    2.20
  13   7  -2   14.69    6.01
 -13  -7  -2    7.32    5.77
 -13  -7   2   13.68    5.83
  13   7  -3    3.09    5.65
 -13  -7   3   11.24    5.41
  13   7  -4   58.95   11.18
 -13  -7   4   61.74   11.42
  13   7  -5    9.76    6.66
 -13  -7   5    0.59    6.13
  13   7  -6   29.62    8.33
 -13  -7   6   16.71    7.02
  13   7  -7   -7.73    6.60
 -13  -7   7   -1.07    6.13
  13   7  -8    1.07    5.65
 -13  -7   8    5.17    5.59
  13   7  -9    5.53    5.59
 -13  -7   9    3.51    5.23
  13   8   0   -3.15    6.31
 -13  -8   0   -5.12    6.25
  13   8  -1  104.75   17.84
 -13  -8  -1   80.24   14.16
  13   8   1  109.45   18.20
 -13  -8   1  101.30   17.13
  13   8  -2   27.54    7.49
 -13  -8  -2   31.53    7.91
 -13  -8   2   29.74    7.26
  13   8  -3  184.99   29.44
 -13  -8   3  191.59   30.34
  13   8  -4   52.58   10.47
 -13  -8   4   68.82   12.55
  13   8  -5    7.91    7.08
 -13  -8   5   16.89    7.08
  13   8  -6    9.58    7.02
 -13  -8   6    9.81    6.78
  13   8  -7    3.45    6.19
 -13  -8   7    6.36    6.19
  13   8  -8    9.22    5.53
 -13  -8   8   -4.52    5.35
  13   9   0  -12.07    6.66
 -13  -9   0   -0.54    6.36
  13   9  -1   -0.18    6.54
 -13  -9  -1    6.42    6.07
  13   9   1    2.02    6.07
 -13  -9   1    8.33    6.60
  13   9  -2   13.74    6.31
 -13  -9  -2   -3.75    5.71
 -13  -9   2    4.16    5.53
  13   9  -3    5.35    6.13
 -13  -9   3    5.35    5.77
  13   9  -4    2.50    6.25
 -13  -9   4   -1.90    5.89
  13   9  -5    1.13    6.48
 -13  -9   5   11.84    6.36
  13   9  -6    3.81    6.72
 -13  -9   6    5.41    6.60
 -13  -9   7    6.78    6.01
 -13  -9   8   -1.61    5.47
  13  10   0    3.45    6.84
 -13 -10   0    0.18    6.54
  13  10  -1   10.11    7.26
 -13 -10  -1   -0.12    6.48
  13  10   1    1.67    6.25
 -13 -10   1   -1.55    6.72
  13 -10   2    7.32    2.62
  13  10  -2    7.14    6.36
 -13 -10  -2    7.91    6.13
 -13 -10   2   14.75    6.48
  13  10  -3  450.34   69.71
 -13 -10   3  453.20   70.07
 -13  10  -3  425.66   65.07
  13  10  -4   48.42   10.59
 -13 -10   4   48.95   10.41
 -13 -10   5   82.98   14.75
 -13 -10   6    9.04    6.54
  13  10  -7    7.02    6.13
 -13 -10   7    5.41    6.01
  13  11   0   -3.27    7.20
 -13 -11   0   -3.51    7.02
  13  11  -1   -3.63    7.49
 -13 -11  -1   -0.42    6.66
  13  11   1    1.07    6.84
 -13 -11   1    8.51    7.38
  13 -11   2   33.55    5.95
  13  11  -2   24.51    7.85
 -13 -11  -2   23.02    7.44
 -13 -11   2   29.44    8.09
 -13  11  -2   38.84    6.90
  13 -11   3    5.65    3.33
 -13 -11   3   17.61    7.14
 -13 -11   4    2.38    6.19
  13  11  -5    3.75    5.17
 -13 -11   5   -3.69    5.83
  13  11  -6    3.39    5.35
 -13 -11   6   13.26    6.66
  13  11  -7   -0.71    5.89
 -13 -11   7    4.88    5.77
 -13 -12   0    6.90    7.61
 -13 -12  -1   69.53   13.15
  13  12   1   70.90   13.38
 -13 -12   1   63.17   12.85
 -13 -12  -2    4.94    6.54
 -13 -12   2   -5.17    6.13
  13 -12   3    2.97    3.51
  13  12  -3   -3.09    6.01
 -13 -12   3   -5.83    6.13
  13 -12   4   -2.08    3.27
  13  12  -4   -0.83    6.01
 -13 -12   4   11.84    6.07
 -13  12  -4    8.03    4.22
  13  12  -5   53.59   10.59
 -13 -12   5   32.60    8.15
  13  12  -6    1.43    5.59
 -13 -12   6   16.48    6.07
 -13 -13   0   -3.09    6.96
  13  13  -1    8.98    7.49
 -13 -13  -1   13.68    7.38
 -13 -13   1    6.60    7.38
  13 -13   2   62.40   10.41
  13  13  -2   57.82   11.96
 -13 -13  -2   52.05   10.53
 -13 -13   2   98.38   16.95
 -13  13  -2   51.10    8.98
  13 -13   3   11.48    3.93
  13  13  -3    7.32    6.13
 -13 -13   3   17.49    6.84
 -13  13  -3    2.74    3.99
  13 -13   4   25.87    5.35
  13  13  -4   20.52    6.84
 -13 -13   4   21.24    6.84
 -13  13  -4   21.95    5.29
  13  13  -5    3.63    5.47
 -13 -13   5    9.58    5.59
 -13  13  -5    8.15    3.99
  13  14   0    8.15    6.36
 -13 -14   0    6.31    7.02
  13  14  -1    0.42    6.54
 -13 -14  -1    2.02    6.36
  13  14   1    1.84    6.01
 -13 -14   1   -0.54    6.72
  13 -14   2    2.80    3.63
  13  14  -2   10.71    6.60
 -13 -14  -2   -3.45    5.59
  13  14   2   -1.78    5.53
 -13 -14   2    2.91    6.19
 -13  14  -2   -1.49    3.75
  13 -14   3   19.75    4.70
  13  14  -3   13.56    6.07
 -13 -14   3   16.00    6.19
 -13  14  -3   15.17    4.64
  13 -14   4    2.62    3.69
  13  14  -4    3.63    5.53
 -13 -14   4  -10.17    5.77
 -13  14  -4    3.15    4.22
  13  15   0   -4.46    5.77
 -13 -15   0   -2.80    6.42
  13  15  -1   -2.91    6.25
 -13 -15  -1   -1.01    5.71
  13  15   1    2.74    5.89
 -13 -15   1    1.55    6.19
  13 -15   2    4.22    3.81
  13  15  -2   -1.31    6.72
 -13 -15  -2   -6.13    5.35
  13  15   2    4.88    5.77
 -13 -15   2    2.56    6.19
 -13  15  -2    0.95    3.87
  14   0   0   17.61    5.41
 -14   0   0   29.09    6.90
  14   0   1   12.49    5.71
 -14   0   1   18.38    5.71
  14   0  -1    3.99    4.76
 -14   0  -1   15.11    6.36
 -14   0   2    9.58    5.53
  14   0  -2    0.00    5.12
 -14   0  -2    8.92    5.47
 -14   0   3    0.12    5.00
  14   0  -3    2.68    5.17
 -14   0   4    0.95    5.17
  14   0  -4   -2.38    4.82
  14   0  -5  324.36   50.14
  14   1   0   14.57    6.19
 -14  -1   0   19.09    5.89
  14  -1   0    8.74    4.64
 -14   1   0   23.44    5.95
  14  -1   1    5.06    5.29
 -14   1   1    1.25    4.64
  14   1  -1    4.52    4.88
 -14  -1  -1    0.59    5.89
  14   1   1   14.81    6.07
 -14  -1   1    6.84    5.29
  14  -1  -1    4.04    4.34
 -14   1  -1    8.09    5.71
 -14   1   2   11.66    5.47
  14   1  -2   14.93    5.29
 -14  -1  -2    6.66    5.47
 -14  -1   2   19.99    6.07
  14  -1  -2   19.39    6.01
 -14   1  -2   17.31    5.95
 -14   1   3    1.90    5.00
  14   1  -3   -0.71    5.29
 -14  -1   3    3.69    5.29
  14  -1  -3    6.42    5.06
 -14   1   4   17.79    5.47
  14   1  -4   15.58    5.83
 -14  -1   4    4.52    5.41
  14  -1  -4   10.94    5.41
  14   1  -5    1.01    5.41
 -14  -1   5    0.59    5.06
  14   2   0    4.34    5.89
 -14  -2   0   20.76    7.14
  14  -2   0    5.89    4.16
 -14   2   0   14.99    5.29
  14  -2   1   12.31    5.59
 -14   2   1   31.05    6.96
  14   2  -1    7.79    5.06
 -14  -2  -1   29.56    7.91
  14   2   1   20.94    6.66
 -14  -2   1   12.49    5.65
  14  -2  -1    9.70    4.52
 -14   2  -1   32.00    7.61
 -14   2   2    5.35    4.82
  14   2  -2    2.68    5.06
 -14  -2  -2    1.72    5.65
 -14  -2   2   -1.43    5.23
  14  -2  -2   -0.06    4.52
 -14   2  -2   -5.77    4.82
 -14   2   3    5.53    4.94
  14   2  -3   10.17    5.65
 -14  -2   3   19.69    6.42
  14  -2  -3   16.66    5.29
  14   2  -4   10.89    5.65
 -14  -2   4    3.75    5.06
  14   2  -5    5.95    5.77
 -14  -2   5    5.83    5.29
  14   2  -6   13.44    5.95
 -14  -2   6   18.20    5.95
  14   3   0  159.00   25.52
 -14  -3   0  172.50   27.54
  14  -3   0  149.96   23.50
 -14   3   0  153.11   24.09
  14  -3   1   -0.65    4.88
 -14   3   1   10.59    5.06
  14   3  -1   -2.56    4.76
 -14  -3  -1    1.55    6.36
  14   3   1    2.97    5.95
 -14  -3   1    6.13    5.29
  14  -3  -1    9.46    4.76
 -14   3  -1    2.32    5.12
 -14   3   2   17.49    5.41
  14   3  -2   27.30    6.78
 -14  -3  -2   14.69    6.36
 -14  -3   2   18.86    6.07
  14  -3  -2    8.92    4.70
  14   3  -3    2.38    5.00
 -14  -3   3   -2.56    5.29
  14   3  -4    0.65    5.65
 -14  -3   4   -3.99    5.17
  14   3  -5    9.70    5.89
 -14  -3   5    2.68    5.59
  14   3  -6   90.83   15.47
 -14  -3   6   71.32   12.67
  14   3  -7   -0.30    5.77
  14   4   0    1.90    5.95
 -14  -4   0    1.43    6.25
  14  -4   0   -2.26    3.81
 -14   4   0   -0.18    3.87
  14  -4   1   -3.27    4.52
 -14   4   1    5.89    4.46
  14   4  -1    2.91    5.00
 -14  -4  -1    1.67    6.07
  14   4   1    1.72    5.53
 -14  -4   1    8.86    5.29
  14  -4  -1   -2.32    4.22
 -14   4  -1   -1.61    4.76
  14   4  -2   -0.59    4.94
 -14  -4  -2    4.88    5.83
 -14  -4   2    1.90    5.17
  14  -4  -2    1.19    4.04
  14   4  -3    5.95    5.35
 -14  -4   3    6.96    5.12
  14   4  -4   -5.35    5.77
 -14  -4   4   -2.20    5.47
  14   4  -5   10.53    6.31
 -14  -4   5    8.27    5.71
  14   4  -6    1.72    6.07
 -14  -4   6   -1.61    5.59
  14   4  -7   10.83    6.13
 -14  -4   7    3.33    5.41
  14   4  -8   -0.12    5.41
  14   5   0   78.70   14.10
 -14  -5   0   77.09   13.74
  14  -5   0   97.43   15.52
 -14   5   0   67.33   11.18
  14  -5   1    0.12    4.46
 -14   5   1    6.13    3.81
  14   5  -1   25.99    6.78
 -14  -5  -1    6.84    6.31
  14   5   1    1.07    5.89
  14  -5  -1   11.48    4.28
  14   5  -2  159.29   25.40
 -14  -5  -2  100.58   16.71
 -14  -5   2  126.64   20.52
  14   5  -4   73.46   13.44
 -14  -5   4   83.99   14.51
  14   5  -5   35.75    8.68
 -14  -5   5   55.97   10.77
  14   5  -6  195.64   31.11
 -14  -5   6  247.68   38.72
  14   5  -7   13.38    6.60
 -14  -5   7   14.81    6.42
  14   5  -8    3.87    5.59
 -14  -5   8   11.66    5.77
  14   6   0    0.30    6.01
 -14  -6   0   -5.00    5.95
  14  -6   0    3.45    3.45
 -14   6   0   -4.94    3.51
  14  -6   1    2.91    3.15
  14   6  -1    0.89    5.77
 -14  -6  -1    7.91    5.95
  14   6   1   -1.25    5.95
 -14  -6   1    8.33    5.23
 -14   6  -1    4.16    3.39
  14   6  -2    2.86    5.71
 -14  -6  -2   -2.32    5.59
  14   6   2    6.48    5.95
 -14  -6   2   14.63    5.95
  14   6  -3   -4.04    5.71
 -14  -6   3   10.17    5.77
  14   6  -4    0.06    5.53
 -14  -6   4    5.41    5.59
  14   6  -5   -0.77    6.54
 -14  -6   5    8.51    6.13
  14   6  -6    2.62    6.42
 -14  -6   6   -0.24    6.01
  14   6  -7    3.33    5.95
 -14  -6   7    5.53    5.71
  14   6  -8    7.32    5.95
 -14  -6   8    2.74    5.12
  14   7   0   26.17    8.03
 -14  -7   0   42.23    9.52
  14  -7   1    3.93    2.56
  14   7  -1    1.61    6.42
 -14  -7  -1    6.96    6.42
  14   7   1   14.63    6.78
 -14  -7   1    0.12    5.29
 -14   7  -1    7.08    2.91
  14   7  -2    0.54    5.53
 -14  -7  -2   -6.60    5.71
  14   7   2    3.33    5.89
 -14  -7   2   -6.90    5.47
  14   7  -3    2.32    5.65
 -14  -7   3   -0.30    5.12
  14   7  -4   30.87    8.03
 -14  -7   4   13.86    6.01
  14   7  -5    6.60    6.78
 -14  -7   5   -1.07    6.25
  14   7  -6   24.33    7.73
 -14  -7   6   10.77    6.48
  14   7  -7   -4.94    6.13
 -14  -7   7   10.35    6.07
  14   7  -8   -3.87    5.41
 -14  -7   8   -0.18    5.12
  14   8   0   -7.91    6.66
 -14  -8   0    6.25    6.60
  14  -8   1    6.60    2.14
  14   8  -1    7.61    6.90
 -14  -8  -1    1.90    6.31
  14   8   1    1.84    6.13
 -14  -8   1   -1.61    6.36
  14   8  -2    8.27    6.19
 -14  -8  -2   18.97    6.78
  14   8   2   14.51    6.48
 -14  -8   2   20.22    6.54
  14   8  -3  185.23   29.56
 -14  -8   3  215.74   34.02
  14   8  -4    7.73    6.42
 -14  -8   4    3.57    5.77
  14   8  -5   82.56   14.69
 -14  -8   5   91.48   16.12
  14   8  -6    1.84    6.36
 -14  -8   6   -0.59    5.89
  14   8  -7   17.43    6.90
 -14  -8   7    5.12    5.65
  14   8  -8   -0.89    5.59
 -14  -8   8    1.19    5.06
  14   9   0   -9.28    6.90
 -14  -9   0    3.75    6.48
  14   9  -1    2.14    6.96
 -14  -9  -1    9.99    6.60
  14   9   1   -1.61    6.48
 -14  -9   1    6.36    6.42
  14   9  -2    4.52    6.19
 -14  -9  -2    9.70    6.42
  14   9   2    0.42    6.42
 -14  -9   2    7.85    5.89
  14   9  -3    1.01    6.19
 -14  -9   3   -1.61    5.77
  14   9  -4    2.86    6.19
 -14  -9   4    0.48    6.07
  14   9  -5   -7.91    5.95
 -14  -9   5    1.61    5.65
  14   9  -6    4.88    6.31
 -14  -9   6    9.16    6.07
  14   9  -7    5.77    5.71
 -14  -9   7   -0.65    5.17
  14  10   0   -1.55    7.08
 -14 -10   0    8.27    7.08
  14  10  -1    9.87    7.67
 -14 -10  -1    0.24    6.66
  14  10   1   17.84    7.38
 -14 -10   1    1.13    6.96
  14 -10   2   -0.06    2.08
  14  10  -2   12.61    6.72
 -14 -10  -2   -2.32    6.07
  14  10   2   -1.31    6.48
 -14 -10   2   13.62    6.48
  14  10  -3   35.39    8.86
 -14 -10   3   36.46    8.68
  14  10  -4    1.49    6.25
 -14 -10   4  -14.93    5.95
  14  10  -5   95.77   16.60
 -14 -10   5   88.27   15.29
  14  10  -6   15.29    6.54
 -14 -10   6   18.74    6.66
  14  10  -7    1.90    4.40
 -14 -10   7    2.32    5.89
  14  11   0    6.07    7.02
 -14 -11   0    5.95    7.08
  14  11  -1   11.24    7.67
 -14 -11  -1   14.04    6.96
  14  11   1   14.16    6.90
 -14 -11   1    8.68    6.96
  14 -11   2   -2.20    2.38
  14  11  -2   13.44    6.96
 -14 -11  -2    6.96    6.13
  14  11   2    2.14    6.36
 -14 -11   2    0.42    5.95
 -14  11  -2    2.74    2.50
  14 -11   3    4.10    2.62
  14  11  -3    5.12    6.13
 -14 -11   3   -0.06    5.95
 -14  11  -3    2.91    3.09
  14  11  -4    6.84    5.95
 -14 -11   4    8.86    6.07
  14  11  -5   -3.45    4.46
 -14 -11   5    3.27    5.41
 -14 -11   6   -5.59    5.65
  14  12   0   17.37    7.73
 -14 -12   0   19.63    7.61
  14  12  -1    1.78    6.90
 -14 -12  -1   12.31    7.02
  14  12   1   17.84    7.32
 -14 -12   1    5.95    6.96
  14  12  -2    4.64    6.54
 -14 -12  -2    0.00    5.77
  14  12   2    5.06    6.13
 -14 -12   2   11.30    6.31
 -14  12  -2    3.99    2.91
  14 -12   3   36.11    6.42
  14  12  -3   14.63    5.41
 -14 -12   3   31.76    8.03
 -14 -12   4    2.62    5.29
 -14  12  -4    0.59    3.15
 -14 -12   5    7.44    5.53
  14  13   0  202.95   32.42
 -14 -13   0  239.71   37.89
 -14 -13  -1   18.32    7.08
  14  13   1   11.06    6.25
 -14 -13   1    5.89    6.48
  14 -13   2    4.34    2.97
 -14 -13  -2    1.67    5.29
  14  13   2    3.81    5.71
 -14 -13   2   -0.54    5.41
  14 -13   3   -2.32    2.80
 -14 -13   3   -2.20    5.29
 -14  13  -3   -1.49    2.32
  14 -13   4    0.06    2.97
  14  13  -4    2.86    5.41
 -14 -13   4    5.41    5.41
 -14 -14   0   12.37    6.60
  14  14  -1    9.81    6.25
 -14 -14  -1   -4.88    5.77
 -14 -14   1   -7.32    6.13
  14 -14   2    1.31    3.15
  14  14  -2    1.31    6.13
 -14 -14  -2   -1.31    5.53
 -14 -14   2    2.14    6.07
 -14  14  -2    3.87    3.27
  15   0   1   67.57   12.13
 -15   0   1   41.70    8.57
  15   0  -1   48.78    9.16
 -15   0  -1   66.14   12.13
  15   0   2   -2.44    5.17
 -15   0   2    0.54    5.17
  15   0  -2   -7.91    4.76
 -15   0  -2    0.30    5.41
 -15   0   3   34.98    7.85
  15   0  -3   46.28    9.28
 -15   0   4    0.95    5.23
  15   0  -4    5.83    5.53
 -15   0   5  322.57   49.85
  15   0  -5  356.36   55.02
  15   1   0    1.90    5.71
 -15  -1   0   -3.39    5.12
  15  -1   0    1.07    4.52
 -15   1   0   -3.69    5.00
  15  -1   1   -9.04    5.83
 -15   1   1    2.68    5.00
  15   1  -1    2.08    4.82
 -15  -1  -1    4.70    6.36
  15   1   1    0.65    5.47
 -15  -1   1   -8.21    5.17
  15  -1  -1   -0.12    4.64
 -15   1  -1   -3.51    6.19
  15  -1   2    3.81    5.17
 -15   1   2    2.97    5.41
  15   1  -2    2.86    4.88
 -15  -1  -2    0.24    5.77
  15   1   2    0.54    5.17
 -15  -1   2   -0.65    4.94
  15  -1  -2    4.52    5.12
 -15   1  -2    0.06    5.59
 -15   1   3   -2.32    5.00
  15   1  -3    1.78    5.65
 -15  -1   3   -6.84    5.47
  15  -1  -3   -3.27    5.17
 -15   1   4   15.29    5.53
  15   1  -4   23.20    6.90
 -15  -1   4   18.38    6.19
  15  -1  -4   10.41    5.53
  15   1  -5    9.76    5.89
 -15  -1   5    6.60    5.41
  15   1  -6    7.97    5.71
  15   2   0   -2.08    5.83
 -15  -2   0   -9.04    6.31
  15  -2   0   -4.16    4.52
 -15   2   0   -7.49    4.94
  15  -2   1   -0.83    5.23
 -15   2   1    3.63    5.06
  15   2  -1   -0.59    5.06
 -15  -2  -1   -0.36    6.19
  15   2   1   -1.84    5.95
 -15  -2   1    3.75    5.00
  15  -2  -1    1.07    4.52
 -15   2  -1    4.94    5.89
 -15   2   2    3.21    5.17
  15   2  -2    6.66    5.06
 -15  -2  -2    8.62    5.77
  15   2   2    5.59    5.41
 -15  -2   2    0.30    5.47
  15  -2  -2    6.42    5.12
 -15   2  -2   -2.50    5.29
 -15   2   3   11.60    5.59
  15   2  -3    4.82    5.89
 -15  -2   3    9.16    5.83
  15  -2  -3    5.29    5.00
  15   2  -4    3.45    5.83
 -15  -2   4    3.21    5.53
  15   2  -5   16.36    6.48
 -15  -2   5   14.34    5.95
  15   2  -6   -3.27    5.65
 -15  -2   6    1.55    4.94
  15   3   0    9.10    6.31
 -15  -3   0   -9.40    6.60
  15  -3   0    6.72    4.46
 -15   3   0   -1.84    4.52
  15  -3   1    1.07    5.23
 -15   3   1   -1.07    5.00
  15   3  -1    3.69    5.06
 -15  -3  -1   -7.02    6.42
  15   3   1    9.16    6.25
 -15  -3   1    7.14    5.35
  15  -3  -1   -1.01    4.76
 -15   3  -1    5.59    5.59
 -15   3   2    1.84    5.06
  15   3  -2   -1.07    5.23
 -15  -3  -2    2.80    5.77
  15   3   2    6.72    5.77
 -15  -3   2   -6.60    5.23
  15  -3  -2    7.91    4.88
 -15   3  -2   -0.12    5.00
  15   3  -3   -3.99    5.29
 -15  -3   3    1.43    5.65
  15  -3  -3    5.71    5.06
  15   3  -4    9.10    6.07
 -15  -3   4    3.87    5.59
  15   3  -5   -1.84    6.07
 -15  -3   5    8.27    5.71
  15   3  -6   -1.13    5.53
 -15  -3   6   -5.83    5.23
  15   3  -7    2.32    5.53
 -15  -3   7   -2.97    5.00
  15   4   0    9.04    6.54
 -15  -4   0    2.68    6.54
  15  -4   0    6.66    4.34
 -15   4   0    3.09    4.40
  15  -4   1    1.84    5.06
 -15   4   1   -1.84    4.58
  15   4  -1   -1.72    5.00
 -15  -4  -1   -0.36    6.19
  15   4   1    2.62    6.13
 -15  -4   1   -1.43    5.35
 -15   4  -1   -5.83    5.95
 -15   4   2    0.71    4.64
  15   4  -2   -0.24    5.53
 -15  -4  -2    3.57    5.77
  15   4   2    1.72    6.01
 -15  -4   2   -1.01    5.23
  15  -4  -2    9.52    4.76
 -15   4  -2    0.06    5.00
  15   4  -3    4.28    5.59
 -15  -4   3   11.24    5.77
  15   4  -4   -0.89    6.36
 -15  -4   4    1.67    5.83
  15   4  -5   12.85    6.48
 -15  -4   5   18.68    6.42
  15   4  -6    7.02    5.95
 -15  -4   6   -3.87    5.29
  15   4  -7    0.00    5.83
 -15  -4   7   -0.24    5.23
  15   4  -8   -1.72    5.00
 -15  -4   8    1.72    4.94
  15   5   0    7.32    6.60
 -15  -5   0   -1.96    6.13
  15  -5   0    7.44    4.16
 -15   5   0    3.33    4.40
  15  -5   1    3.03    4.70
 -15   5   1    5.06    4.28
  15   5  -1   27.66    7.26
 -15  -5  -1    2.97    6.42
  15   5   1    1.55    6.36
  15  -5  -1    9.46    4.40
  15   5  -2    3.21    5.65
 -15  -5  -2    0.48    6.01
  15   5   2   15.41    6.66
 -15  -5   2   16.48    6.31
 -15   5  -2    6.60    4.82
  15   5  -3    0.24    5.59
 -15  -5   3   10.41    6.07
  15   5  -4  244.29   38.25
 -15  -5   4  262.56   40.98
  15   5  -5    3.99    6.25
 -15  -5   5   11.78    6.13
  15   5  -6    7.79    6.54
 -15  -5   6   18.26    6.42
  15   5  -7    4.22    5.77
 -15  -5   7   -0.89    5.35
  15   5  -8   -8.57    4.88
 -15  -5   8    9.10    5.00
  15   6   0    6.36    6.66
 -15  -6   0   -8.45    6.72
  15  -6   0    0.30    3.63
 -15   6   0   -0.30    3.87
  15  -6   1    1.25    3.63
  15   6  -1   -6.42    6.13
 -15  -6  -1    2.02    6.42
  15   6   1    3.87    6.42
 -15  -6   1    5.77    5.77
 -15   6  -1    3.45    3.87
  15   6  -2    2.14    5.71
 -15  -6  -2    5.23    6.13
  15   6   2    8.92    6.36
 -15  -6   2    3.63    5.59
 -15   6  -2   -7.32    4.40
  15   6  -3   -0.24    5.59
 -15  -6   3    2.44    5.71
  15   6  -4   11.54    6.36
 -15  -6   4    7.97    5.89
  15   6  -5    4.88    6.90
 -15  -6   5    7.38    6.19
  15   6  -6   10.35    6.54
 -15  -6   6   -2.97    5.89
  15   6  -7    3.51    5.59
 -15  -6   7   -0.59    5.12
  15   6  -8   -0.30    5.00
 -15  -6   8   -1.07    4.88
  15   7   0    6.66    6.60
 -15  -7   0    0.06    6.72
  15  -7   0   -2.32    3.33
  15  -7   1    4.34    3.03
  15   7  -1   -0.54    6.78
 -15  -7  -1    6.36    6.72
  15   7   1    2.74    6.19
 -15  -7   1    8.15    5.77
 -15   7  -1    4.88    3.21
  15   7  -2    0.59    5.89
 -15  -7  -2    6.60    6.07
  15   7   2    0.42    5.83
 -15  -7   2    4.70    5.77
 -15   7  -2    7.79    3.93
  15   7  -3   -1.07    6.07
 -15  -7   3    3.51    5.83
  15   7  -4    0.36    6.19
 -15  -7   4   12.31    6.31
  15   7  -5   -2.91    6.60
 -15  -7   5   -1.55    6.25
  15   7  -6    2.38    6.19
 -15  -7   6    6.36    5.95
  15   7  -7    9.81    5.95
 -15  -7   7   -1.55    5.41
  15   8   0    4.10    7.02
 -15  -8   0    0.95    6.78
  15  -8   1   55.50    8.92
  15   8  -1   84.29   15.35
 -15  -8  -1   53.47   11.06
  15   8   1   47.70   10.23
 -15  -8   1   72.63   13.56
 -15   8  -1   63.23   10.05
  15   8  -2   11.00    6.60
 -15  -8  -2    1.13    6.07
  15   8   2    2.50    6.01
 -15  -8   2    0.18    5.83
 -15   8  -2    3.99    3.27
  15   8  -3    8.51    6.36
 -15  -8   3    1.61    5.83
  15   8  -4    7.61    6.31
 -15  -8   4   15.35    6.48
  15   8  -5   -1.67    5.77
 -15  -8   5    9.28    6.31
  15   8  -6   -0.18    6.01
 -15  -8   6    3.87    5.77
  15   8  -7   -3.81    5.77
 -15  -8   7   13.80    6.19
  15   9   0    7.73    7.20
 -15  -9   0   -0.24    6.96
  15   9  -1  -11.12    7.14
 -15  -9  -1   -3.87    6.84
  15   9   1    5.53    6.90
 -15  -9   1   11.06    7.08
  15   9  -2    8.74    6.48
 -15  -9  -2   12.02    6.60
  15   9   2    3.81    6.42
 -15  -9   2    6.13    6.01
  15   9  -3    9.28    6.31
 -15  -9   3    1.31    5.65
  15   9  -4    3.39    6.19
 -15  -9   4    2.68    5.59
  15   9  -5    3.63    5.65
 -15  -9   5    2.02    5.35
  15   9  -6    3.87    5.83
 -15  -9   6   -2.38    5.35
  15  10   0   11.06    7.38
 -15 -10   0   -1.37    6.72
  15  10  -1   21.77    8.21
 -15 -10  -1   16.71    7.32
  15  10   1    7.14    6.96
 -15 -10   1   12.25    7.08
  15  10  -2  -11.72    6.13
 -15 -10  -2    0.36    5.95
  15  10   2   -3.87    6.07
  15  10  -3   -0.12    5.89
 -15 -10   3    2.62    5.53
  15  10  -4    4.58    5.77
 -15 -10   4   -2.68    5.29
  15  10  -5   25.16    7.26
 -15 -10   5   20.88    6.48
  15  10  -6    0.18    5.06
 -15 -10   6    1.90    5.65
  15  11   0    1.25    6.78
 -15 -11   0    4.22    6.54
  15  11  -1    5.65    6.96
 -15 -11  -1   -1.01    6.25
  15  11   1    8.68    6.48
 -15 -11   1   12.43    7.02
  15 -11   2    3.69    1.84
  15  11  -2    3.33    5.65
 -15 -11  -2    1.37    5.77
  15  11   2   -0.54    6.01
 -15 -11   2    9.40    5.77
  15  11  -3    1.13    5.83
 -15 -11   3    7.44    5.53
 -15  11  -3    2.80    2.44
  15  11  -4    0.42    5.29
 -15 -11   4    2.74    5.23
  15  11  -5    0.65    5.47
 -15 -11   5   -1.49    4.76
  15  12   0    4.04    6.54
 -15 -12   0  -11.54    6.48
  15  12  -1    7.49    6.84
 -15 -12  -1    1.37    6.01
  15  12   1    3.33    6.01
 -15 -12   1   -2.91    6.07
  15  12  -2    7.20    6.36
 -15 -12  -2  -13.38    5.71
  15  12   2   -0.83    5.59
 -15 -12   2    6.84    5.29
  15 -12   3    0.54    2.32
  15  12  -3    3.09    5.47
 -15 -12   3   16.30    5.89
 -15  12  -3    8.62    3.21
  15  12  -4   -1.37    5.35
 -15 -12   4    1.61    5.23
  15  13   0    2.14    6.19
 -15 -13   0    1.43    5.71
  15  13  -1   -5.65    6.19
 -15 -13  -1    3.81    5.53
  15  13   1    1.25    5.71
 -15 -13   1    4.70    5.83
  15 -13   2    0.77    2.44
  15  13  -2   -0.42    6.25
 -15 -13  -2    7.38    5.53
  15  13   2   10.77    5.77
 -15 -13   2    3.93    5.17
  16   0   1  172.08   27.42
 -16   0   1  215.98   33.90
  16   0  -1  197.54   31.05
 -16   0  -1  203.67   32.18
  16   0   2  368.20   56.81
 -16   0   2  526.12   80.90
  16   0  -2  506.49   77.86
 -16   0  -2  343.99   53.18
 -16   0   3   18.44    6.42
  16   0  -3   23.85    7.14
 -16   0   5    7.79    5.47
  16   0  -5   16.30    6.13
  16   1   0   14.39    6.84
 -16  -1   0    2.02    5.23
  16  -1   0    0.83    5.00
 -16   1   0   -2.97    5.47
  16  -1   1   65.07   12.13
 -16   1   1   27.48    7.14
  16   1  -1   55.97   10.53
 -16  -1  -1   62.64   12.13
  16   1   1   43.07    9.64
 -16  -1   1   45.33    9.10
  16  -1  -1   48.24    9.40
 -16   1  -1   34.44    8.74
  16  -1   2   15.94    6.48
 -16   1   2   21.89    6.90
  16   1  -2   14.04    5.89
 -16  -1  -2    7.44    6.42
  16   1   2    9.52    6.13
 -16  -1   2   14.75    5.83
  16  -1  -2   13.74    6.36
 -16   1  -2   18.20    6.90
 -16   1   3   13.03    6.01
  16   1  -3   11.90    6.25
 -16  -1   3   25.28    7.02
  16  -1  -3   13.92    6.13
 -16   1   4   18.26    6.19
  16   1  -4    5.29    6.01
 -16  -1   4    2.68    5.83
  16  -1  -4    7.55    5.89
  16   1  -5    4.40    5.89
 -16  -1   5   -1.19    5.12
  16  -1  -5    5.23    5.35
  16   1  -6    1.96    5.53
 -16  -1   6    1.96    5.12
  16   2   0   51.93   10.65
 -16  -2   0   50.56   10.83
  16  -2   0   53.30    9.87
 -16   2   0   58.41   10.65
  16  -2   1   -0.36    6.13
 -16   2   1    8.21    5.59
  16   2  -1    4.70    5.35
 -16  -2  -1    0.59    6.31
  16   2   1    5.23    6.25
 -16  -2   1   -2.38    5.29
  16  -2  -1   -2.74    5.06
 -16   2  -1   -0.71    6.25
  16  -2   2   30.93    7.61
 -16   2   2   13.09    6.19
  16   2  -2   26.59    7.14
 -16  -2  -2   11.66    6.42
  16   2   2   23.26    7.14
 -16  -2   2   21.24    6.48
  16  -2  -2   30.04    7.44
 -16   2  -2   29.44    7.61
 -16   2   3  -11.12    5.77
  16   2  -3   15.52    6.60
 -16  -2   3    2.86    5.89
  16  -2  -3    1.01    5.41
  16   2  -4   11.54    6.54
 -16  -2   4    4.64    5.59
  16  -2  -4   11.90    5.95
  16   2  -5   19.51    6.78
 -16  -2   5   11.60    5.77
  16   2  -6    6.90    5.71
 -16  -2   6   -0.42    5.29
  16   2  -7   -4.88    5.06
  16   3   0  108.50   18.38
 -16  -3   0   88.57   15.58
  16  -3   0   86.43   14.34
 -16   3   0   99.22   16.30
  16  -3   1   74.77   13.09
 -16   3   1   51.21    9.81
  16   3  -1   45.62    9.34
 -16  -3  -1   67.57   12.61
  16   3   1   61.80   11.84
 -16  -3   1   41.70    8.74
  16  -3  -1   65.37   11.54
 -16   3  -1   38.72    8.62
  16  -3   2    9.28    5.53
 -16   3   2   37.95    8.27
  16   3  -2    4.94    5.77
 -16  -3  -2   18.74    6.84
  16   3   2    5.35    6.19
 -16  -3   2   19.51    6.36
  16  -3  -2   10.53    5.77
 -16   3  -2    7.44    5.83
 -16   3   3    7.38    5.47
  16   3  -3    6.66    5.71
 -16  -3   3   10.53    5.71
  16  -3  -3    7.08    5.71
  16   3  -4    4.76    6.42
 -16  -3   4   11.18    5.83
  16   3  -5   -2.14    5.89
 -16  -3   5    1.49    5.35
  16   3  -6   -8.57    5.83
 -16  -3   6   -4.94    5.00
  16   3  -7    2.86    5.06
 -16  -3   7    8.09    5.06
  16   3  -8    2.38    4.82
  16   4   0   52.34   11.00
 -16  -4   0   38.43    9.16
  16  -4   0   53.95    9.64
 -16   4   0   48.78    9.16
  16  -4   1   11.72    5.95
 -16   4   1   10.29    5.47
  16   4  -1    2.38    5.65
 -16  -4  -1   24.98    7.85
  16   4   1   15.23    7.26
 -16  -4   1   11.24    5.95
  16  -4  -1   16.36    5.77
 -16   4  -1   21.06    7.61
  16  -4   2    7.97    5.29
 -16   4   2    9.76    5.59
  16   4  -2   18.44    6.48
 -16  -4  -2    2.91    6.13
  16   4   2   11.48    6.60
 -16  -4   2    9.81    5.89
  16  -4  -2   10.59    5.59
 -16   4  -2    5.23    5.41
  16   4  -3   -5.95    5.83
 -16  -4   3    8.80    5.71
  16   4  -4    9.93    6.54
 -16  -4   4    5.06    5.89
  16   4  -5    6.66    6.25
 -16  -4   5   -2.74    5.41
  16   4  -6   13.09    6.19
 -16  -4   6    2.97    5.53
  16   4  -7    5.89    5.23
 -16  -4   7   -5.53    5.00
  16   5   0   42.23    9.87
 -16  -5   0   54.72   11.24
  16  -5   0   79.77   13.21
 -16   5   0   66.32   11.54
  16  -5   1  284.92   44.02
 -16   5   1  469.32   71.97
  16   5  -1  300.39   46.75
 -16  -5  -1  426.61   65.91
  16   5   1  423.46   65.43
  16  -5  -1  376.35   57.88
 -16   5  -1  386.81   59.42
  16   5  -2  239.89   37.59
  16   5   2  133.84   21.77
 -16  -5   2  239.36   37.47
  16  -5  -2  213.96   33.31
 -16   5  -2  177.97   27.90
  16   5  -4    5.35    5.59
 -16  -5   4    0.54    5.83
  16   5  -5    1.37    5.77
 -16  -5   5    6.66    5.71
  16   5  -6    4.28    5.83
 -16  -5   6    5.71    5.35
  16   5  -7    9.28    5.71
 -16  -5   7    7.67    5.17
  16   6   0   56.57   11.66
 -16  -6   0   48.18   10.41
  16  -6   0   46.46    8.51
 -16   6   0   25.99    6.19
  16  -6   1   12.73    4.64
  16   6  -1    0.42    6.25
 -16  -6  -1    2.80    6.54
  16   6   1   20.82    7.73
 -16  -6   1   11.66    6.01
  16  -6  -1    7.91    4.52
 -16   6  -1    0.54    4.22
  16  -6   2    2.62    4.34
  16   6  -2   11.78    6.25
 -16  -6  -2    0.71    6.19
  16   6   2    9.64    6.48
 -16  -6   2   20.05    6.54
 -16   6  -2    1.37    4.70
  16   6  -3    2.38    5.65
 -16  -6   3    2.32    5.53
  16   6  -4    6.48    5.65
 -16  -6   4   21.00    6.54
  16   6  -5    0.12    6.31
 -16  -6   5   12.19    5.83
  16   6  -6    4.34    5.95
 -16  -6   6   -2.74    5.29
  16   6  -7    3.33    5.29
 -16  -6   7   -1.19    5.00
  16   7   0    9.87    6.84
 -16  -7   0    3.03    6.60
  16  -7   0   -1.43    3.57
 -16   7   0    3.75    3.87
  16  -7   1   39.62    7.02
  16   7  -1   20.58    7.61
 -16  -7  -1   35.69    9.04
  16   7   1   44.91    9.93
 -16  -7   1   35.51    8.21
 -16   7  -1   20.64    4.88
  16   7  -2    3.51    5.83
 -16  -7  -2    2.38    6.01
  16   7   2   -0.65    6.25
 -16  -7   2    5.53    5.71
 -16   7  -2   -0.24    4.16
  16   7  -3    1.01    5.83
 -16  -7   3   -4.16    5.53
  16   7  -4    1.90    6.01
 -16  -7   4   -6.19    5.41
  16   7  -5   -0.12    5.65
 -16  -7   5   -3.45    5.59
  16   7  -6   -4.58    5.65
 -16  -7   6    0.18    5.29
  16   8   0    7.32    6.96
 -16  -8   0   18.62    7.44
  16  -8   1   54.19    8.80
  16   8  -1   62.16   12.49
 -16  -8  -1   39.02    9.34
  16   8   1   31.23    8.39
 -16  -8   1   56.75   11.66
  16   8  -2    7.38    6.31
 -16  -8  -2   17.37    6.90
  16   8   2    6.13    6.13
 -16  -8   2    6.31    5.71
 -16   8  -2   11.96    4.10
  16   8  -3   -4.88    5.95
 -16  -8   3    6.54    5.71
  16   8  -4   14.51    6.31
 -16  -8   4   14.34    6.13
  16   8  -5    0.06    5.35
 -16  -8   5    0.36    4.88
  16   8  -6    7.55    5.35
 -16  -8   6    0.30    5.17
  16   9   0    5.41    7.08
 -16  -9   0    5.29    6.66
  16  -9   1    2.14    2.08
  16   9  -1   10.35    7.38
 -16  -9  -1   11.90    6.84
  16   9   1    3.03    6.72
 -16  -9   1    3.15    6.96
  16   9  -2    6.84    5.95
 -16  -9  -2   -0.77    5.95
  16   9   2    7.49    6.25
 -16  -9   2    7.61    5.77
 -16   9  -2    4.40    2.91
  16   9  -3    7.02    5.89
 -16  -9   3   -1.37    5.35
  16   9  -5   -0.42    4.82
 -16  -9   5    2.08    4.82
  16  10   0  185.35   29.80
 -16 -10   0  134.91   22.25
  16  10  -1   24.69    7.97
 -16 -10  -1   29.44    7.97
  16  10   1   32.06    8.33
 -16 -10   1   28.49    8.09
  16  10  -2   36.64    8.51
 -16 -10  -2   37.83    8.62
  16  10   2   50.50   10.17
 -16 -10   2   53.59   10.47
  16  10  -3   11.84    6.07
 -16 -10   3   13.38    5.89
  16  10  -4   18.68    6.48
 -16 -10   4   16.77    6.01
 -16 -10   5   -3.03    5.17
  16  11  -1   16.77    7.32
 -16 -11  -1    6.66    6.13
  16  11   1    7.14    5.95
 -16 -11   1    4.64    6.25
  16  11  -2   -7.26    5.35
 -16 -11  -2    6.96    5.65
  16  11   2    9.16    5.65
 -16 -11   2    0.30    4.88
  16  11  -3   -2.80    5.35
 -16 -11   3   -5.53    4.82
  16  12   0   20.22    7.14
 -16 -12   0    9.64    6.31
  16  12  -1   -1.55    6.13
 -16 -12  -1    0.65    5.65
  16  12   1    7.14    5.83
 -16 -12   1    5.53    6.07
  16  12  -2    1.37    5.53
 -16 -12  -2    5.53    5.59
  16  12   2    0.77    5.59
 -16 -12   2    5.23    5.35
  17   0   0   -3.15    5.83
 -17   0   0   17.67    6.66
  17   0   1   12.67    7.32
 -17   0   1   13.92    6.36
  17   0  -1    9.10    5.77
 -17   0  -1   25.34    8.27
  17   0   2   12.91    6.60
 -17   0   2    9.16    6.01
  17   0  -2   -3.69    5.47
 -17   0  -2   15.88    7.08
 -17   0   3    9.87    6.13
  17   0  -3    7.91    6.19
 -17   0   4    2.02    5.47
  17   0  -4    5.95    5.59
 -17   0   5    9.76    5.23
  17   0  -5   -3.69    5.47
  17   0  -6   57.88   10.59
  17   1   0   -6.19    6.78
 -17  -1   0    1.43    5.77
  17  -1   0   -4.58    5.47
 -17   1   0   -0.71    5.77
  17  -1   1    2.74    6.96
 -17   1   1    3.15    5.95
  17   1  -1   -2.80    5.65
 -17  -1  -1  -22.01    7.73
  17   1   1    4.94    6.72
 -17  -1   1    0.18    5.77
  17  -1  -1    4.76    5.53
 -17   1  -1    2.97    7.08
  17  -1   2   -3.45    6.25
 -17   1   2   -1.07    6.07
  17   1  -2   12.43    6.01
 -17  -1  -2    3.27    6.60
  17   1   2    2.80    6.13
 -17  -1   2   -2.44    5.65
  17  -1  -2    0.83    6.01
 -17   1  -2   -3.57    6.54
 -17   1   3    4.58    5.77
  17   1  -3   -0.06    5.89
 -17  -1   3    5.23    6.13
  17  -1  -3   15.70    6.48
 -17   1   4    1.43    5.47
  17   1  -4    6.31    5.95
 -17  -1   4    0.77    5.47
  17  -1  -4    7.67    5.65
  17   1  -5   -1.96    5.65
 -17  -1   5   -8.62    5.29
  17  -1  -5    1.25    5.12
  17   1  -6    5.65    5.12
 -17  -1   6   -5.89    4.70
  17   2   0    5.00    6.96
 -17  -2   0    4.34    7.67
  17  -2   0    4.46    5.35
 -17   2   0   -0.54    5.71
  17  -2   1    2.20    6.66
 -17   2   1   16.42    6.31
  17   2  -1   -3.15    5.59
 -17  -2  -1    7.49    7.20
  17   2   1    5.17    6.96
 -17  -2   1    7.91    5.89
  17  -2  -1   -4.52    5.65
 -17   2  -1   10.59    6.90
  17  -2   2   10.05    6.31
 -17   2   2    4.28    5.89
  17   2  -2    3.27    5.65
 -17  -2  -2    0.00    6.66
  17   2   2   15.17    6.72
 -17  -2   2   12.91    6.19
  17  -2  -2   10.77    6.25
 -17   2  -2   -2.20    6.13
 -17   2   3    3.57    5.77
  17   2  -3   -1.43    5.35
 -17  -2   3   -0.18    6.01
  17  -2  -3    3.45    5.77
 -17   2   4   22.54    6.48
  17   2  -4   25.46    7.44
 -17  -2   4   16.66    6.36
  17  -2  -4   46.16    9.28
  17   2  -5    2.62    5.53
 -17  -2   5    1.31    5.06
  17   2  -6    1.13    5.17
 -17  -2   6    3.63    4.82
  17   2  -7    1.96    4.70
 -17  -2   7    5.00    4.34
  17   3   0    1.78    6.84
 -17  -3   0   -3.75    6.90
  17  -3   0   11.54    5.53
 -17   3   0    7.14    5.53
  17  -3   1   52.34   10.65
 -17   3   1   54.25   10.41
  17   3  -1   28.91    7.49
 -17  -3  -1   29.09    8.51
  17   3   1   29.09    8.33
 -17  -3   1   35.09    8.33
  17  -3  -1   49.61    9.58
 -17   3  -1   17.31    7.26
  17  -3   2    7.49    6.01
 -17   3   2    5.59    5.83
  17   3  -2   19.39    6.54
 -17  -3  -2    3.21    6.54
  17   3   2    7.20    6.07
 -17  -3   2    8.86    6.07
  17  -3  -2    9.70    6.13
 -17   3  -2   17.49    6.72
 -17   3   3   15.11    6.07
  17   3  -3   26.11    7.20
 -17  -3   3   21.59    6.72
  17  -3  -3   39.20    8.39
  17   3  -4    2.38    6.13
 -17  -3   4    8.03    5.83
  17   3  -5    8.68    5.83
 -17  -3   5    0.24    5.53
  17   3  -6    2.68    5.06
 -17  -3   6    3.15    4.76
  17   3  -7    1.72    4.82
 -17  -3   7   -6.84    4.40
  17   4   0   -5.23    6.84
 -17  -4   0    6.07    7.20
  17  -4   0    7.55    5.12
 -17   4   0    3.93    5.23
  17  -4   1    5.29    6.42
 -17   4   1    6.96    5.53
  17   4  -1    0.30    5.53
 -17  -4  -1   11.84    7.26
  17   4   1   -3.21    6.54
 -17  -4   1    9.58    6.01
  17  -4  -1    4.34    5.47
 -17   4  -1   -3.87    7.32
  17  -4   2   -6.78    5.53
 -17   4   2    4.70    5.47
  17   4  -2   -1.72    5.89
 -17  -4  -2    7.49    6.36
  17   4   2    3.45    6.01
 -17  -4   2    1.25    5.47
  17  -4  -2    6.72    5.53
 -17   4  -2    6.96    5.89
  17   4  -3    1.55    5.65
 -17  -4   3   -1.55    5.53
  17  -4  -3   -0.71    5.23
  17   4  -4   -0.48    5.89
 -17  -4   4    3.15    5.77
  17   4  -5    6.19    5.71
 -17  -4   5    0.95    5.12
  17   4  -6   -2.08    5.12
 -17  -4   6   -1.43    4.70
  17   4  -7    4.46    5.35
  17   5   0   -4.16    7.26
 -17  -5   0   -5.41    6.48
  17  -5   0    5.23    4.76
 -17   5   0   -1.19    4.76
  17  -5   1    2.32    5.53
 -17   5   1   15.82    5.95
  17   5  -1   12.97    6.13
 -17  -5  -1   13.50    6.90
  17   5   1   16.66    7.49
  17  -5  -1   27.12    6.90
 -17   5  -1   10.47    5.06
  17  -5   2   -4.22    5.00
 -17   5   2   19.93    5.65
  17   5  -2    9.70    6.07
 -17  -5  -2    6.07    6.01
  17   5   2    4.28    6.07
 -17  -5   2    1.90    5.47
  17  -5  -2    2.38    4.94
 -17   5  -2    6.78    5.47
  17   5  -3   14.39    6.13
 -17  -5   3   15.94    6.13
  17   5  -4    4.88    5.65
 -17  -5   4   -1.90    5.12
  17   5  -5   -4.46    5.53
 -17  -5   5    2.26    5.23
  17   5  -6    2.08    5.17
 -17  -5   6    3.87    4.82
  17   6   0   -2.02    6.96
 -17  -6   0    4.10    6.72
  17  -6   0    2.44    5.35
 -17   6   0    6.36    4.70
  17  -6   1   -2.62    4.28
 -17   6   1   14.16    5.06
  17   6  -1    3.51    6.48
 -17  -6  -1    3.63    6.78
  17   6   1    2.74    6.66
 -17  -6   1    5.23    5.47
  17  -6  -1    6.84    4.76
 -17   6  -1    1.72    4.46
  17  -6   2    2.56    4.28
  17   6  -2    7.14    5.77
 -17  -6  -2    6.19    6.07
  17   6   2    0.89    6.07
 -17  -6   2    1.90    5.29
 -17   6  -2    5.53    5.00
  17   6  -3    5.65    5.47
 -17  -6   3   -1.49    5.17
  17   6  -4    8.39    5.59
 -17  -6   4    2.08    5.35
  17   6  -5    1.07    5.41
 -17  -6   5    7.49    5.41
  17   6  -6    1.90    5.29
 -17  -6   6    5.23    5.00
  17   7   0   -2.32    6.84
 -17  -7   0   -1.07    6.31
  17  -7   0    3.99    3.75
 -17   7   0   -0.59    3.93
  17  -7   1    4.88    3.45
  17   7  -1   12.61    7.02
 -17  -7  -1    5.83    6.48
  17   7   1   11.66    6.96
 -17  -7   1    6.90    5.35
 -17   7  -1   11.36    4.16
  17  -7   2    6.72    3.93
  17   7  -2   -0.18    5.41
 -17  -7  -2    2.97    5.83
  17   7   2  -11.24    6.19
 -17  -7   2    7.20    5.77
 -17   7  -2   15.47    5.06
  17   7  -3   16.18    6.42
 -17  -7   3   42.59    8.92
  17   7  -4    3.51    5.23
 -17  -7   4   -0.48    5.23
  17   7  -5   43.66    9.10
 -17  -7   5   30.10    7.49
  17   8   0    2.38    6.60
 -17  -8   0   -4.82    6.42
  17  -8   0    5.41    3.21
  17  -8   1    0.54    2.74
  17   8  -1   -8.62    6.66
 -17  -8  -1   -9.87    6.60
  17   8   1   -4.40    6.13
 -17  -8   1   10.71    6.78
 -17   8  -1   -5.41    3.03
  17  -8   2   17.90    4.16
  17   8  -2   13.15    6.31
 -17  -8  -2    4.94    5.95
  17   8   2   12.97    6.13
 -17  -8   2    9.40    5.65
 -17   8  -2   30.28    6.01
  17   8  -3   16.95    6.36
 -17  -8   3   21.59    6.42
  17   8  -4   67.69   12.37
 -17  -8   4   88.57   15.11
  17   8  -5    4.34    5.17
 -17  -8   5   12.49    5.41
  17   9   0   12.97    6.72
 -17  -9   0    1.01    6.19
  17  -9   1    1.90    2.26
  17   9  -1   -3.51    6.48
 -17  -9  -1    8.39    6.31
  17   9   1   13.26    6.31
 -17  -9   1   12.37    6.48
  17  -9   2    1.13    2.32
  17   9  -2   -0.59    5.47
 -17  -9  -2   -1.78    5.65
  17   9   2   -1.55    5.47
 -17  -9   2    6.72    5.29
 -17   9  -2    4.28    3.03
  17   9  -3    2.02    5.06
 -17  -9   3   -2.02    4.94
  17   9  -4    1.31    5.17
 -17  -9   4    1.07    4.76
  17  10   0   -9.58    6.01
 -17 -10   0    4.94    6.31
  17  10  -1   -0.42    6.01
 -17 -10  -1    2.91    6.01
  17  10   1    3.51    5.65
 -17 -10   1    4.10    5.71
  17  10  -2   23.56    6.78
 -17 -10  -2    0.06    5.29
  17  10   2    7.49    5.65
  17  10  -3    4.22    5.29
 -17 -10   3   -9.22    4.88
  17  11   0   -2.50    6.13
 -17 -11   0   -2.20    5.47
 -17 -11  -1   -0.59    5.71
  17  11   1    1.13    6.07
 -17 -11   1    3.09    6.01
  18   0   0   20.88    6.96
 -18   0   0   21.65    6.78
  18   0   1    2.14    6.66
 -18   0   1   20.34    6.90
  18   0  -1    4.70    5.65
 -18   0  -1   21.65    7.79
  18   0   2   35.87    8.33
 -18   0   2   51.93   10.23
  18   0  -2   34.44    7.97
 -18   0  -2   46.16    9.99
 -18   0   3   -2.68    5.65
  18   0  -3   -2.50    5.83
 -18   0   4   80.78   14.04
  18   0  -4  100.76   16.77
 -18   0   5   12.55    5.29
  18   0  -5   17.96    5.83
 -18   0   6   11.90    4.70
  18   0  -6    5.89    4.76
  18   1   0    4.76    6.96
 -18  -1   0    4.58    5.83
  18  -1   0    5.06    5.29
 -18   1   0   -5.00    5.59
  18  -1   1   -0.24    6.78
 -18   1   1   14.34    6.36
  18   1  -1   11.18    5.95
 -18  -1  -1   10.83    7.32
  18   1   1   14.22    7.14
 -18  -1   1   12.19    6.25
  18  -1  -1   20.58    6.42
 -18   1  -1   10.71    7.14
  18  -1   2    3.63    6.01
 -18   1   2   -1.31    6.01
  18   1  -2    4.28    5.53
 -18  -1  -2   -7.32    6.48
  18   1   2    2.74    6.13
 -18  -1   2    0.77    5.77
  18  -1  -2   -7.20    5.29
 -18   1  -2    0.06    6.36
  18   1  -3   -6.01    5.83
 -18  -1   3    3.87    5.71
 -18   1   4   -0.36    5.23
  18   1  -4    6.01    5.29
 -18  -1   4    5.53    5.23
  18  -1  -4    1.67    5.06
 -18   1   5    1.67    4.70
  18   1  -5   -0.77    4.88
 -18  -1   5   -1.96    4.76
  18  -1  -5   -6.90    4.52
  18   1  -6   -4.16    4.76
 -18  -1   6    1.01    4.46
  18   2   0   42.89    9.81
 -18  -2   0   32.12    9.34
  18  -2   0   20.16    6.31
 -18   2   0   34.44    7.91
  18  -2   1   13.50    6.66
 -18   2   1   14.39    6.01
  18   2  -1   12.85    5.83
 -18  -2  -1   -1.25    6.84
  18   2   1   -1.07    6.66
 -18  -2   1    9.04    5.95
  18  -2  -1    1.13    5.35
 -18   2  -1    1.96    6.66
  18  -2   2    4.46    5.77
 -18   2   2    9.93    6.07
  18   2  -2   18.20    6.31
 -18  -2  -2   -2.56    6.19
  18   2   2   12.37    6.31
 -18  -2   2    0.36    5.47
  18  -2  -2   -4.64    5.65
 -18   2  -2   -2.08    6.07
 -18   2   3    1.19    5.41
  18   2  -3    6.84    5.35
 -18  -2   3    6.96    5.53
  18  -2  -3   12.79    5.59
 -18   2   4    6.13    5.12
  18   2  -4   -4.52    5.65
 -18  -2   4    0.59    5.00
  18  -2  -4    9.93    5.17
  18   2  -5   -6.19    5.06
 -18  -2   5    0.30    4.52
  18  -2  -5    5.12    4.34
  18   2  -6    3.09    4.94
 -18  -2   6    1.43    4.58
  18   3   0   10.83    6.96
 -18  -3   0   -8.15    6.66
  18  -3   0   10.29    5.17
 -18   3   0   -1.72    5.06
  18  -3   1   18.44    6.96
 -18   3   1   13.98    6.72
  18   3  -1   11.30    6.01
 -18  -3  -1   26.11    8.09
  18   3   1   21.83    7.55
 -18  -3   1   19.57    6.48
  18  -3  -1    6.72    5.12
 -18   3  -1    8.27    6.36
  18  -3   2   -4.22    5.41
 -18   3   2    2.14    5.47
  18   3  -2    4.64    5.59
 -18  -3  -2   -6.90    6.25
  18   3   2    1.61    5.89
 -18  -3   2    6.66    5.41
  18  -3  -2   10.41    5.89
 -18   3  -2    4.94    6.07
 -18   3   3   10.47    5.59
  18   3  -3    3.39    5.65
 -18  -3   3   25.64    6.66
  18  -3  -3    0.42    5.17
  18   3  -4    1.90    5.71
 -18  -3   4    4.58    5.00
  18  -3  -4   -1.49    4.82
  18   3  -5    8.39    5.29
 -18  -3   5    9.76    5.12
  18   3  -6    3.63    5.23
 -18  -3   6    7.55    4.94
  18   4   0   15.76    7.26
 -18  -4   0    0.48    6.36
  18  -4   0   11.48    5.06
 -18   4   0    8.51    5.23
  18  -4   1   -5.17    5.95
 -18   4   1   -6.60    5.23
  18   4  -1    1.31    5.47
 -18  -4  -1   -1.49    6.31
  18   4   1    1.67    6.36
 -18  -4   1   -2.02    5.23
  18  -4  -1    3.39    5.12
 -18   4  -1    1.01    6.54
  18  -4   2    6.36    5.35
 -18   4   2   -0.18    5.12
  18   4  -2   -1.49    5.41
 -18  -4  -2    1.25    5.95
  18   4   2   -0.18    5.65
 -18  -4   2   -6.01    5.29
  18  -4  -2    5.29    5.00
 -18   4  -2    0.12    5.53
 -18   4   3   -9.28    5.06
  18   4  -3   -1.25    5.17
 -18  -4   3   -4.40    5.06
  18  -4  -3   -4.52    4.82
  18   4  -4   -2.08    4.64
 -18  -4   4    8.03    5.29
  18   4  -5   -4.34    5.17
 -18  -4   5   -1.37    4.88
  18   5   0    7.55    6.72
 -18  -5   0    7.38    6.54
  18  -5   0    0.89    4.28
 -18   5   0    2.14    4.40
  18  -5   1   25.82    6.66
 -18   5   1   11.90    5.35
 -18  -5  -1   26.11    7.73
  18   5   1    2.86    6.60
 -18  -5   1    4.40    5.47
  18  -5  -1   18.08    5.71
  18  -5   2    3.69    4.58
 -18   5   2    5.95    4.82
  18   5  -2   -4.10    5.17
 -18  -5  -2   -6.66    5.71
  18   5   2   -9.64    6.01
 -18  -5   2    1.13    5.17
  18  -5  -2    4.70    4.70
 -18   5  -2   -3.09    5.00
  18   5  -3   -2.97    5.12
 -18  -5   3   -1.55    5.00
  18   5  -4   -0.12    4.82
 -18  -5   4    5.53    4.94
  18   5  -5    2.74    5.23
 -18  -5   5    2.32    4.70
  18   6   0   12.61    6.84
 -18  -6   0    9.52    6.31
  18  -6   0    9.99    4.22
 -18   6   0   17.79    5.17
  18  -6   1    8.21    4.40
 -18   6   1    0.77    4.10
  18   6  -1   10.05    6.19
 -18  -6  -1    0.54    6.13
  18   6   1    1.72    6.07
 -18  -6   1   -0.77    5.12
  18  -6  -1   -2.62    4.28
 -18   6  -1   -3.63    4.16
  18  -6   2    3.15    4.04
  18   6  -2   -8.09    5.29
 -18  -6  -2    3.81    5.71
  18   6   2    8.09    5.65
 -18  -6   2   -1.37    5.12
  18  -6  -2   -1.61    4.10
 -18   6  -2    3.39    4.82
  18   6  -3    1.19    4.82
 -18  -6   3    7.26    4.94
  18   6  -4   -1.72    4.70
 -18  -6   4   12.02    5.12
  18   6  -5   -0.71    5.29
  18   7   0    5.53    6.25
 -18  -7   0    7.08    6.19
  18  -7   0    4.10    3.57
 -18   7   0    5.95    3.87
  18  -7   1   -2.74    3.15
  18   7  -1    0.71    6.19
 -18  -7  -1   -0.06    5.95
  18   7   1   -3.75    5.83
 -18  -7   1   -2.50    4.76
  18  -7  -1   -0.77    3.33
 -18   7  -1   -0.42    3.63
  18  -7   2    1.90    3.51
  18   7  -2    9.10    5.35
 -18  -7  -2    7.26    5.59
  18   7   2    4.28    5.29
 -18  -7   2    2.62    5.00
 -18   7  -2    7.79    4.40
  18   7  -3    8.68    5.00
 -18  -7   3   -1.13    4.70
  18   7  -4   -2.80    4.70
 -18  -7   4   -3.45    4.82
  18   8   0   10.71    6.19
 -18  -8   0    8.74    6.13
  18  -8   0    9.40    3.33
 -18   8   0   23.67    4.88
  18  -8   1    3.09    2.74
  18   8  -1   -1.96    5.53
 -18  -8  -1    2.80    5.83
  18   8   1    1.13    5.89
 -18  -8   1   -9.58    5.95
  18  -8   2   19.09    4.28
  18   8  -2   14.81    5.77
 -18  -8  -2   15.88    6.07
  18   8   2   17.31    6.19
 -18  -8   2   26.59    6.72
 -18   8  -2   20.11    4.82
  18   8  -3    2.80    4.88
 -18  -8   3    9.70    5.17
  18   9   0   -7.26    5.65
 -18  -9   0   -0.30    5.71
  18  -9   1    6.42    2.74
  18   9  -1    0.00    5.77
 -18  -9  -1    1.90    5.53
  18   9   1   -8.21    5.17
 -18  -9   1    3.75    5.71
 -18   9  -1    2.02    2.50
  18   9  -2   -0.77    5.53
 -18  -9  -2    4.70    5.41
  18   9   2    1.78    5.71
 -18  -9   2   -3.93    4.94
 -18   9  -2   -0.18    3.09
  19   0   0    2.91    5.41
 -19   0   0   -2.02    5.35
  19   0   1   -1.37    6.01
 -19   0   1   -0.59    5.41
  19   0  -1    2.26    4.88
 -19   0  -1  -12.61    6.66
  19   0   2   12.07    5.83
 -19   0   2    6.42    5.47
  19   0  -2    4.34    4.94
 -19   0  -2    4.70    6.13
 -19   0   3    1.01    5.29
  19   0  -3   -4.34    5.00
 -19   0   4    5.95    4.88
  19   0  -4    2.97    4.70
  19   0  -5   -2.68    4.64
  19   1   0   -2.56    6.31
 -19  -1   0    2.50    5.41
  19  -1   0    3.87    4.82
 -19   1   0   -1.55    5.29
  19  -1   1    3.03    5.89
 -19   1   1    8.98    5.53
  19   1  -1   -3.75    5.00
 -19  -1  -1    8.45    6.66
  19   1   1    4.28    6.07
 -19  -1   1    9.76    5.83
  19  -1  -1    0.48    4.88
 -19   1  -1    8.74    6.48
  19  -1   2    1.96    5.41
 -19   1   2   -5.47    5.41
  19   1  -2    2.91    4.76
 -19  -1  -2   -2.38    5.95
  19   1   2   -1.01    5.35
 -19  -1   2    9.16    5.59
  19  -1  -2    1.31    4.46
 -19   1  -2    2.02    5.89
 -19   1   3   12.02    5.59
  19   1  -3   -0.30    4.52
 -19  -1   3    5.06    5.35
  19  -1  -3    9.70    5.23
 -19   1   4   -2.20    4.58
  19   1  -4   14.51    5.47
 -19  -1   4   -4.70    5.06
  19  -1  -4    7.20    4.82
  19   1  -5    8.51    5.47
  19  -1  -5   -2.08    4.70
  19   2   0   -5.47    6.01
 -19  -2   0  -13.98    6.96
  19  -2   0    0.71    4.70
 -19   2   0    1.13    5.06
  19  -2   1   -1.84    5.77
 -19   2   1    3.69    5.12
  19   2  -1   -5.23    4.82
 -19  -2  -1   -1.78    6.36
  19   2   1    6.84    6.01
 -19  -2   1    0.42    5.35
  19  -2  -1    1.13    4.64
 -19   2  -1   -0.06    5.95
  19  -2   2    0.89    5.23
 -19   2   2   -5.06    5.29
  19   2  -2    5.23    4.88
 -19  -2  -2  -10.65    6.07
  19   2   2    9.58    5.47
 -19  -2   2    4.04    5.23
  19  -2  -2   -6.01    5.17
 -19   2  -2    4.46    5.65
 -19   2   3   -6.13    4.76
  19   2  -3    0.42    4.52
 -19  -2   3   -7.02    5.06
  19  -2  -3   -2.91    4.82
 -19   2   4   -3.39    4.76
  19   2  -4   11.84    5.59
 -19  -2   4   -4.82    4.82
  19  -2  -4    3.99    4.52
  19   3   0   -1.67    5.83
 -19  -3   0   -0.12    6.25
  19  -3   0    1.96    4.34
 -19   3   0    0.48    4.88
  19  -3   1   11.00    6.01
 -19   3   1   17.19    5.59
  19   3  -1    6.13    4.94
 -19  -3  -1   11.00    6.78
  19   3   1    5.77    5.95
 -19  -3   1   12.37    5.59
  19  -3  -1    7.67    4.76
 -19   3  -1    0.95    5.83
  19  -3   2    3.15    5.00
 -19   3   2    1.37    4.94
  19   3  -2   -0.71    4.82
 -19  -3  -2   23.14    7.02
  19   3   2   -3.69    5.23
 -19  -3   2    4.34    4.88
  19  -3  -2   -1.90    4.88
 -19   3  -2    3.39    5.65
 -19   3   3    4.16    4.82
  19   3  -3   18.68    5.83
 -19  -3   3    9.58    5.12
  19  -3  -3   11.42    5.12
 -19   3   4    1.37    4.46
  19   3  -4    0.59    5.00
 -19  -3   4   -6.54    4.76
  19  -3  -4    5.53    4.40
  19   4   0    3.69    5.95
 -19  -4   0    3.81    5.83
  19  -4   0    1.19    4.10
 -19   4   0    1.37    4.64
  19  -4   1   -3.27    5.29
 -19   4   1   -1.67    4.82
  19   4  -1   -1.84    4.70
 -19  -4  -1   -4.40    6.07
  19   4   1    8.62    6.07
 -19  -4   1   -3.69    4.70
  19  -4  -1    0.59    4.16
 -19   4  -1   -6.01    5.53
  19  -4   2   -4.58    4.64
 -19   4   2   -4.58    4.64
  19   4  -2    1.13    4.82
 -19  -4  -2  -15.41    6.13
  19   4   2   -0.71    5.17
 -19  -4   2    5.17    4.94
  19  -4  -2   -4.10    4.58
 -19   4  -2    4.58    5.17
 -19   4   3    6.96    4.58
  19   4  -3    4.22    4.64
 -19  -4   3    0.54    4.70
  19  -4  -3    6.90    4.52
  19   4  -4   -3.03    4.70
 -19  -4   4    6.72    5.23
  19   5   0   -6.07    5.95
 -19  -5   0    7.08    5.89
  19  -5   0    2.20    3.93
 -19   5   0   -5.23    3.99
  19  -5   1   -7.32    4.94
 -19   5   1    3.87    4.52
  19   5  -1    8.92    5.47
 -19  -5  -1   -0.12    5.65
  19   5   1    9.10    5.95
 -19  -5   1    3.93    4.88
  19  -5  -1    3.93    4.40
 -19   5  -1   20.76    5.35
  19  -5   2    8.27    4.46
 -19   5   2   -0.24    4.34
  19   5  -2    1.90    4.82
 -19  -5  -2   -3.93    5.35
  19   5   2   -2.62    5.23
 -19  -5   2    6.36    5.00
  19  -5  -2    4.34    4.22
 -19   5  -2    4.94    4.88
  19   5  -3   23.02    6.31
 -19  -5   3   29.86    6.96
  19  -5  -3   25.28    5.89
  19   6   0   -7.49    5.77
 -19  -6   0   -4.88    5.77
  19  -6   0   -0.89    3.63
 -19   6   0   -3.63    4.10
  19  -6   1    6.96    4.22
 -19   6   1   -1.78    3.87
  19   6  -1    0.24    5.59
 -19  -6  -1    1.78    5.71
  19   6   1   -4.28    5.65
 -19  -6   1   -3.21    4.64
  19  -6  -1    4.04    4.04
 -19   6  -1    2.02    3.69
  19  -6   2    0.30    3.99
  19   6  -2    5.71    4.88
 -19  -6  -2    1.07    5.29
  19   6   2    9.87    5.47
 -19  -6   2    0.89    4.58
  19  -6  -2    1.49    3.99
 -19   6  -2    0.24    4.40
  19   7   0   -0.89    5.77
 -19  -7   0    4.04    5.77
  19  -7   0    7.38    3.75
 -19   7   0   -2.14    3.63
  19  -7   1    2.32    3.21
 -19   7   1    4.94    3.69
  19   7  -1    2.44    5.89
 -19  -7  -1   -3.57    5.71
  19   7   1    8.98    5.95
 -19  -7   1    2.62    4.52
  19  -7  -1    0.12    3.63
 -19   7  -1    3.15    3.51
  20   0   0  112.24   18.44
 -20   0   0  101.00   16.71
  20   0   1    1.72    5.35
 -20   0   1   -0.77    4.76
  20   0  -1   -1.25    4.46
 -20   0  -1   -1.67    5.89
  20   0   2   -0.83    4.88
 -20   0   2    0.24    4.70
  20   0  -2    1.37    4.34
 -20   0  -2    0.24    5.83
  20   1   0   -2.02    5.41
 -20  -1   0    2.86    4.82
  20  -1   0   -0.83    4.34
 -20   1   0   -4.52    4.76
  20  -1   1   -3.27    5.47
 -20   1   1   -6.48    4.94
  20   1  -1    6.96    4.46
 -20  -1  -1    4.52    5.71
  20   1   1   -1.96    5.23
 -20  -1   1    2.80    4.94
  20  -1  -1    1.61    4.34
 -20   1  -1   -5.95    5.71
  20  -1   2   11.24    5.29
 -20   1   2    0.77    4.58
  20   1  -2    3.69    4.34
 -20  -1  -2    4.70    5.47
  20   1   2   -3.03    4.88
 -20  -1   2    3.57    4.94
  20  -1  -2   -5.29    4.34
 -20   1  -2   -0.89    5.35
  20   2   0    3.21    5.41
 -20  -2   0   -6.07    5.41
  20  -2   0   -2.74    4.22
 -20   2   0   -0.71    4.40
  20  -2   1    2.74    5.23
 -20   2   1    7.67    4.82
  20   2  -1    5.77    4.52
 -20  -2  -1    7.97    5.95
  20   2   1    3.45    5.35
 -20  -2   1    1.72    4.70
  20  -2  -1    4.40    4.34
 -20   2  -1    2.38    5.65
  20  -2   2    8.09    5.29
 -20   2   2    2.44    4.94
  20   2  -2    5.17    4.52
 -20  -2  -2   -4.04    5.65
  20   2   2   11.06    5.41
 -20  -2   2    4.52    4.88
  20  -2  -2   -3.15    4.28
 -20   2  -2   -4.70    5.47
  20   3   0    0.36    5.47
 -20  -3   0   -6.36    5.77
  20  -3   0    2.80    4.04
 -20   3   0    4.70    4.64
  20  -3   1    0.71    5.06
 -20   3   1   -2.50    4.52
  20   3  -1    3.15    4.58
 -20  -3  -1   10.65    6.13
  20   3   1   -0.36    5.47
 -20  -3   1   -1.49    4.76
  20  -3  -1   -5.29    4.16
 -20   3  -1    3.39    5.77
  20  -3   2   -0.30    5.17
 -20   3   2   -1.37    4.64
  20   3  -2   -2.44    4.88
 -20  -3  -2    0.65    6.01
 -20  -3   2   -7.73    4.88
  20  -3  -2    5.06    4.88
 -20   3  -2   -5.95    5.59
  20   4   0   -0.54    5.95
 -20  -4   0    3.93    6.07
  20  -4   0    0.24    4.22
 -20   4   0    4.82    4.46
  20   4  -1    3.27    5.00
 -20  -4  -1    9.93    6.66
 -20  -4   1    3.75    5.17
 -20   4  -1    2.74    4.82
   0   0   0    0.00    0.00

_computing_structure_solution     'SHELXT 2014/5 (Sheldrick, 2014)'
;
_shelx_hkl_checksum              33448
loop_
_space_group_symop_operation_xyz
'x, y, z'
'-x+1/2, -y, z+1/2'
'-x, y+1/2, -z'
'x+1/2, -y+1/2, -z+1/2'
'-x, -y, -z'
'x-1/2, y, -z-1/2'
'x, -y-1/2, z'
'-x-1/2, y-1/2, z-1/2'
loop_
_atom_site_label
_atom_site_type_symbol
_atom_site_fract_x
_atom_site_fract_y
_atom_site_fract_z
_atom_site_U_iso_or_equiv
_atom_site_adp_type
_atom_site_occupancy
_atom_site_site_symmetry_order
_atom_site_calc_flag
_atom_site_refinement_flags_posn
_atom_site_refinement_flags_adp
_atom_site_refinement_flags_occupancy
_atom_site_disorder_assembly
_atom_site_disorder_group
Si1 Si 0.4224(4) 1.0570(4) 0.6612(8) 0.015(4) Uani 1 1 d D . . . .
Si2 Si 0.3072(4) 1.0296(4) 0.8113(8) 0.015(3) Uani 1 1 d D . . . .
Si3 Si 0.2790(4) 1.0625(4) 1.0307(9) 0.016(4) Uani 1 1 d D . . . .
Si4 Si 0.1216(4) 1.0644(4) 1.0255(9) 0.017(4) Uani 1 1 d D . . . .
Si5 Si 0.0721(4) 1.0279(4) 0.8137(9) 0.014(3) Uani 1 1 d D . . . .
Si6 Si 0.1856(4) 1.0590(4) 0.6698(8) 0.016(3) Uani 1 1 d D . . . .
Si7 Si 0.4227(4) 0.8278(4) 0.6751(8) 0.018(4) Uani 1 1 d D . . . .
Si8 Si 0.3076(4) 0.8709(4) 0.8144(9) 0.019(3) Uani 1 1 d D . . . .
Si9 Si 0.2740(4) 0.8275(4) 1.0309(9) 0.016(4) Uani 1 1 d D . . . .
Si10 Si 0.1197(4) 0.8259(4) 1.0284(9) 0.015(4) Uani 1 1 d D . . . .
Si11 Si 0.0699(4) 0.8701(4) 0.8163(9) 0.017(3) Uani 1 1 d D . . . .
Si12 Si 0.1865(4) 0.8275(4) 0.6795(8) 0.020(3) Uani 1 1 d D . . . .
O1 O 0.3717(7) 1.0555(10) 0.7522(13) 0.040(5) Uani 1 1 d D U . . .
O2 O 0.3085(8) 1.0606(8) 0.9205(9) 0.036(4) Uani 1 1 d D U . . .
O3 O 0.2003(4) 1.0589(10) 1.029(3) 0.061(8) Uani 1 1 d D U . . .
O4 O 0.0978(10) 1.0648(8) 0.9120(11) 0.043(5) Uani 1 1 d D U . . .
O5 O 0.1143(6) 1.0539(9) 0.7208(13) 0.032(5) Uani 1 1 d D U . . .
O6 O 0.2428(7) 1.0554(10) 0.7524(15) 0.048(6) Uani 1 1 d D U . . .
O7 O 0.3745(7) 0.8444(9) 0.7652(14) 0.044(6) Uani 1 1 d D U . . .
O8 O 0.3076(10) 0.8432(11) 0.9257(11) 0.054(6) Uani 1 1 d D U . . .
O9 O 0.1966(4) 0.8471(7) 1.027(2) 0.040(7) Uani 1 1 d D U . . .
O10 O 0.0878(10) 0.8363(10) 0.9209(12) 0.057(6) Uani 1 1 d D U . . .
O11 O 0.1155(6) 0.8432(8) 0.7271(14) 0.033(5) Uani 1 1 d D U . . .
O12 O 0.2413(7) 0.8480(11) 0.7592(16) 0.054(6) Uani 1 1 d D U . . .
O13 O 0.3076(12) 0.9501(4) 0.822(2) 0.071(8) Uani 1 1 d D U . . .
O14 O 0.0787(8) 0.9488(4) 0.8265(19) 0.038(6) Uani 1 1 d D U . . .
O15 O 0.4192(7) 1.1278(7) 0.6058(15) 0.028(6) Uani 1 1 d D U . . .
O16 O 0.4099(10) 0.9986(8) 0.5828(17) 0.048(6) Uani 1 1 d D U . . .
O17 O 0.4011(9) 0.8678(6) 0.5780(13) 0.040(6) Uani 1 1 d D U . . .
O18 O 0.1914(8) 1.1311(6) 0.6188(14) 0.037(7) Uani 1 1 d D U . . .
O19 O 0.1913(9) 1.0018(7) 0.5864(14) 0.038(5) Uani 1 1 d D U . . .
O20 O 0.1952(10) 0.8689(6) 0.5789(12) 0.043(5) Uani 1 1 d D U . . .
O21 O -0.0039(4) 1.0491(9) 0.7938(16) 0.031(6) Uani 1 1 d D U . . .
O22 O -0.0057(5) 0.8520(9) 0.7900(17) 0.036(6) Uani 1 1 d D U . . .
O23 O 0.4225(14) 0.750000 0.647(2) 0.038(9) Uani 1 2 d DS TU P . .
O24 O 0.1902(12) 0.750000 0.649(2) 0.034(8) Uani 1 2 d DS TU P . .
O25 O 0.2822(10) 0.750000 1.056(2) 0.028(8) Uani 1 2 d DS TU P . .
O26 O 0.1120(10) 0.750000 1.064(2) 0.021(7) Uani 1 2 d DS TU P . .
loop_
_atom_site_aniso_label
_atom_site_aniso_U_11
_atom_site_aniso_U_22
_atom_site_aniso_U_33
_atom_site_aniso_U_23
_atom_site_aniso_U_13
_atom_site_aniso_U_12
Si1 0.015(5) 0.018(5) 0.012(12) -0.004(5) -0.003(5) 0.006(4)
Si2 0.016(4) 0.013(5) 0.015(10) 0.001(5) 0.000(6) -0.001(4)
Si3 0.014(4) 0.017(6) 0.018(11) -0.006(6) -0.005(6) 0.005(4)
Si4 0.011(4) 0.016(6) 0.025(11) -0.010(6) -0.003(6) 0.002(4)
Si5 0.010(5) 0.010(5) 0.021(10) -0.001(5) 0.002(5) 0.000(4)
Si6 0.016(5) 0.018(5) 0.014(11) 0.003(5) 0.005(5) 0.004(4)
Si7 0.012(5) 0.010(5) 0.030(12) 0.001(5) 0.007(6) 0.000(4)
Si8 0.016(5) 0.013(5) 0.027(10) 0.003(5) 0.010(6) 0.001(4)
Si9 0.010(4) 0.012(5) 0.026(12) 0.006(6) -0.003(6) -0.001(4)
Si10 0.011(4) 0.010(5) 0.023(11) 0.001(6) 0.003(6) 0.000(4)
Si11 0.017(5) 0.011(5) 0.023(10) 0.002(5) 0.009(5) 0.002(4)
Si12 0.018(5) 0.014(5) 0.028(12) -0.005(5) 0.012(5) -0.001(4)
O1 0.020(6) 0.073(11) 0.027(15) 0.005(9) 0.012(9) -0.004(8)
O2 0.042(9) 0.044(9) 0.020(10) -0.008(7) 0.006(7) -0.004(9)
O3 0.014(5) 0.089(14) 0.08(2) -0.031(14) 0.001(8) 0.016(8)
O4 0.066(11) 0.033(9) 0.029(12) -0.006(8) -0.021(9) -0.001(8)
O5 0.015(6) 0.046(9) 0.036(13) 0.022(9) 0.011(7) 0.010(7)
O6 0.020(6) 0.093(13) 0.032(15) 0.003(11) -0.007(9) 0.015(9)
O7 0.022(7) 0.073(12) 0.035(15) -0.005(10) 0.009(9) 0.022(8)
O8 0.057(11) 0.073(12) 0.032(12) 0.020(10) 0.015(8) 0.001(10)
O9 0.013(5) 0.027(8) 0.08(2) 0.013(10) 0.005(8) 0.000(5)
O10 0.069(12) 0.065(12) 0.038(12) 0.026(10) -0.022(9) -0.022(10)
O11 0.020(6) 0.032(9) 0.047(14) -0.021(8) 0.012(8) 0.001(6)
O12 0.028(7) 0.093(14) 0.041(16) -0.017(12) 0.007(10) -0.018(8)
O13 0.125(16) 0.015(6) 0.07(3) -0.005(7) 0.025(15) 0.004(7)
O14 0.046(9) 0.011(5) 0.06(2) -0.002(6) 0.007(11) 0.006(5)
O15 0.033(9) 0.023(7) 0.03(2) 0.006(8) -0.015(10) -0.004(7)
O16 0.086(13) 0.030(8) 0.029(17) -0.012(9) -0.031(13) 0.004(9)
O17 0.060(11) 0.016(8) 0.043(15) 0.011(9) 0.002(11) 0.011(8)
O18 0.038(9) 0.018(7) 0.05(2) 0.013(8) 0.024(11) 0.001(7)
O19 0.061(11) 0.023(8) 0.031(15) -0.009(8) 0.015(11) 0.002(8)
O20 0.080(12) 0.013(8) 0.036(14) 0.005(8) 0.019(10) -0.002(9)
O21 0.015(6) 0.062(11) 0.02(2) 0.008(10) 0.005(7) 0.013(7)
O22 0.020(6) 0.068(12) 0.02(2) -0.004(10) 0.009(8) -0.010(7)
O23 0.09(2) 0.005(8) 0.02(3) 0.000 0.000(17) 0.000
O24 0.054(14) 0.010(7) 0.04(3) 0.000 0.036(15) 0.000
O25 0.031(11) 0.004(7) 0.05(3) 0.000 0.002(14) 0.000
O26 0.031(11) 0.011(8) 0.02(2) 0.000 0.002(13) 0.000
loop_
_atom_type_symbol
_atom_type_description
_atom_type_scat_dispersion_real
_atom_type_scat_dispersion_imag
_atom_type_scat_source
O O 0.0000 0.0000 'International Tables Vol C Tables 4.2.6.8 and 6.1.1.4'
Si Si 0.0000 0.0000 'International Tables Vol C Tables 4.2.6.8 and 6.1.1.4'
loop_
_geom_angle_atom_site_label_1
_geom_angle_atom_site_label_2
_geom_angle_atom_site_label_3
_geom_angle
_geom_angle_site_symmetry_1
_geom_angle_site_symmetry_3
O16 Si1 O1 113.3(13) . .
O16 Si1 O15 109.2(13) . .
O1 Si1 O15 110.5(11) . .
O16 Si1 O21 109.0(11) . 6_657
O1 Si1 O21 107.1(10) . 6_657
O15 Si1 O21 107.5(10) . 6_657
O13 Si2 O2 107.7(14) . .
O13 Si2 O6 111.6(14) . .
O2 Si2 O6 110.2(11) . .
O13 Si2 O1 111.0(13) . .
O2 Si2 O1 108.7(10) . .
O6 Si2 O1 107.6(12) . .
O3 Si3 O2 110.6(16) . .
O3 Si3 O19 110.1(13) . 2_575
O2 Si3 O19 106.3(11) . 2_575
O3 Si3 O20 111.6(12) . 2_575
O2 Si3 O20 106.1(10) . 2_575
O19 Si3 O20 112.0(11) 2_575 2_575
O3 Si4 O17 109.4(11) . 2_575
O3 Si4 O4 108.8(16) . .
O17 Si4 O4 109.6(10) 2_575 .
O3 Si4 O16 108.9(14) . 2_575
O17 Si4 O16 109.8(12) 2_575 2_575
O4 Si4 O16 110.3(12) . 2_575
O14 Si5 O5 111.2(12) . .
O14 Si5 O4 109.8(12) . .
O5 Si5 O4 109.2(11) . .
O14 Si5 O21 110.9(10) . .
O5 Si5 O21 106.7(9) . .
O4 Si5 O21 108.9(12) . .
O5 Si6 O18 108.0(9) . .
O5 Si6 O6 109.9(11) . .
O18 Si6 O6 106.7(12) . .
O5 Si6 O19 108.8(11) . .
O18 Si6 O19 109.5(12) . .
O6 Si6 O19 113.8(12) . .
O22 Si7 O7 105.1(11) 6_657 .
O22 Si7 O17 109.8(12) 6_657 .
O7 Si7 O17 111.0(11) . .
O22 Si7 O23 111.6(14) 6_657 .
O7 Si7 O23 112.4(15) . .
O17 Si7 O23 107.0(12) . .
O13 Si8 O7 110.9(13) . .
O13 Si8 O12 108.5(14) . .
O7 Si8 O12 114.6(12) . .
O13 Si8 O8 106.6(15) . .
O7 Si8 O8 106.1(11) . .
O12 Si8 O8 109.9(13) . .
O25 Si9 O8 109.6(15) . .
O25 Si9 O18 107.4(12) . 2_575
O8 Si9 O18 111.9(12) . 2_575
O25 Si9 O9 110.1(10) . .
O8 Si9 O9 109.4(14) . .
O18 Si9 O9 108.4(12) 2_575 .
O26 Si10 O15 107.7(10) . 2_575
O26 Si10 O10 110.9(13) . .
O15 Si10 O10 108.8(12) 2_575 .
O26 Si10 O9 110.3(10) . .
O15 Si10 O9 108.9(11) 2_575 .
O10 Si10 O9 110.1(14) . .
O14 Si11 O22 110.3(10) . .
O14 Si11 O11 109.4(11) . .
O22 Si11 O11 107.4(10) . .
O14 Si11 O10 108.4(14) . .
O22 Si11 O10 108.2(12) . .
O11 Si11 O10 113.1(13) . .
O12 Si12 O11 107.2(11) . .
O12 Si12 O20 111.4(12) . .
O11 Si12 O20 109.8(12) . .
O12 Si12 O24 112.8(15) . .
O11 Si12 O24 109.6(11) . .
O20 Si12 O24 106.1(12) . .
Si1 O1 Si2 154.5(15) . .
Si2 O2 Si3 149.2(12) . .
Si3 O3 Si4 173.4(16) . .
Si5 O4 Si4 152.1(12) . .
Si6 O5 Si5 146.7(11) . .
Si2 O6 Si6 159.7(16) . .
Si8 O7 Si7 154.7(15) . .
Si8 O8 Si9 154.1(15) . .
Si10 O9 Si9 150.4(10) . .
Si10 O10 Si11 160.4(14) . .
Si12 O11 Si11 151.4(13) . .
Si8 O12 Si12 165.4(17) . .
Si8 O13 Si2 171(2) . .
Si11 O14 Si5 164.2(16) . .
Si10 O15 Si1 146.7(11) 2_574 .
Si1 O16 Si4 162.7(18) . 2_574
Si7 O17 Si4 150.2(14) . 2_574
Si6 O18 Si9 144.4(12) . 2_574
Si3 O19 Si6 157.6(15) 2_574 .
Si12 O20 Si3 145.2(13) . 2_574
Si5 O21 Si1 146.8(15) . 6_557
Si7 O22 Si11 149.4(17) 6_557 .
Si7 O23 Si7 153(2) . 7_575
Si12 O24 Si12 150(2) . 7_575
Si9 O25 Si9 153(2) . 7_575
Si10 O26 Si10 143.1(18) . 7_575
loop_
_geom_bond_atom_site_label_1
_geom_bond_atom_site_label_2
_geom_bond_distance
_geom_bond_site_symmetry_2
Si1 O16 1.599(10) .
Si1 O1 1.600(10) .
Si1 O15 1.605(9) .
Si1 O21 1.611(9) 6_657
Si2 O13 1.598(9) .
Si2 O2 1.603(10) .
Si2 O6 1.605(9) .
Si2 O1 1.610(9) .
Si3 O3 1.587(9) .
Si3 O2 1.606(10) .
Si3 O19 1.607(9) 2_575
Si3 O20 1.608(9) 2_575
Si4 O3 1.590(9) .
Si4 O17 1.599(9) 2_575
Si4 O4 1.609(10) .
Si4 O16 1.610(9) 2_575
Si5 O14 1.599(9) .
Si5 O5 1.604(10) .
Si5 O4 1.606(10) .
Si5 O21 1.609(9) .
Si6 O5 1.598(9) .
Si6 O18 1.604(9) .
Si6 O6 1.607(9) .
Si6 O19 1.611(10) .
Si7 O22 1.592(9) 6_657
Si7 O7 1.594(10) .
Si7 O17 1.598(10) .
Si7 O23 1.603(8) .
Si8 O13 1.589(9) .
Si8 O7 1.593(9) .
Si8 O12 1.596(9) .
Si8 O8 1.606(10) .
Si9 O25 1.597(8) .
Si9 O8 1.606(10) .
Si9 O18 1.607(10) 2_575
Si9 O9 1.610(9) .
Si10 O26 1.602(9) .
Si10 O15 1.603(9) 2_575
Si10 O10 1.604(10) .
Si10 O9 1.605(9) .
Si11 O14 1.592(9) .
Si11 O22 1.605(9) .
Si11 O11 1.608(10) .
Si11 O10 1.609(10) .
Si12 O12 1.597(10) .
Si12 O11 1.599(9) .
Si12 O20 1.603(10) .
Si12 O24 1.606(8) .
