#------------------------------------------------------------------------------
#$Date: 2018-01-11 12:53:52 +0200 (Thu, 11 Jan 2018) $
#$Revision: 205069 $
#$URL: file:///home/coder/svn-repositories/cod/cif/1/54/86/1548630.cif $
#------------------------------------------------------------------------------
#
# This file is available in the Crystallography Open Database (COD),
# http://www.crystallography.net/
#
# All data on this site have been placed in the public domain by the
# contributors.
#
data_1548630
loop_
_publ_author_name
'Gruene, T.'
'Teng, Li.'
'Van Genderen, E.'
'Pinar, A. B.'
'Van Bokhoven, J. A.'
_publ_section_title
;
 Characterization at the level of individual crystals: single crystal MFI
 type zeolite grains
;
_journal_name_full               'Chemistry - A European Journal'
_journal_paper_doi               10.1002/chem.201704213
_journal_year                    2017
_chemical_formula_sum            'O24 Si12'
_chemical_formula_weight         721.20
_space_group_crystal_system      orthorhombic
_space_group_IT_number           62
_space_group_name_Hall           '-P 2ac 2n'
_space_group_name_H-M_alt        'P n m a'
_symmetry_space_group_name_Hall  '-P 2ac 2n'
_symmetry_space_group_name_H-M   'P n m a'
_atom_sites_solution_hydrogens   .
_audit_creation_method           SHELXL-2016/6
_cell_angle_alpha                90
_cell_angle_beta                 90
_cell_angle_gamma                90
_cell_formula_units_Z            8
_cell_length_a                   20.510(4)
_cell_length_b                   20.140(4)
_cell_length_c                   13.470(3)
_cell_measurement_temperature    293(2)
_cell_volume                     5564(2)
_computing_structure_refinement  'SHELXL-2016/6 (Sheldrick, 2016)'
_computing_structure_solution    'SHELXT 2014/5 (Sheldrick, 2014)'
_diffrn_ambient_temperature      293(2)
_diffrn_measured_fraction_theta_full 0.743
_diffrn_measured_fraction_theta_max 0.743
_diffrn_radiation_wavelength     0.02508
_diffrn_reflns_av_R_equivalents  0.2730
_diffrn_reflns_av_unetI/netI     0.1960
_diffrn_reflns_Laue_measured_fraction_full 0.743
_diffrn_reflns_Laue_measured_fraction_max 0.743
_diffrn_reflns_limit_h_max       15
_diffrn_reflns_limit_h_min       -15
_diffrn_reflns_limit_k_max       19
_diffrn_reflns_limit_k_min       -19
_diffrn_reflns_limit_l_max       12
_diffrn_reflns_limit_l_min       -12
_diffrn_reflns_number            10055
_diffrn_reflns_point_group_measured_fraction_full 0.743
_diffrn_reflns_point_group_measured_fraction_max 0.743
_diffrn_reflns_theta_full        0.684
_diffrn_reflns_theta_max         0.684
_diffrn_reflns_theta_min         0.064
_exptl_absorpt_coefficient_mu    0.275
_exptl_crystal_density_diffrn    1.722
_exptl_crystal_F_000             940
_refine_diff_density_max         0.324
_refine_diff_density_min         -0.234
_refine_diff_density_rms         0.078
_refine_ls_extinction_coef       .
_refine_ls_extinction_method     none
_refine_ls_goodness_of_fit_ref   1.324
_refine_ls_hydrogen_treatment    undef
_refine_ls_matrix_type           full
_refine_ls_number_parameters     149
_refine_ls_number_reflns         1936
_refine_ls_number_restraints     48
_refine_ls_restrained_S_all      1.310
_refine_ls_R_factor_all          0.3031
_refine_ls_R_factor_gt           0.1998
_refine_ls_shift/su_max          0.000
_refine_ls_shift/su_mean         0.000
_refine_ls_structure_factor_coef Fsqd
_refine_ls_weighting_details
'w=1/[\s^2^(Fo^2^)+(0.2000P)^2^] where P=(Fo^2^+2Fc^2^)/3'
_refine_ls_weighting_scheme      calc
_refine_ls_wR_factor_gt          0.4503
_refine_ls_wR_factor_ref         0.5062
_reflns_Friedel_coverage         0.000
_reflns_Friedel_fraction_full    .
_reflns_Friedel_fraction_max     .
_reflns_number_gt                815
_reflns_number_total             1936
_reflns_threshold_expression     'I > 2\s(I)'
_cod_data_source_file            zsm5_ChemEurJ.cif
_cod_data_source_block           z1
_cod_original_cell_volume        5564.1(19)
_cod_database_code               1548630
_shelx_shelxl_version_number     2016/6
_shelx_space_group_comment
;
The symmetry employed for this shelxl refinement is uniquely defined
by the following loop, which should always be used as a source of
symmetry information in preference to the above space-group names.
They are only intended as comments.
;
_shelx_res_file
;
TITL z1_a.res in Pnma
    z1.res
    created by SHELXL-2016/6 at 16:15:26 on 05-Nov-2017
REM Old TITL z1 in P222

REM SHELXT solution in Pnma
REM R1 0.316,  Rweak 0.016,  Alpha 0.113,  Orientation as input
REM Formula found by SHELXT:  O2 Si

CELL  0.02508  20.5100  20.1400  13.4700   90.000   90.000   90.000
ZERR    8.000   0.0041   0.0040   0.0027    0.000    0.000    0.000
LATT  1
SYMM 1/2-X, -Y, 1/2+Z
SYMM -X, 1/2+Y, -Z
SYMM 1/2+X, 1/2-Y, 1/2-Z
SFAC O  0.237  0.799  0.649  3.654  0.800 10.924  0.261 29.964  0.035 =
   0.0 0.0 18.200 0.660 16.00
SFAC Si  0.665  1.394  1.312  8.299  2.609 27.621  1.135 78.294  0.106 =
  0.0 0.0 123.000 1.110 28.100
UNIT 192 96
L.S. 10
ACTA
MORE 3
LIST 4
EQIV $1   x-1/2, y, -z+3/2
EQIV $2   -x+1/2, -y+2, z-1/2
EQIV $3   x, -y+3/2, z
EQIV $4   -x+1/2, -y+2, z+1/2
EQIV $5   x+1/2, y, -z+3/2

DFIX 1.609 0.01 Si1  O1 Si1 O21_$5 Si1 O16 Si1 O15
DFIX 1.609 0.01 Si2  O2 Si2 O13 Si2 O6 Si2 O1
DFIX 1.609 0.01 Si3  O20_$4 Si3 O19_$4 Si3 O2 Si3 O3
DFIX 1.609 0.01 Si4  O4 Si4 O16_$4 Si4 O3 Si4 O17_$4
DFIX 1.609 0.01 Si5  O4 Si5 O5 Si5 O14 Si5 O21
DFIX 1.609 0.01 Si6  O19 Si6 O6 Si6 O5 Si6 O18
DFIX 1.609 0.01 Si7  O23 Si7 O17 Si7 O7 Si7 O22_$5
DFIX 1.609 0.01 Si8  O13 Si8 O8 Si8 O12 Si8 O7
DFIX 1.609 0.01 Si9  O18_$4 Si9 O8 Si9 O25 Si9 O9
DFIX 1.609 0.01 Si10 O15_$4 Si10 O26 Si10 O10 Si10 O9
DFIX 1.609 0.01 Si11 O10 Si11 O14 Si11 O11 Si11 O22
DFIX 1.609 0.01 Si12 O20 Si12 O24 Si12 O11 Si12 O12

RIGU
FMAP 2
PLAN 20
WGHT    0.200000
FVAR       0.40957
SI1   2    0.423936    1.055881    0.664265    11.00000    0.01487
SI2   2    0.307891    1.029491    0.811047    11.00000    0.01784
SI3   2    0.279667    1.062190    1.031311    11.00000    0.00991
SI4   2    0.122352    1.064330    1.027615    11.00000    0.01036
SI5   2    0.072687    1.027596    0.815595    11.00000    0.00925
SI6   2    0.186705    1.058987    0.671855    11.00000    0.01064
SI7   2    0.423241    0.828547    0.675045    11.00000    0.01436
SI8   2    0.308667    0.870599    0.815443    11.00000    0.01435
SI9   2    0.273825    0.826905    1.030860    11.00000    0.00910
SI10  2    0.118950    0.827216    1.030065    11.00000    0.01300
SI11  2    0.070449    0.869210    0.815089    11.00000    0.01096
SI12  2    0.187279    0.826789    0.681608    11.00000    0.02229
O1    1    0.371946    1.055211    0.753681    11.00000    0.06860
O2    1    0.309488    1.060982    0.920632    11.00000    0.05045
O3    1    0.201057    1.061640    1.030341    11.00000    0.05987
O4    1    0.097053    1.063712    0.915005    11.00000    0.03450
O5    1    0.116164    1.054793    0.724464    11.00000    0.04720
O6    1    0.242991    1.053471    0.754595    11.00000    0.05644
O7    1    0.375906    0.846035    0.766441    11.00000    0.05544
O8    1    0.309097    0.845462    0.928156    11.00000    0.05188
O9    1    0.196438    0.843465    1.026712    11.00000    0.04159
O10   1    0.091084    0.837459    0.919472    11.00000    0.06248
O11   1    0.116544    0.843491    0.726644    11.00000    0.06535
O12   1    0.243448    0.850220    0.756972    11.00000    0.06292
O13   1    0.308610    0.950140    0.820147    11.00000    0.05025
O14   1    0.080693    0.948270    0.826015    11.00000    0.05392
O15   1    0.419901    1.125365    0.605723    11.00000    0.03981
O16   1    0.407195    0.997668    0.587328    11.00000    0.04462
O17   1    0.401044    0.866841    0.575730    11.00000    0.04587
O18   1    0.191937    1.130048    0.617225    11.00000    0.04700
O19   1    0.191219    1.000653    0.590309    11.00000    0.04848
O20   1    0.195916    0.869748    0.581859    11.00000    0.03515
O21   1   -0.002379    1.047715    0.795470    11.00000    0.03277
O22   1   -0.004502    0.850755    0.792408    11.00000    0.05018
O23   1    0.422762    0.750000    0.651596    10.50000    0.02228
O24   1    0.193956    0.750000    0.650919    10.50000    0.02637
O25   1    0.284293    0.750000    1.059833    10.50000    0.03275
O26   1    0.111234    0.750000    1.058319    10.50000    0.03312
HKLF 4




REM  z1_a.res in Pnma
REM R1 =  0.1998 for     815 Fo > 4sig(Fo)  and  0.3031 for all    1936 data
REM    149 parameters refined using     48 restraints

END

WGHT      0.2000      0.0000

REM Highest difference peak  0.324,  deepest hole -0.234,  1-sigma level  0.078
Q1    1   0.3212  0.8135  1.0216  11.00000  0.05    0.32
Q2    1   0.0201  0.8072  0.4378  11.00000  0.05    0.31
Q3    1   0.3192  1.2500  0.8488  10.50000  0.05    0.29
Q4    1   0.3026  0.7500  1.3512  10.50000  0.05    0.28
Q5    1   0.4858  0.7982  0.9812  11.00000  0.05    0.27
Q6    1   0.4225  0.7934  1.0247  11.00000  0.05    0.27
Q7    1   0.1594  1.2042  0.8363  11.00000  0.05    0.26
Q8    1   0.2894  1.2246  0.8256  11.00000  0.05    0.26
Q9    1   0.1603  0.7993  0.4505  11.00000  0.05    0.26
Q10   1   0.1031  0.7500  0.3946  10.50000  0.05    0.23
Q11   1   0.4455  1.1996  0.8473  11.00000  0.05    0.23
Q12   1   0.0302  1.1924  0.6752  11.00000  0.05    0.23
Q13   1   0.0905  1.1874  0.7663  11.00000  0.05    0.22
Q14   1   0.3074  1.1825  0.7525  11.00000  0.05    0.21
Q15   1   0.2267  1.1907  0.7785  11.00000  0.05    0.21
Q16   1   0.2046  1.1984  0.9142  11.00000  0.05    0.21
Q17   1   0.0725  0.8138  1.0221  11.00000  0.05    0.20
Q18   1   0.1500  0.8110  1.1619  11.00000  0.05    0.18
Q19   1   0.2599  0.8133  1.0793  11.00000  0.05    0.17
Q20   1   0.4875  0.7500  1.1050  10.50000  0.05    0.17
;
_shelx_res_checksum              20716
_shelx_hkl_file
;
   0   0   2  690.84  138.62
   0   0  -2  616.98  124.00
   0   0   3   57.61   26.55
   0   0  -3   32.61   23.29
   0   0   4  348.26   73.44
   0   0  -4  426.09   88.02
   0   0   5  -44.65   24.39
   0   0  -5   11.14   21.70
   0   0   6 1047.62  208.54
   0   0  -6 1108.22  220.47
   0   0  -7    1.59   22.19
   0   0   8 1222.23  242.97
   0   0  -8 1412.74  280.24
   0   0   9   31.25   23.48
   0   0  -9  -22.16   19.73
   0   0  10   34.58   25.30
   0   0 -10  -13.82   19.92
   0   0  11   10.64   26.13
   0   0 -11  -24.54   22.91
   0   0  12  184.91   46.78
   0   0 -12   88.29   30.83
   0  -1   0  240.05   51.02
   0   1   0  269.97   57.27
   0  -1   1  816.96  162.90
   0   1  -1  543.89  110.18
   0   1   1 1376.00  287.93
   0  -1   1 1097.62  229.64
   0  -1  -1 1285.10  268.91
   0   1  -1 1182.08  247.32
   0   1   2  -44.20   22.12
   0  -1  -2  -29.85   21.44
   0   1  -2   31.40   23.37
   0   1   2   -6.06    6.02
   0  -1   2   -4.81    4.17
   0  -1  -2   -3.67    5.91
   0   1  -2   -9.13    4.51
   0   1   3  937.78  186.91
   0  -1   3  933.62  185.78
   0   1  -3  854.08  170.40
   0  -1   3  760.91  159.26
   0   1   4   -3.67   22.99
   0  -1   4   -6.86   22.88
   0  -1  -4   75.60   30.41
   0   1  -4  -17.84   24.58
   0   1  -4   -6.21    4.28
   0   1   5  171.42   41.32
   0  -1   5  206.38   47.31
   0  -1  -5  153.66   40.49
   0   1  -5  158.58   40.53
   0  -1   6   -9.17   22.42
   0  -1  -6   -1.63   24.92
   0   1  -6   29.20   24.96
   0   1   7   55.37   26.51
   0  -1   7   14.85   27.42
   0  -1  -7   51.70   24.96
   0   1  -7   39.69   27.27
   0   1   8   31.74   22.04
   0  -1  -8    0.57   18.98
   0   1  -8  -24.39   20.11
   0   1   9  176.72   41.40
   0  -1   9  225.32   50.34
   0  -1  -9  164.64   38.86
   0   1  -9  251.91   54.84
   0   1  10    2.80   22.01
   0  -1  10   23.75   25.26
   0  -1 -10  -19.47   18.82
   0   1 -10   25.22   23.48
   0   1  11   50.79   29.09
   0  -1  11   22.54   25.75
   0  -1 -11   57.61   26.06
   0   1 -11   53.67   26.13
   0   1  12   22.72   24.09
   0  -1  12   24.01   24.13
   0  -1 -12    4.96   22.61
   0   1 -12  -31.47   21.82
   0  -2   0 1559.31  326.44
   0   2   0 1626.73  340.46
   0  -2   2  381.78   79.35
   0   2   2  568.88  119.42
   0  -2   2  514.72  108.02
   0  -2  -2  534.04  112.19
   0   2  -2  565.47  118.59
   0   2   3   26.63   21.17
   0  -2   3   36.28   24.16
   0   2  -3   11.63   24.47
   0   2   4   14.66   21.85
   0  -2   4  -54.31   24.73
   0  -2  -4  -30.45   27.19
   0   2  -4  -33.82   24.81
   0  -2   5  -29.92   22.95
   0  -2  -5   27.88   24.24
   0   2  -5  -24.32   24.69
   0  -2   5    2.23    3.45
   0   2  -5    4.17    3.98
   0   2   6   42.65   25.60
   0  -2   6   19.16   26.47
   0  -2  -6   10.53   21.48
   0   2  -6   46.93   26.10
   0  -2   6   13.22    5.15
   0   2  -6   17.95    5.34
   0   2   7   -1.14   20.79
   0  -2   7   42.95   25.49
   0   2  -7    3.60   18.48
   0  -2   7    4.70    3.75
   0   2  -7   -1.67    3.86
   0   2   8   70.52   25.64
   0  -2   8   56.40   22.72
   0  -2  -8   75.30   25.04
   0   2  -8   61.85   24.05
   0  -2   8   60.45   13.26
   0   2  -8   88.74   19.05
   0   2   9    1.55   19.92
   0  -2  -9   -8.94   19.58
   0   2  -9   14.58   20.79
   0   2  10    0.15   21.89
   0  -2  10   68.52   28.97
   0  -2 -10   31.21   23.33
   0   2 -10   58.55   27.57
   0   2  11   51.81   26.78
   0  -2  11   20.11   23.94
   0  -2 -11   36.89   23.03
   0   2 -11   -6.21   23.90
   0   2  12  -16.74   23.56
   0  -2  12   29.01   23.86
   0  -2 -12    6.29   22.12
   0   2 -12   32.84   22.01
   0  -3   0  -10.72    9.58
   0   3   0   -6.25    9.51
   0   3   1  431.02   90.98
   0  -3   1  622.29  130.71
   0  -3  -1  378.64   80.07
   0   3  -1  448.44   94.54
   0   3   2   -9.32    9.24
   0  -3   2    2.50    7.84
   0  -3  -2  -17.57    9.58
   0   3  -2    0.30    7.73
   0  -3   3  823.40  164.45
   0   3  -3  897.64  178.96
   0   3   3  595.77  125.29
   0  -3   3  545.40  114.57
   0  -3  -3  449.95   94.76
   0  -3   4   -1.06   23.18
   0   3  -4   12.73   23.75
   0   3   4    3.90    6.48
   0  -3   4   -1.93    5.57
   0  -3  -4    3.52    7.08
   0   3   5  742.73  148.36
   0  -3   5  805.60  160.89
   0  -3  -5  729.09  145.48
   0   3  -5  796.13  159.45
   0   3   5 1225.64  256.68
   0  -3   5  984.75  206.15
   0  -3  -5  952.18  199.60
   0   3   6   -8.41   22.27
   0  -3   6   -2.01   24.39
   0  -3  -6   30.03   23.71
   0   3  -6   31.44   24.92
   0  -3   6    3.90    4.47
   0  -3  -6    8.75    7.39
   0   3   7  319.21   67.72
   0  -3   7  280.01   60.98
   0  -3  -7  307.20   64.58
   0   3  -7  290.01   62.11
   0  -3   7  438.59   91.96
   0  -3  -7  510.93  107.38
   0   3   8   22.54   22.19
   0  -3   8   27.65   22.16
   0  -3  -8    4.85   19.28
   0   3  -8   -0.87   19.39
   0  -3   8    1.29    3.52
   0   3   9   61.81   24.13
   0  -3   9   29.81   20.91
   0  -3  -9   26.82   19.73
   0   3  -9   46.51   22.72
   0  -3   9   25.98    6.70
   0   3  10   13.37   21.17
   0  -3 -10   -3.33   20.53
   0   3 -10  -17.50   21.55
   0  -3  10   -3.11    4.09
   0   3  11   26.66   25.00
   0  -3  11   89.20   31.17
   0  -3 -11   51.02   25.15
   0   3 -11  126.65   36.21
   0  -3  11   72.64   15.98
   0   3  12   29.81   25.64
   0  -3  12  -23.03   25.00
   0  -3 -12    3.03   20.34
   0   3 -12    9.20   26.44
   0   3 -12    5.15    3.30
   0  -4   0 1121.10  235.05
   0   4   0 1215.41  254.75
   0   4   1   -3.22   10.19
   0  -4   1  -10.30    9.96
   0  -4  -1    0.27   10.23
   0   4  -1    5.08   10.11
   0   4   2   21.10   10.45
   0  -4   2   21.89   10.64
   0  -4  -2   30.22   12.31
   0   4  -2   33.90   12.20
   0  -4   3   18.86   23.67
   0   4  -3   -5.76   21.70
   0   4   3   -7.54    7.54
   0  -4   3    6.06    8.07
   0  -4  -3  -27.35    9.85
   0  -4   4  282.70   61.09
   0   4  -4  286.87   62.08
   0  -4   4  252.36   53.52
   0  -4  -4  317.92   67.38
   0   4  -4  336.37   70.98
   0  -4   5    6.14   21.89
   0   4  -5   20.34   23.67
   0  -4   5    6.21    6.40
   0  -4  -5   14.05    8.22
   0   4  -5   -3.86    6.33
   0   4   6  -19.51   21.02
   0  -4   6  -29.69   25.79
   0  -4  -6   38.97   24.01
   0   4  -6   14.51   26.51
   0  -4   6   17.73    7.88
   0  -4  -6   34.62   10.87
   0   4  -6   23.67    7.95
   0   4   7   -7.88   20.07
   0  -4   7  -77.49   29.58
   0  -4  -7  -10.26   19.32
   0   4  -7    3.22   21.82
   0  -4   7    1.40    4.43
   0  -4  -7   -0.42    5.87
   0   4  -7   -2.54    4.96
   0   4   8   -4.17   19.77
   0  -4   8   33.60   25.87
   0  -4  -8   -8.48   18.29
   0   4  -8  -18.90   19.09
   0  -4   8   -4.01    4.51
   0  -4  -8   16.93    7.23
   0   4  -8    1.82    4.47
   0   4   9  -48.06   22.50
   0  -4   9   27.12   23.33
   0  -4  -9   35.72   20.41
   0   4  -9  -10.79   20.34
   0  -4   9    0.83    3.98
   0  -4  -9    1.29    5.61
   0   4  -9    2.88    4.09
   0   4  10   -0.23   20.49
   0  -4  10   12.35   21.78
   0  -4 -10   22.04   20.57
   0   4 -10   14.70   23.48
   0  -4  10   14.24    4.92
   0  -4 -10   19.69    7.01
   0   4 -10   13.07    4.66
   0   4  11  -12.20   25.04
   0  -4 -11    0.72   21.51
   0   4 -11   21.59   22.54
   0  -4  11    3.22    4.05
   0  -4 -11   -2.01    5.53
   0   4 -11    4.36    3.98
   0   4 -12    3.37    3.48
   0  -5   0    7.99   11.06
   0   5   0   -8.52   11.36
   0   5   1 9036.97 1889.58
   0  -5   1 9999.00 2090.70
   0  -5  -1 9624.04 2013.06
   0   5  -1 9677.06 2023.28
   0   5   2   -9.96   10.57
   0  -5   2  -13.45   10.45
   0  -5  -2    3.26   10.23
   0   5  -2  -17.95   11.48
   0   5   3 2572.09  538.20
   0  -5   3 2605.80  545.02
   0  -5  -3 2552.40  534.04
   0  -5   4   34.62   22.46
   0   5  -4   38.59   23.44
   0   5   4    5.08    8.07
   0  -5   4    0.08    7.20
   0  -5  -4    6.25    8.82
   0   5  -4    0.27    7.35
   0  -5   5  186.00   43.78
   0   5  -5  195.62   45.30
   0   5   5  280.20   59.65
   0  -5   5  262.66   55.79
   0  -5  -5  225.73   48.52
   0   5  -5  245.09   52.19
   0  -5   6    1.89   23.97
   0   5  -6   -4.77   26.55
   0   5   6    3.56    7.54
   0  -5   6  -11.59    6.78
   0  -5  -6   -0.42    7.04
   0   5  -6   -8.11    6.63
   0  -5   7  -24.54   23.03
   0   5  -7   28.97   21.51
   0   5   7   35.79   10.42
   0  -5   7   72.61   16.51
   0  -5  -7   37.00   10.57
   0   5  -7   33.22    9.36
   0   5   8    6.70   17.69
   0  -5   8    0.04   20.19
   0  -5  -8   -9.47   16.36
   0   5  -8   -7.92   17.61
   0   5   8    0.04    6.51
   0  -5   8   14.54    5.95
   0  -5  -8   -1.59    6.36
   0   5  -8   13.29    6.25
   0   5   9 1431.30  283.76
   0  -5   9 1404.03  278.95
   0  -5  -9 1291.92  256.45
   0   5  -9 1352.90  268.61
   0  -5   9 1432.81  299.89
   0  -5  -9 1090.42  228.61
   0   5  -9 1498.71  313.76
   0   5  10    3.64   21.44
   0  -5  10  -33.41   25.34
   0  -5 -10  -22.50   21.48
   0   5 -10  -16.25   21.82
   0  -5  10    4.77    4.73
   0  -5 -10   -6.97    6.36
   0   5 -10    7.39    5.00
   0   5  11  354.13   74.65
   0  -5 -11  458.29   94.88
   0   5 -11  456.01   94.08
   0  -5  11  387.46   81.47
   0  -5 -11  469.27   99.01
   0  -5  12    6.36    4.24
   0  -5 -12   -0.80    5.98
   0   5 -12   -2.54    3.98
   0  -6   0 2208.11  462.45
   0   6   0 2222.88  465.48
   0   6   1   -4.01   10.49
   0  -6   1    9.39   10.49
   0  -6  -1   -9.54   10.45
   0   6  -1   -3.07   10.57
   0   6   2  109.04   25.22
   0  -6   2  131.01   29.47
   0  -6  -2   82.49   20.11
   0   6  -2   96.66   22.99
   0   6   3    0.19    9.09
   0  -6   3   -4.39    8.03
   0  -6  -3    2.95    8.82
   0   6   4   98.02   22.76
   0  -6   4   67.38   16.59
   0  -6  -4  126.96   28.56
   0   6  -4   69.65   17.08
   0  -6   5    7.39   23.48
   0   6  -5  -14.85   22.08
   0   6   5  -20.64    9.47
   0  -6   5   -5.76    7.73
   0  -6  -5  -18.82   10.00
   0   6  -5   -1.89    7.80
   0  -6   6   58.14   25.53
   0   6  -6  109.57   32.84
   0   6   6  219.52   47.08
   0  -6   6  183.24   39.28
   0  -6  -6  162.41   35.30
   0   6  -6  192.14   41.17
   0  -6   7  -29.73   21.36
   0   6  -7  -13.14   20.23
   0   6   7    2.99    6.93
   0  -6   7   -5.87    6.29
   0  -6  -7   16.70    8.11
   0   6  -7   11.82    6.82
   0  -6   8   80.03   25.91
   0   6  -8   86.20   26.85
   0   6   8   93.70   21.44
   0  -6   8   66.21   15.45
   0  -6  -8   80.94   18.86
   0   6  -8   76.17   17.46
   0   6   9   42.91   21.93
   0  -6   9    8.94   22.91
   0  -6  -9   23.94   18.79
   0   6  -9   -4.05   19.96
   0   6   9   12.04    7.04
   0  -6   9    0.68    6.29
   0  -6  -9   10.30    6.67
   0   6  -9   19.47    7.20
   0   6  10   56.36   23.60
   0  -6  10   25.19   24.69
   0  -6 -10   78.14   25.98
   0   6 -10   87.64   29.43
   0   6  10   48.40   12.50
   0  -6 -10   63.40   15.45
   0   6 -10   53.37   12.54
   0   6  11   53.21   24.35
   0  -6  11   18.79   28.67
   0  -6 -11   38.94   23.29
   0   6 -11   30.57   22.27
   0  -6  11    7.27    5.83
   0  -6 -11   -1.59    7.73
   0   6 -11   -4.01    5.38
   0  -6  12    4.20    4.51
   0  -6 -12   20.64    7.92
   0  -7   0   -8.90    9.58
   0   7   0  -16.82   10.30
   0   7   1  918.85  193.05
   0  -7   1  726.06  152.67
   0  -7  -1  950.28  199.49
   0   7  -1  752.20  158.20
   0   7   2    4.89    9.62
   0  -7   2   35.26   12.12
   0  -7  -2    5.87    9.20
   0   7  -2   48.06   14.24
   0   7   3   56.51   15.95
   0  -7   3   56.62   15.23
   0  -7  -3   64.31   17.04
   0   7   4  -11.32    9.39
   0  -7   4   -2.99    8.64
   0  -7  -4  -21.02   10.53
   0   7  -4  -10.98    9.09
   0  -7   5  -14.88   22.65
   0   7   5    6.02    8.71
   0  -7   5   20.15    9.01
   0  -7  -5   13.48    9.73
   0   7  -5    2.88    8.26
   0  -7   6    4.73   22.08
   0   7  -6  -10.98   21.63
   0   7   6   -5.76    7.69
   0  -7   6    3.07    7.16
   0  -7  -6    3.33    7.39
   0   7  -6    9.51    7.57
   0  -7   7  105.14   31.17
   0   7  -7   68.71   24.35
   0   7   7   66.47   16.55
   0  -7   7   86.62   19.88
   0  -7  -7   55.64   14.58
   0   7  -7   68.89   16.55
   0  -7   8   -8.98   20.79
   0   7  -8    2.84   19.73
   0   7   8   -0.30    7.01
   0  -7   8    0.08    6.29
   0  -7  -8    3.22    6.97
   0   7  -8    9.92    6.78
   0  -7   9   -5.83   23.41
   0   7  -9    1.78   21.51
   0   7   9    2.01    6.93
   0  -7   9    5.95    6.40
   0  -7  -9    6.10    7.16
   0   7  -9    7.50    6.63
   0  -7  10  -20.45   25.57
   0  -7 -10   28.10   20.00
   0   7 -10   19.66   23.37
   0   7  10   -4.05    7.20
   0  -7 -10    6.02    7.12
   0   7 -10   -4.32    5.49
   0   7  11    1.70   20.94
   0  -7  11   20.23   23.71
   0  -7 -11   16.85   19.88
   0   7 -11   55.79   25.72
   0   7  11   20.07    8.79
   0  -7  11   23.60    7.88
   0  -7 -11    9.92    8.14
   0   7 -11    6.36    5.95
   0  -8   0 4938.90 1032.85
   0   8   0 4147.31  868.09
   0   8   1    7.20   10.34
   0  -8   1   -9.81    9.62
   0  -8  -1  -21.29   10.53
   0   8  -1    1.78   10.11
   0   8   2   75.11   19.35
   0  -8   2   89.31   21.51
   0  -8  -2   99.27   23.60
   0   8  -2   91.54   22.16
   0   8   3   -5.83    9.32
   0  -8   3  -13.52   10.04
   0  -8  -3   10.98   10.15
   0   8   4 1352.52  283.68
   0  -8   4 1258.59  263.95
   0  -8  -4 1592.26  333.79
   0   8  -4 1583.55  331.90
   0   8   5   -2.92    7.95
   0  -8   5   -1.02    7.50
   0  -8  -5   -1.44    8.41
   0   8  -5   -0.57    7.88
   0  -8   6  834.01  166.92
   0   8  -6  974.52  194.22
   0   8   6  460.56   97.38
   0  -8   6  465.11   98.13
   0  -8  -6  506.01  106.88
   0   8  -6  540.48  113.89
   0  -8   7  -12.08   20.98
   0   8  -7   -3.83   16.59
   0   8   7   -5.15    7.80
   0  -8   7    8.90    7.27
   0  -8  -7   -8.41    7.73
   0   8  -7   -0.98    7.23
   0  -8   8    0.34   21.25
   0   8  -8  -42.42   21.63
   0   8   8   13.79    8.03
   0  -8   8   16.10    7.46
   0  -8  -8   11.17    7.76
   0   8  -8   18.90    7.95
   0  -8   9  -75.90   28.25
   0   8  -9  -27.31   22.04
   0   8   9   -3.52    7.35
   0  -8   9   10.15    7.16
   0  -8  -9   -0.83    7.20
   0   8  -9  -11.70    6.29
   0  -8  10   55.90   27.57
   0   8 -10   41.74   23.82
   0   8  10   59.08   15.38
   0  -8  10   33.78   10.42
   0  -8 -10   39.58   12.04
   0   8 -10   60.98   14.77
   0   8  11   -2.80    7.31
   0  -8  11    5.83    6.40
   0  -8 -11    1.74    7.35
   0   8 -11    5.83    5.98
   0  -9   0   -9.20   10.60
   0   9   0   -4.58   11.10
   0   9   1  104.80   25.26
   0  -9   1  120.37   27.84
   0  -9  -1  155.74   34.92
   0   9  -1  145.63   33.14
   0   9   2  -13.63   11.02
   0  -9   2   11.06   10.45
   0  -9  -2    9.81   10.53
   0   9  -2   -6.78   10.76
   0   9   3    6.02    9.62
   0  -9   3   23.41   10.95
   0  -9  -3    1.59    9.89
   0   9   4   -2.99    8.56
   0  -9   4    0.76    8.26
   0  -9  -4   -2.50    8.98
   0   9  -4  -11.40    8.94
   0   9   5   28.78   10.76
   0  -9   5   28.29   10.19
   0  -9  -5   34.54   11.74
   0   9  -5   12.99    8.90
   0   9   6   -8.64    8.48
   0  -9   6    7.20    8.03
   0  -9  -6   14.54    9.54
   0   9  -6   -9.70    8.18
   0   9   7   26.40   10.30
   0  -9   7   43.33   12.20
   0  -9  -7   28.25   10.42
   0   9  -7   17.16    8.56
   0  -9   8    4.77   21.89
   0   9  -8   27.08   21.82
   0   9   8    1.25    7.69
   0  -9   8   -2.84    6.93
   0  -9  -8  -10.57    7.84
   0   9  -8  -14.05    7.01
   0  -9   9    8.07   26.97
   0   9  -9   29.81   24.05
   0   9   9   -7.08    7.65
   0  -9   9   -2.12    6.86
   0  -9  -9    9.92    8.03
   0   9  -9   -1.36    6.25
   0  -9  10    5.38   23.97
   0   9 -10    2.27   22.42
   0   9  10    6.25    8.94
   0  -9  10    6.59    8.18
   0  -9 -10    1.17    8.86
   0   9 -10    6.51    7.61
   0   9  11   63.48   15.98
   0  -9  11   22.91    8.18
   0  -9 -11   60.26   15.26
   0   9 -11   53.02   13.18
   0 -10   0 3687.51  771.89
   0  10   0 3408.37  713.56
   0  10   1  -20.45   11.51
   0 -10   1  -10.76   10.26
   0 -10  -1  -14.28   10.26
   0  10  -1    0.15   10.68
   0 -10   2  659.78  139.11
   0 -10  -2  641.22  135.33
   0  10  -2 1081.33  227.21
   0  10   3   -8.11    8.79
   0 -10   3  -23.14   10.11
   0 -10  -3   -2.99    9.05
   0  10   4  193.62   42.42
   0 -10   4  132.34   29.81
   0 -10  -4  207.97   45.34
   0  10  -4  148.28   33.18
   0  10   5    1.93    8.90
   0 -10   5    7.54    8.52
   0 -10  -5    1.44    8.98
   0  10  -5    0.08    8.71
   0  10   6  167.67   37.08
   0 -10   6  137.18   30.57
   0 -10  -6  115.63   26.70
   0  10  -6  111.31   25.60
   0  10   7   -7.46    7.99
   0 -10   7    5.23    7.39
   0 -10  -7    0.98    7.50
   0  10  -7   25.49    9.73
   0 -10   8   43.10   25.41
   0  10  -8   75.41   26.70
   0  10   8   99.57   23.37
   0 -10   8   96.32   22.19
   0 -10  -8  126.77   28.67
   0  10  -8  130.25   28.94
   0 -10   9   10.83   23.71
   0  10  -9   -2.12   21.82
   0  10   9   -8.45    8.86
   0 -10   9   -2.16    7.88
   0 -10  -9   -2.69    8.14
   0  10  -9    4.96    7.50
   0 -10  10    1.89   24.96
   0  10 -10   45.18   24.16
   0  10  10   15.49    9.70
   0 -10  10   29.66   10.11
   0 -10 -10   26.10   10.95
   0  10 -10    9.43    7.69
   0 -11   0   -8.07    9.47
   0  11   0   -7.73   10.11
   0  11   1  134.68   30.57
   0 -11   1  141.54   31.81
   0 -11  -1  164.15   36.40
   0  11  -1  130.21   29.85
   0  11   2    6.97    9.09
   0 -11   2   12.01    9.43
   0 -11  -2    6.29    9.28
   0  11  -2    1.14    9.70
   0  11   3  249.10   53.93
   0 -11   3  194.07   42.80
   0 -11  -3  189.38   41.66
   0  11   4  -13.75    9.51
   0 -11   4   17.54    9.96
   0 -11  -4   -2.99    9.36
   0  11  -4   19.05   10.49
   0  11   5   33.60   11.82
   0 -11   5   21.78    9.85
   0 -11  -5   27.57   11.48
   0  11  -5   26.63   10.91
   0  11   6   -2.39    8.22
   0 -11   6   -4.92    7.69
   0 -11  -6    2.16    8.45
   0  11  -6    1.97    8.11
   0  11   7   67.04   17.38
   0 -11   7   17.88    9.17
   0 -11  -7   44.77   13.22
   0  11  -7   45.72   12.69
   0 -11   8  -12.69   24.16
   0  11   8    7.42    8.60
   0 -11   8    3.22    7.39
   0 -11  -8   21.66    9.58
   0  11  -8    4.13    7.23
   0 -11   9   -8.94   21.40
   0  11  -9  -22.04   23.97
   0  11   9   11.97   10.64
   0 -11   9    0.64    8.60
   0 -11  -9   -0.61    9.43
   0  11  -9   18.41    9.24
   0  11  10    2.16    8.18
   0 -11  10  -12.39    7.35
   0 -11 -10  -11.74    8.29
   0  11 -10    3.41    7.04
   0 -12   0  211.23   46.17
   0  12   0  288.15   62.04
   0  12   1    8.48    9.51
   0 -12   1   -9.92    9.01
   0 -12  -1    7.88    9.54
   0  12  -1   -4.96   10.00
   0  12   2  146.35   33.22
   0 -12   2  153.20   34.47
   0 -12  -2  131.01   30.11
   0  12  -2  221.76   48.63
   0  12   3    4.24    9.32
   0 -12   3  -19.62    9.77
   0 -12  -3  -13.79    9.62
   0  12   4   34.58   12.08
   0 -12   4   39.66   13.37
   0 -12  -4   39.28   12.84
   0  12  -4   70.07   18.63
   0  12   5    4.92    8.75
   0 -12   5   17.38    9.28
   0 -12  -5    0.68    8.79
   0  12  -5   -0.42    8.52
   0  12   6   24.62   10.68
   0 -12   6    9.54    8.29
   0 -12  -6   17.84   10.04
   0  12  -6    9.58    8.11
   0  12   7   13.41    9.47
   0 -12   7    5.38    8.33
   0 -12  -7   -7.23    8.82
   0  12  -7   -5.95    7.84
   0  12   8   28.14   11.97
   0 -12   8   28.07   10.79
   0 -12  -8   40.03   13.26
   0  12  -8   34.81   11.55
   0 -12   9   20.00   22.01
   0  12  -9   37.23   21.63
   0  12   9   11.10    9.73
   0 -12   9   -0.49    8.03
   0 -12  -9    6.10    9.01
   0  12  -9   -1.97    7.84
   0  12  10   37.99   12.12
   0 -12 -10   38.03   12.31
   0  12 -10   31.21   10.30
   0 -13   0    0.53    9.09
   0  13   0    0.11    8.94
   0  13   1  154.42   34.81
   0 -13   1  149.04   33.71
   0 -13  -1  211.80   46.43
   0  13  -1  128.09   29.50
   0  13   2    6.89    9.70
   0 -13   2   15.30    9.85
   0 -13  -2   -7.35    9.13
   0  13  -2    1.10    9.09
   0  13   3   84.95   20.91
   0 -13   3   73.89   18.90
   0 -13  -3   60.60   16.63
   0  13   4   -3.60    8.79
   0 -13   4   -1.33    9.39
   0 -13  -4   -4.73    8.98
   0  13  -4  -23.82    9.89
   0  13   5  390.49   83.32
   0 -13   5  251.91   54.39
   0 -13  -5  207.71   45.53
   0  13  -5  297.74   63.82
   0  13   6   -6.14    9.20
   0 -13   6   -2.84    8.48
   0 -13  -6  -11.48    9.70
   0  13  -6  -11.59    7.99
   0  13   7  189.72   42.08
   0 -13   7  209.26   45.68
   0 -13  -7  250.13   54.43
   0  13  -7  206.27   44.92
   0  13   8   -8.03   10.11
   0 -13   8    1.74    9.01
   0 -13  -8   -7.20    9.43
   0  13  -8    5.98    8.82
   0  13   9   23.10   10.57
   0 -13   9   35.19   11.21
   0 -13  -9   12.35    8.98
   0  13  -9   12.84    8.22
   0 -14   0   39.69   12.92
   0  14   0   81.43   20.34
   0  14   1    2.31    9.09
   0 -14   1   -1.74    9.24
   0 -14  -1   -3.03    9.05
   0  14  -1    3.67    9.13
   0  14   2   46.59   14.32
   0 -14   2   39.31   12.92
   0 -14  -2   52.27   15.26
   0  14  -2   46.47   14.01
   0  14   3    4.96    8.64
   0 -14   3   -3.14    8.64
   0 -14  -3  -15.95    9.20
   0  14   4   19.85   10.60
   0 -14   4  -12.08   10.34
   0 -14  -4   -0.08    9.47
   0  14   5    6.48    9.62
   0 -14   5    6.86    9.39
   0 -14  -5   -3.22    9.66
   0  14  -5    1.59    8.64
   0  14   6  163.54   36.85
   0 -14   6  144.57   32.61
   0 -14  -6  110.03   26.25
   0  14  -6  144.11   32.35
   0  14   7   -5.23   10.53
   0 -14   7   20.00   10.76
   0 -14  -7   11.59   11.29
   0  14  -7   -5.49    8.98
   0  14   8    6.10    9.51
   0 -14   8    1.55    7.92
   0 -14  -8   18.18    9.89
   0  14  -8   12.80    8.82
   0 -15   0   -7.39    9.20
   0  15   0   -5.26    9.54
   0  15   1  349.93   75.11
   0 -15   1  306.71   66.09
   0 -15  -1  427.61   91.17
   0  15  -1  310.39   66.93
   0  15   2    3.83    9.47
   0 -15   2   -6.25    9.28
   0 -15  -2   -1.55    9.47
   0  15  -2    0.42    9.17
   0  15   3   34.54   12.88
   0 -15   3   18.67   10.76
   0 -15  -3   32.38   12.35
   0  15   4   14.09    9.89
   0 -15   4   -9.54    9.28
   0 -15  -4    2.61    9.32
   0  15  -4   12.31    9.66
   0  15   5  153.28   35.03
   0 -15   5  166.73   37.42
   0 -15  -5  233.95   51.32
   0  15  -5  175.06   38.94
   0  15   6   -9.66   11.02
   0 -15   6  -13.41   10.45
   0 -15  -6  -15.04   11.36
   0  15  -6  -22.01   10.64
   0  15   7  100.56   24.35
   0 -15   7   70.90   18.14
   0 -15  -7   53.06   15.95
   0  15  -7   88.06   21.17
   0 -16   0  908.24  191.34
   0  16   0 1078.30  226.98
   0  16   1   -9.24    9.66
   0 -16   1    3.86    9.43
   0 -16  -1   -9.20    9.70
   0  16  -1   -7.39    9.62
   0  16   2   90.26   22.42
   0 -16   2   88.78   22.08
   0 -16  -2   88.32   22.12
   0  16  -2  113.89   26.89
   0  16   3  -11.44   10.30
   0 -16   3   -6.10    9.89
   0 -16  -3    5.49   10.26
   0  16   4   64.88   18.22
   0 -16   4   41.47   14.17
   0 -16  -4   77.87   20.87
   0  16  -4   39.50   13.75
   0  16   5   -2.99   11.21
   0 -16   5  -15.98   11.10
   0 -16  -5    1.06   10.95
   0  16  -5   -6.63   10.11
   0  16   6    0.76    9.89
   0 -16   6   -0.30    9.51
   0 -16  -6    4.58   10.00
   0  16  -6    3.90    8.82
   0  16   7   -3.26    9.54
   0 -16  -7   -6.14    9.36
   0  16  -7   -4.39    7.39
   0 -17   0    2.54   10.76
   0  17   0   -0.72   10.72
   0  17   1   36.25   14.09
   0 -17   1   59.27   17.20
   0 -17  -1  106.39   26.10
   0  17  -1   51.66   16.17
   0  17   2   15.91   12.16
   0 -17   2    0.04   10.95
   0 -17  -2   -5.64   11.67
   0  17  -2   -8.64   11.02
   0  17   3   30.15   13.48
   0 -17   3   37.95   14.58
   0 -17  -3   40.15   15.00
   0  17  -3   21.51   11.17
   0  17   4   -1.51   10.07
   0 -17   4   13.29   10.57
   0 -17  -4  -10.76   10.38
   0  17  -4    5.34    9.81
   0  17   5   20.53   11.17
   0 -17   5    5.91    9.47
   0 -17  -5   30.75   12.35
   0  17  -5   32.04   11.74
   0 -18   0   47.76   15.11
   0  18   0   56.40   17.04
   0  18   1  -23.79   11.29
   0 -18   1  -15.91   10.68
   0 -18  -1    7.46   10.26
   0  18  -1   -7.84   10.23
   0  18   2   35.45   13.75
   0 -18   2   71.47   19.32
   0 -18  -2   69.96   19.20
   0  18  -2   64.20   17.76
   0  18   3   -1.78    9.51
   0 -18   3    1.44    9.85
   0 -18  -3   -1.40    9.73
   0  18  -3    1.29    8.75
   0  18   4   11.40    9.89
   0 -18   4   11.48    9.92
   0 -18  -4   15.76   10.49
   0  18  -4   18.22   10.00
   0 -19   0   -7.95    9.54
   0  19   0   -4.28    9.77
   0  19   1   18.48   11.85
   0  19  -1   20.45   12.01
   1   0   1  526.08  105.78
  -1   0   1  652.96  131.24
   1   0  -1  757.50  151.05
   1   0   2  789.31  157.07
  -1   0   2  726.44  146.12
   1   0  -2  943.09  187.44
  -1   0  -2  846.51  168.32
   1   0   3  860.52  171.80
  -1   0   3  814.31  162.41
   1   0  -3  802.95  160.44
   1   0   4 2213.42  436.70
  -1   0   4 1953.59  385.95
   1   0  -4 1878.98  371.25
  -1   0  -4 2396.73  473.06
  -1   0   4 2066.08  432.15
   1   0  -4 2138.80  447.30
   1   0   5  144.91   35.87
  -1   0   5  188.24   43.97
   1   0  -5  137.60   37.53
  -1   0  -5  244.41   54.92
  -1   0   5  187.78   39.58
   1   0  -5  244.79   51.51
  -1   0   6  140.48   36.36
   1   0  -6  113.66   33.86
  -1   0  -6  165.89   41.97
  -1   0   6  184.26   38.78
   1   0  -6  133.96   28.48
   1   0   7  -13.67   22.99
  -1   0   7   18.07   29.47
   1   0  -7   34.81   26.17
  -1   0  -7   47.19   24.96
  -1   0   7    2.50    2.92
   1   0  -7   15.91    4.66
   1   0   8  424.96   87.57
   1   0  -8  559.79  113.59
  -1   0  -8  549.94  111.28
  -1   0   8  963.16  201.61
   1   0  -8  688.19  144.08
   1   0   9   57.87   23.07
  -1   0   9   79.65   26.82
   1   0  -9   60.56   23.86
  -1   0  -9   88.06   26.74
  -1   0   9   84.46   18.07
   1   0  -9   83.25   17.76
   1   0  10  183.28   43.86
  -1   0  10  240.62   55.15
   1   0 -10  251.49   56.28
  -1   0 -10  158.58   38.06
  -1   0  10  239.29   50.30
   1   0 -10  337.66   70.83
   1   0  11   38.29   28.10
  -1   0  11   78.14   30.11
   1   0 -11  108.55   32.61
  -1   0 -11   64.50   27.91
  -1   0  11   67.57   14.66
   1   0 -11   81.81   17.50
   1   0  12   38.03   25.68
  -1   0  12   27.76   24.62
   1   0 -12    9.77   22.42
  -1   0 -12   34.16   24.16
  -1   0  12   25.91    6.67
   1   0 -12   15.76    4.62
   1  -1   0  151.08   33.90
  -1   1   0  203.50   44.31
   1   1  -1  341.86   71.58
  -1  -1  -1  570.40  113.36
  -1  -1   1  424.58   86.89
  -1   1   1  282.17   60.07
   1  -1  -1  257.28   54.99
   1  -1   2  192.40   44.31
  -1  -1  -2   91.51   27.42
   1   1   2  101.05   27.31
  -1  -1   2  112.94   33.52
  -1   1  -2  129.80   32.99
  -1   1   2   91.24   20.94
   1  -1  -2   93.93   21.51
   1  -1   3  330.12   69.96
  -1   1   3  360.38   75.26
   1   1  -3  283.57   61.58
   1   1   3  247.89   53.48
  -1  -1   3  256.91   57.00
   1  -1  -3  322.88   67.95
  -1   1  -3  228.50   51.06
  -1   1   3  261.41   55.18
   1  -1  -3  190.78   40.45
   1  -1   4   92.83   29.28
  -1   1   4  101.62   30.41
   1   1  -4  131.24   35.87
  -1  -1  -4   55.83   29.28
   1   1   4   63.14   23.52
  -1  -1   4  100.41   31.02
   1  -1  -4  151.65   39.54
  -1   1  -4   77.80   29.58
  -1   1   4  141.69   30.19
   1  -1  -4  138.09   29.58
   1  -1   5   24.58   23.26
  -1   1   5   19.69   23.82
   1   1  -5   19.69   21.55
  -1  -1  -5   14.85   22.91
  -1  -1   5  -41.17   25.15
   1  -1  -5   33.97   22.91
  -1   1  -5   62.87   24.96
  -1   1   5   17.61    5.61
   1  -1  -5   15.00    5.72
   1  -1   6   17.80   21.44
  -1   1   6   13.22   23.94
   1   1  -6    9.36   23.90
  -1  -1  -6   20.57   21.78
   1   1   6   28.18   23.56
  -1  -1   6   59.88   28.48
   1  -1  -6   34.81   25.87
  -1   1  -6   85.71   30.75
  -1   1   6    6.21    4.58
   1  -1  -6   -2.88    4.77
   1   1  -7    3.83   19.47
  -1  -1  -7  -18.41   22.12
   1   1   7   31.40   23.48
  -1  -1   7   -8.22   25.38
   1  -1  -7   -0.57   22.35
  -1   1  -7   18.82   22.80
  -1   1   7    3.14    4.20
   1  -1  -7    9.05    4.92
   1  -1   8   12.31   22.46
  -1   1   8   -0.98   22.16
   1   1  -8   39.05   21.74
  -1  -1  -8   -9.05   19.69
   1   1   8   -5.76   20.68
  -1  -1   8   -4.32   20.87
   1  -1  -8  -36.06   22.31
  -1   1  -8  -33.37   22.57
  -1   1   8   -4.20    4.09
   1  -1  -8    2.69    4.32
   1  -1   9   11.78   22.12
  -1   1   9   -2.12   21.89
   1   1  -9   -1.25   19.28
  -1  -1  -9  -15.30   19.92
   1   1   9   14.24   20.53
   1  -1  -9   -4.32   18.90
  -1   1  -9    8.18   18.90
  -1   1   9    7.61    4.36
   1  -1  -9   -6.21    3.90
   1  -1  10   39.01   26.25
  -1   1  10    6.10   24.62
   1   1 -10   31.25   24.35
  -1  -1 -10   40.98   23.22
   1   1  10   70.49   26.63
  -1  -1  10   45.30   26.36
   1  -1 -10    1.40   19.69
  -1   1 -10   22.35   21.06
  -1   1  10   23.60    6.67
   1  -1 -10   34.43    8.29
   1  -1  11   15.23   26.97
  -1   1  11    2.58   24.62
   1   1 -11   39.69   25.38
  -1  -1 -11   28.33   22.69
   1   1  11  -12.99   25.30
  -1  -1  11   55.15   27.12
   1  -1 -11   53.59   25.60
  -1   1 -11   49.88   24.85
  -1   1  11    9.20    4.58
   1  -1 -11   15.64    4.92
   1  -1  12  -10.34   25.07
  -1   1  12  -19.35   24.01
   1   1 -12   12.12   21.21
  -1  -1 -12   10.76   23.03
   1   1  12   18.03   23.60
  -1  -1  12   17.91   23.44
   1  -1 -12    0.30   23.07
  -1   1 -12   20.87   22.95
  -1   1  12    4.28    4.51
   1  -1 -12   -5.00    3.94
   1  -2   0   63.74   16.21
  -1   2   0   61.13   15.72
   1  -2   1  124.31   28.52
  -1   2   1  149.27   32.53
   1  -2  -1  150.67   32.88
  -1   2  -1  152.03   34.47
  -1  -2  -2   48.93   20.76
   1   2   2   64.46   21.89
  -1  -2   2   58.97   24.66
  -1   2   2   47.76   12.54
   1  -2  -2   58.06   14.47
   1  -2   3  101.39   31.40
   1   2  -3   96.47   34.20
   1   2   3   74.88   25.00
  -1  -2   3  112.94   33.22
  -1   2  -3  151.12   38.10
   1  -2   3  168.24   36.40
  -1   2   3  157.41   34.05
   1  -2  -3  103.17   22.99
   1  -2   4  370.08   77.45
  -1   2   4  291.03   61.93
   1   2  -4  347.84   73.78
  -1  -2  -4  244.37   53.56
  -1  -2   4  358.83   75.60
   1  -2  -4  241.57   53.78
  -1   2  -4  268.84   59.08
   1  -2   4  387.08   81.36
  -1   2   4  355.72   74.84
   1  -2  -4  363.60   76.55
  -1   2  -4  353.71   74.54
   1  -2   5   42.08   22.65
  -1   2   5   -1.70   20.64
   1   2  -5   17.20   25.19
  -1  -2  -5   33.67   20.83
   1   2   5  -18.60   21.06
  -1  -2   5   17.31   23.37
   1  -2  -5   62.34   30.03
  -1   2  -5    1.25   23.75
  -1   2   5    5.53    5.68
   1  -2  -5   30.75    8.82
   1  -2   6   33.03   23.52
   1   2  -6   59.65   26.63
  -1  -2  -6   38.71   25.60
   1   2   6   51.21   24.16
  -1  -2   6   81.05   29.32
   1  -2  -6   60.98   26.78
  -1   2  -6   45.75   24.05
   1  -2   7   -4.28   23.56
  -1   2   7  -26.55   25.94
   1   2  -7   -5.83   20.00
  -1  -2  -7  -27.42   21.44
   1   2   7  -60.18   26.02
  -1  -2   7   -4.66   22.84
   1  -2  -7    4.17   21.66
  -1   2  -7  -13.33   23.07
  -1   2   7   16.70    6.10
   1  -2  -7    5.64    5.42
  -1   2   8   14.09   21.13
   1   2  -8  -20.41   19.58
  -1  -2  -8   18.33   19.88
   1   2   8   -3.03   21.21
  -1  -2   8  -37.72   22.80
   1  -2  -8  -16.06   17.01
  -1   2  -8   37.31   21.66
  -1   2   8   12.99    5.68
   1  -2  -8    0.64    5.11
   1  -2   9   29.09   22.27
  -1   2   9   14.39   20.49
   1   2  -9    3.37   19.35
  -1  -2  -9    2.42   18.37
   1   2   9   27.00   21.21
  -1  -2   9   13.90   20.49
   1  -2  -9   22.95   19.01
  -1   2  -9  -19.43   20.53
  -1   2   9    4.77    4.85
   1  -2  -9    3.14    4.39
   1  -2  10   49.12   26.63
  -1   2  10   16.89   25.26
   1   2 -10    7.12   21.32
  -1  -2 -10   16.70   20.57
   1   2  10   29.54   22.91
   1  -2 -10   48.86   22.50
  -1   2 -10   26.55   23.18
  -1   2  10   42.61   10.42
   1  -2 -10   23.52    6.74
   1  -2  11    7.61   23.97
  -1   2  11   20.30   28.14
   1   2 -11    0.83   24.24
  -1  -2 -11   12.27   22.54
   1   2  11   22.23   25.83
  -1  -2  11   31.36   26.17
   1  -2 -11  -43.52   24.28
  -1   2 -11   13.41   22.04
  -1   2  11    8.37    5.26
   1  -2 -11    6.74    4.55
   1  -2  12   36.02   25.26
  -1   2  12   23.97   24.54
   1   2 -12   11.14   24.66
  -1  -2 -12    5.00   18.22
   1   2  12   -4.58   23.71
  -1  -2  12  -27.08   25.07
   1  -2 -12  -18.52   23.48
  -1   2 -12    8.75   22.50
  -1   2  12    8.71    5.42
   1  -2 -12    1.06    4.43
   1  -3   0   -5.98    8.98
  -1   3   0    0.27    7.61
   1  -3   1  402.99   85.07
  -1   3   1  435.56   91.88
   1  -3  -1  513.59  108.06
   1   3  -2   64.35   25.87
  -1  -3   2   13.22   21.63
   1  -3   2   46.21   12.46
  -1   3   2   39.16   12.42
   1  -3  -2   45.30   13.14
   1   3  -3 3565.17  702.20
  -1  -3   3 2702.76  532.52
   1  -3   3 3507.98  733.64
  -1   3   3 4499.55  941.57
   1  -3  -3 3230.36  675.69
   1  -3   4   43.48   23.82
   1   3  -4   83.67   28.78
  -1  -3  -4   88.74   26.74
   1   3   4   53.44   25.19
  -1  -3   4   66.36   27.95
  -1   3  -4   70.37   27.80
   1  -3   4   53.67   13.33
  -1   3   4   54.35   13.37
   1  -3  -4   68.71   16.40
   1  -3   5   21.97   22.61
   1   3  -5   73.17   28.71
  -1  -3  -5   13.14   19.32
   1   3   5   66.55   24.85
  -1  -3   5   31.63   23.44
  -1   3  -5   26.06   24.88
   1  -3   5   29.43    9.17
  -1   3   5   52.04   12.80
   1  -3  -5   29.66    9.43
   1  -3   6   41.21   26.89
  -1   3   6   68.33   26.89
   1   3  -6   62.99   31.02
  -1  -3  -6  124.50   34.47
   1   3   6   87.15   28.41
  -1  -3   6   22.91   26.13
   1  -3  -6   33.44   24.01
  -1   3  -6   -4.36   23.03
   1  -3   6   72.15   16.59
  -1   3   6   75.71   17.38
   1  -3  -6  102.15   22.84
   1  -3   7   92.30   30.49
  -1   3   7   61.85   23.52
   1   3  -7   90.52   29.09
  -1  -3  -7  115.63   31.25
   1   3   7   71.62   27.35
  -1  -3   7   89.61   31.66
   1  -3  -7   89.23   27.16
  -1   3  -7   83.89   26.17
   1  -3   7   95.79   20.98
  -1   3   7  127.68   27.61
   1  -3  -7  101.69   22.46
  -1   3   8   35.11   21.55
   1   3  -8  -13.14   20.04
  -1  -3  -8  -14.51   18.63
   1   3   8  -23.60   20.91
  -1  -3   8   31.40   26.51
   1  -3  -8   -1.89   17.65
  -1   3  -8    0.95   19.43
   1  -3   8    0.11    5.34
  -1   3   8   11.59    6.17
  -1  -3   8    9.54    4.32
   1  -3  -8   10.23    5.83
  -1   3  -8    0.38    6.06
  -1   3   9    8.56   20.76
   1   3  -9   -1.82   18.03
  -1  -3  -9   31.47   19.51
   1   3   9   -3.30   21.93
  -1  -3   9   13.26   22.01
   1  -3  -9   35.87   20.23
  -1   3  -9    3.67   22.42
   1  -3  -9   16.48    6.14
  -1   3  -9    5.30    5.49
   1  -3  10   24.69   25.79
  -1   3  10   33.97   22.57
   1   3 -10    8.41   23.94
  -1  -3 -10   20.94   20.68
   1   3  10  -14.09   22.04
  -1  -3  10   21.85   26.29
   1  -3 -10   15.45   20.83
  -1   3 -10   10.98   24.81
  -1   3  10   26.55    7.95
  -1  -3  10    4.70    3.26
   1  -3 -10    7.01    5.19
   1  -3  11   17.73   24.73
  -1   3  11   41.17   27.35
   1   3 -11   25.11   24.13
  -1  -3 -11   30.91   22.84
   1   3  11    1.06   24.69
   1  -3 -11   -1.48   21.32
  -1   3 -11   68.36   27.69
  -1   3  11    6.21    6.02
  -1  -3  11   11.14    3.79
   1  -3 -11   24.24    7.88
   1  -3  12    0.11   25.22
   1   3 -12   25.83   23.71
   1   3  12   14.43   25.07
  -1  -3  12    8.29   25.04
   1  -3 -12   17.50   24.51
  -1   3  12   -2.80    5.53
  -1  -3  12    6.89    3.26
   1  -3 -12    3.90    5.11
   1  -4   0    2.35    9.73
  -1   4   0   -2.01    9.62
   1  -4   1   73.52   17.99
  -1   4   1   48.86   14.54
   1  -4  -1   61.77   16.48
  -1   4  -1   65.03   17.01
   1   4  -2   51.51   23.86
  -1  -4   2   27.95   21.13
   1  -4   2   46.62   13.29
  -1   4   2   60.49   16.82
   1  -4  -2   65.22   17.54
  -1   4  -2   41.02   12.95
   1   4  -3  -43.82   24.28
  -1  -4   3    6.36   23.03
   1  -4   3   -6.78    7.35
  -1   4   3    4.62    8.07
   1  -4  -3  -10.57    8.67
   1  -4   4   -7.01   21.55
   1   4  -4    8.22   23.26
  -1  -4   4  -12.50   25.49
  -1   4  -4  -19.32   21.21
   1  -4   4    6.25    6.17
  -1   4   4    6.40    5.98
   1  -4  -4   -9.81    7.76
  -1   4  -4   -5.79    6.55
   1  -4   5   20.94   22.08
   1   4  -5  -26.70   24.01
  -1  -4  -5   11.74   22.19
   1   4   5   32.16   20.04
  -1  -4   5   53.82   26.21
  -1   4  -5   16.10   23.37
   1  -4   5    5.00    6.02
   1  -4  -5   14.51    8.33
  -1   4  -5    6.78    6.55
   1  -4   6  -31.10   27.42
   1   4  -6    0.34   27.88
  -1  -4  -6   -6.67   20.26
   1   4   6   16.85   21.59
  -1  -4   6  -34.47   25.49
  -1  -4   6  115.44   25.34
   1  -4   7   20.30   23.07
  -1   4   7   14.43   19.16
   1   4  -7  -28.44   23.75
  -1  -4  -7   -8.90   22.95
   1   4   7   22.16   21.78
  -1  -4   7   36.25   26.10
   1  -4  -7   14.92   20.11
  -1   4  -7   29.47   22.04
   1  -4   7  -10.07    6.51
  -1  -4   7   -4.05    5.00
   1  -4  -7    2.80    6.10
  -1   4  -7   -4.39    5.30
   1  -4   8   13.22   20.68
  -1   4   8   -4.36   21.59
   1   4  -8   46.70   21.44
  -1  -4  -8    6.02   18.52
   1   4   8   38.33   20.15
  -1  -4   8   -7.54   22.61
   1  -4  -8  -11.02   16.78
  -1   4  -8   48.93   22.35
   1  -4   8    4.36    6.17
  -1  -4   8    3.94    4.96
   1  -4  -8    4.17    6.06
  -1   4  -8    4.36    6.21
  -1   4   9  -13.98   20.60
   1   4  -9   -7.23   18.33
  -1  -4  -9    1.82   20.15
   1   4   9   14.17   21.48
  -1  -4   9  -11.32   22.12
   1  -4  -9  -48.40   20.53
  -1   4  -9   -2.05   20.49
   1  -4   9    0.57    5.45
   1   4  -9   -1.29    4.05
  -1  -4   9    0.91    4.36
   1  -4  -9   12.65    6.06
  -1   4  -9   -7.61    6.10
   1  -4  10    0.91   21.32
  -1   4  10   51.78   24.09
   1   4 -10  -38.48   23.60
  -1  -4 -10    5.53   21.32
   1   4  10   52.68   25.15
  -1  -4  10   50.34   27.08
   1  -4 -10    0.42   20.87
  -1   4 -10   43.06   22.61
   1  -4  10   28.52    8.29
   1   4 -10   21.21    5.83
  -1  -4  10   16.82    5.68
   1  -4 -10   23.79    7.73
  -1   4 -10   11.63    5.76
   1  -4  11   20.76   25.53
  -1   4  11    8.79   22.61
   1   4 -11   21.59   22.80
  -1  -4 -11    0.15   22.65
   1   4  11   33.37   23.18
  -1  -4  11   -7.57   25.22
   1  -4 -11   24.66   22.04
  -1   4 -11   43.22   25.91
   1  -4  11    3.52    5.91
   1   4 -11    4.09    3.83
  -1  -4  11    3.33    4.17
   1  -4 -11    5.49    6.02
  -1   4 -11   -0.57    5.45
   1  -4  12   19.96    6.74
   1   4 -12   14.51    4.55
  -1  -4  12    8.14    3.98
   1  -4 -12   23.22    7.61
  -1   4 -12   20.79    6.63
   1  -5   0  -11.10   10.49
  -1   5   0   12.54   11.10
   1  -5   1 3615.55  756.36
  -1   5   1 2829.64  592.36
   1  -5  -1 5162.36 1080.20
  -1   5  -1 4037.47  844.99
   1  -5   2  335.91   71.28
  -1   5   2  535.55  113.02
   1  -5  -2  479.88  101.43
  -1   5  -2  421.93   89.23
   1   5  -3  382.92   78.86
  -1  -5   3  479.12   97.41
   1  -5   3 1569.16  328.57
  -1   5   3 1571.05  329.02
   1   5  -4  208.54   47.38
  -1  -5   4  226.91   50.37
   1  -5   4  272.02   57.68
  -1   5   4  227.89   48.78
  -1  -5   4  309.21   65.64
   1  -5  -4  275.24   58.67
  -1   5  -4  222.36   47.50
   1  -5   5  125.52   33.56
   1   5  -5   45.68   24.13
  -1  -5   5   80.29   29.09
  -1   5  -5  114.00   32.69
   1  -5   5   58.97   14.39
  -1   5   5   53.52   14.05
  -1  -5   5   82.15   19.09
   1  -5  -5   81.62   19.58
  -1   5  -5   56.17   14.13
   1  -5   6   36.97   23.75
   1   5  -6    6.06   25.11
  -1  -5   6   57.27   26.32
  -1   5  -6   19.39   25.53
   1  -5   6    0.23    5.87
  -1   5   6    6.78    7.31
   1   5  -6   -1.74    6.33
  -1  -5   6  -12.73    6.82
   1  -5  -6   -5.42    7.27
  -1   5  -6   -4.92    6.44
   1  -5   7  -18.86   22.35
   1   5  -7    5.83   23.67
  -1  -5  -7  -10.60   18.52
   1   5   7  -21.55   18.60
  -1  -5   7   25.94   24.85
  -1   5  -7    6.89   20.15
   1  -5   7    1.25    5.15
   1   5  -7   -1.25    5.87
  -1  -5   7    3.60    5.76
   1  -5  -7    7.20    6.70
  -1   5  -7   -3.67    5.64
   1  -5   8   24.77   20.79
   1   5  -8   14.66   20.72
  -1  -5  -8    5.15   15.68
   1   5   8   -4.55   16.02
  -1  -5   8   25.07   21.25
  -1   5  -8   24.66   17.31
   1  -5   8   10.95    5.76
  -1   5   8   13.18    7.04
   1   5  -8   27.00    8.07
  -1  -5   8   12.50    6.17
   1  -5  -8   21.21    7.99
  -1   5  -8   10.87    6.10
   1  -5   9   27.65   25.60
  -1   5   9   46.09   21.82
   1   5  -9   19.92   20.23
  -1  -5  -9   16.17   18.52
   1   5   9   55.71   22.91
  -1  -5   9   -9.13   21.89
   1  -5  -9   36.93   20.60
  -1   5  -9   28.29   22.88
   1  -5   9   44.31   10.76
  -1   5   9   78.70   18.03
   1   5  -9   52.65   12.39
   1  -5  -9   61.21   14.58
  -1   5  -9   37.16    9.54
   1   5 -10  156.61   39.54
  -1  -5 -10  113.21   31.06
   1   5  10  153.73   38.03
  -1  -5  10  157.14   40.75
   1  -5 -10  175.25   41.74
  -1   5 -10   66.93   27.31
   1  -5  10   70.60   16.44
   1   5 -10  106.35   22.99
  -1  -5  10   65.45   14.85
   1  -5 -10  111.28   24.66
  -1   5 -10   66.17   14.96
   1  -5  11   35.15   23.37
  -1   5  11   12.35   23.52
   1   5 -11   57.08   25.60
  -1  -5 -11   37.12   24.20
   1   5  11   35.83   25.38
  -1  -5  11  -27.23   27.42
   1  -5 -11   38.14   23.14
  -1   5 -11   45.11   24.66
   1  -5  11   22.42    8.45
   1   5 -11   12.73    5.68
  -1  -5  11   20.34    7.04
   1  -5 -11   25.07    8.98
  -1   5 -11   10.34    5.79
   1  -5  12    2.58    5.57
  -1   5  12   -2.27    5.83
   1   5 -12    0.95    3.79
  -1  -5  12    3.75    4.36
   1  -5 -12    6.86    6.06
  -1   5 -12    4.20    5.11
   1  -6   0   21.70   11.29
  -1   6   0    9.47   10.83
   1  -6   1   26.17   11.10
  -1   6   1   34.50   12.95
   1  -6  -1   67.30   17.69
  -1   6  -1   16.89   10.72
  -1   6   2   41.40   13.10
  -1  -6   2   12.80    9.01
   1  -6  -2   50.18   14.39
  -1   6  -2   19.73    9.62
   1  -6   3   15.45    8.11
  -1   6   3   22.76   10.38
  -1  -6   3    4.39    8.37
   1  -6  -3   22.01   10.19
   1   6  -4   36.74   21.36
  -1  -6   4   14.35   22.65
   1  -6   4   51.96   13.52
  -1   6   4   62.61   16.06
   1   6  -4   42.31   12.80
  -1  -6   4   62.11   15.87
   1  -6  -4   52.72   14.66
  -1   6  -4   79.76   18.90
   1   6  -5   30.79   27.27
  -1  -6   5   30.57   22.61
   1  -6   5   14.81    7.88
  -1   6   5    4.20    8.29
   1   6  -5   22.42    9.51
  -1  -6   5    1.10    7.84
   1  -6  -5    7.01    8.90
  -1   6  -5   -6.10    7.61
   1  -6   6  -16.74   20.83
   1   6  -6    4.32   21.89
  -1  -6   6   25.00   25.07
  -1   6  -6   42.23   24.43
   1  -6   6   12.27    6.63
  -1   6   6    9.96    7.42
   1   6  -6    1.82    6.70
  -1  -6   6    9.36    6.86
   1  -6  -6    9.96    7.35
  -1   6  -6    2.42    6.36
   1  -6   7   30.41   21.44
   1   6  -7   37.88   23.07
  -1  -6   7   52.80   25.94
  -1   6  -7   -3.98   19.32
   1  -6   7    6.14    5.91
  -1   6   7   10.19    7.35
   1   6  -7   -4.32    6.48
  -1  -6   7   -4.39    6.21
   1  -6  -7   11.10    7.35
  -1   6  -7    5.91    6.33
   1  -6   8   -0.72   20.45
   1   6  -8   35.53   19.62
  -1  -6  -8  -13.75   15.76
   1   6   8  -11.17   15.83
  -1  -6   8   48.33   24.13
  -1   6  -8   16.02   17.42
   1  -6   8    3.30    5.72
  -1   6   8    2.99    6.78
   1   6  -8   22.35    7.88
  -1  -6   8   -1.36    5.95
   1  -6  -8   -0.45    6.63
  -1   6  -8   -6.97    6.55
   1  -6   9   75.07   28.29
   1   6  -9   10.38   21.40
  -1  -6  -9   -3.83   19.01
   1   6   9   17.80   19.81
  -1  -6   9    4.77   23.56
  -1   6  -9   26.59   21.85
   1  -6   9    3.83    5.23
  -1   6   9    1.10    6.40
   1   6  -9    6.02    5.91
  -1  -6   9    8.94    5.98
   1  -6  -9   -3.56    6.29
  -1   6  -9    8.86    5.79
   1  -6  10   52.49   27.72
  -1   6  10   11.44   21.70
   1   6 -10  -16.93   26.13
  -1  -6 -10  -22.35   20.23
   1   6  10   15.30   22.54
  -1  -6  10  -49.99   28.18
   1  -6 -10  -22.76   20.79
  -1   6 -10   -0.98   22.35
   1  -6  10    8.90    5.57
  -1   6  10   17.27    7.69
   1   6 -10   21.89    6.93
  -1  -6  10    5.08    5.64
   1  -6 -10  -12.01    6.82
  -1   6 -10   -1.02    5.08
  -1   6  11    8.52   21.55
   1   6 -11   51.74   25.45
  -1  -6 -11   19.96   20.94
   1   6  11  -14.81   22.27
  -1  -6  11  -10.26   23.97
   1  -6 -11   -6.82   21.70
  -1   6 -11   29.24   22.31
   1  -6  11    7.39    6.10
  -1   6  11   21.10    8.98
   1   6 -11    5.91    5.61
  -1  -6  11   32.61    9.47
   1  -6 -11   10.95    7.99
  -1   6 -11    5.11    5.91
   1  -6  12    9.09    5.98
  -1   6  12   15.57    7.16
   1   6 -12   26.40    7.23
  -1  -6  12   18.82    6.44
   1  -6 -12    3.33    6.17
  -1   6 -12   11.78    5.30
  -1  -7   0    2.76    9.28
   1  -7   0   12.73    9.77
  -1   7   0   -5.68    9.54
   1  -7   1   12.99    9.39
  -1   7   1   -6.29    9.89
   1   7  -1   10.83    9.70
  -1  -7   1   17.84    9.96
   1  -7  -1   31.10   11.59
  -1   7  -1   15.60   10.34
  -1   7   2   20.76   10.83
   1   7  -2   18.82   10.49
  -1  -7   2   -8.86    9.28
   1  -7  -2    3.64    9.36
   1  -7   3  452.98   95.63
  -1   7   3  329.51   70.26
  -1  -7   3  549.94  115.90
   1  -7  -3  370.34   78.70
   1  -7   4   47.23   13.10
  -1   7   4   27.12   11.14
   1   7  -4   60.33   16.10
  -1  -7   4   36.47   12.08
   1  -7  -4   35.07   12.35
  -1   7  -4   39.73   12.27
   1   7  -5   -6.06   23.79
  -1  -7   5   26.32   24.28
   1  -7   5   64.77   15.91
  -1   7   5   42.50   12.80
   1   7  -5   60.83   15.72
  -1  -7   5   89.84   20.98
   1  -7  -5   73.52   18.48
  -1   7  -5   32.35   10.72
   1  -7   6   -3.75   24.58
   1   7  -6   70.37   25.38
  -1  -7   6  -15.91   22.01
   1  -7   6   12.50    6.97
  -1   7   6   30.41   10.11
   1   7  -6   22.46    8.79
  -1  -7   6   14.81    7.88
   1  -7  -6   19.73    8.67
  -1   7  -6   27.19    9.13
   1  -7   7  -17.42   19.39
   1   7  -7   32.57   21.44
  -1  -7   7   41.59   22.99
  -1   7  -7   17.76   19.58
   1  -7   7   65.64   15.60
  -1   7   7   42.99   12.35
   1   7  -7   83.10   19.32
  -1  -7   7   57.84   14.35
   1  -7  -7   38.82   11.63
  -1   7  -7   47.38   12.46
   1  -7   8   14.66   21.66
   1   7  -8   -8.86   19.62
  -1  -7   8   18.07   20.68
  -1   7  -8    2.12   20.11
   1  -7   8   -4.77    5.79
  -1   7   8    3.14    6.97
   1   7  -8   19.62    8.22
  -1  -7   8    0.98    6.55
   1  -7  -8    1.67    7.08
  -1   7  -8   -4.39    6.36
   1  -7   9  -33.71   25.22
   1   7  -9   23.97   22.27
  -1  -7  -9   14.05   18.98
  -1  -7   9    3.14   25.11
  -1   7  -9   11.10   21.97
   1  -7   9    7.12    5.98
  -1   7   9   34.24   10.42
   1  -7  -9    5.30    7.01
  -1   7  -9    9.01    5.79
   1  -7  10   -3.14   23.37
   1   7 -10   30.98   25.49
  -1  -7 -10   39.09   22.31
   1   7  10  -23.75   23.63
  -1  -7  10   -9.17   25.75
  -1   7 -10  -33.48   22.31
   1  -7  10    7.20    5.98
  -1   7  10    8.98    7.39
   1   7 -10    6.44    5.83
  -1  -7  10    7.54    6.44
   1  -7 -10   -1.70    7.12
  -1   7 -10   -2.92    5.19
   1  -7  11   19.16   26.25
   1   7 -11   41.47   23.90
  -1  -7 -11    3.45   20.30
   1   7  11  -11.36   22.19
  -1  -7  11   58.48   29.13
   1  -7 -11   64.58   25.04
  -1   7 -11    5.61   21.97
   1  -7  11   25.64    8.22
  -1   7  11   28.10    9.96
   1   7 -11   29.88    8.71
  -1  -7  11   20.19    7.76
   1  -7 -11   28.44   10.11
  -1   7 -11   29.32    8.82
   1   8   0   -6.97   10.53
  -1  -8   0    4.92    9.89
   1  -8   0   23.79   10.87
  -1   8   0   -0.42    9.92
   1  -8   1   67.15   17.46
  -1   8   1   26.93   12.20
   1   8  -1   65.26   17.65
  -1  -8  -1   63.18   17.04
   1   8   1   52.65   15.30
  -1  -8   1   72.45   18.41
   1  -8  -1   27.19   11.82
  -1   8  -1   52.23   15.34
   1  -8   2   41.28   13.29
   1   8  -2   54.27   15.76
  -1  -8  -2   92.26   22.31
  -1  -8   2   56.85   15.64
  -1   8  -2   69.69   18.14
   1  -8   3   16.66   10.26
  -1   8   3   -5.23    9.36
  -1  -8   3   15.53   10.19
   1  -8  -3    5.49   10.26
   1  -8   4  743.49  156.54
  -1   8   4  705.23  148.55
   1   8  -4  535.93  113.17
  -1  -8   4  524.19  110.67
   1  -8  -4  620.77  130.93
  -1   8  -4  979.83  205.74
   1   8  -5   -0.42   22.42
  -1  -8   5   35.91   23.94
   1  -8   5   31.85    9.96
  -1   8   5   31.13   10.79
   1   8  -5   30.41   10.49
  -1  -8   5   34.31   10.87
   1  -8  -5   31.28   11.14
  -1   8  -5   35.94   11.29
   1   8  -6  478.74   97.64
  -1  -8   6  508.28  103.32
   1  -8   6  456.01   96.20
  -1   8   6  645.01  135.90
   1   8  -6  478.36  100.97
  -1  -8   6  609.79  128.32
   1  -8  -6  653.72  137.68
  -1   8  -6  538.58  113.51
   1  -8   7   20.76   21.82
   1   8  -7   26.63   18.10
  -1  -8   7   12.84   19.05
  -1   8  -7   27.95   18.79
   1  -8   7   60.64   14.73
  -1   8   7   43.48   12.46
   1   8  -7   46.66   12.76
  -1  -8   7   57.30   14.51
   1  -8  -7   46.32   12.95
  -1   8  -7   20.41    8.45
   1  -8   8  484.42   99.91
   1   8  -8  582.90  118.02
  -1  -8   8  438.59   90.63
  -1   8  -8  575.70  116.69
   1  -8   8  800.30  168.05
   1   8  -8  750.30  157.64
  -1  -8   8  599.56  126.12
   1  -8  -8  720.76  151.69
  -1   8  -8  615.85  129.53
   1  -8   9  -19.13   23.37
   1   8  -9   25.00   23.33
  -1  -8   9   43.71   26.29
  -1   8  -9   18.41   23.07
   1  -8   9   -6.44    6.10
  -1   8   9    1.44    7.31
   1   8  -9    8.56    6.44
  -1  -8   9    4.36    6.89
   1  -8  -9   -5.57    7.12
  -1   8  -9    7.50    6.06
   1  -8  10   44.47   26.82
   1   8 -10  -20.94   23.60
  -1  -8  10   51.62   26.93
  -1   8 -10   41.13   23.26
   1  -8  10   23.90    8.71
   1   8 -10   37.04   10.68
  -1  -8  10   36.47   10.91
   1  -8 -10   13.03    9.39
  -1   8 -10   12.69    6.89
   1  -8  11    6.82    6.02
  -1   8  11   -7.08    7.35
   1   8 -11    1.02    5.68
  -1  -8  11   10.23    6.82
   1  -8 -11   -5.98    7.35
  -1   8 -11    7.39    5.79
   1   9   0   10.11   11.29
  -1  -9   0  -16.89   10.64
   1  -9   0   22.38   11.51
  -1   9   0   30.49   12.99
   1  -9   1   51.70   15.49
  -1   9   1   30.98   13.07
   1   9  -1   35.94   13.79
  -1  -9  -1   84.54   21.13
   1   9   1   54.31   16.59
  -1  -9   1   78.14   19.81
   1  -9  -1   33.25   12.65
  -1   9  -1   59.69   17.16
   1  -9   2  -22.04   10.64
  -1   9   2   12.95   10.95
   1   9  -2    3.11   10.30
  -1  -9  -2  -11.55   10.04
   1   9   2   -6.29   10.72
  -1  -9   2   13.29   10.15
   1  -9  -2   -9.09   10.11
  -1   9  -2   10.04   10.98
   1  -9   3   41.32   13.22
  -1   9   3   20.87   10.64
  -1  -9  -3   14.24   10.57
   1   9   3   14.54    9.77
   1  -9  -3   17.69   10.83
   1  -9   4    3.98    8.22
  -1   9   4   -4.43    8.18
   1   9  -4   10.91    8.67
  -1  -9  -4   -4.96    9.09
  -1  -9   4    2.39    8.22
   1  -9  -4    5.68    8.94
  -1   9  -4   -4.62    8.60
   1  -9   5    8.82    8.18
  -1   9   5    5.45    8.26
   1   9  -5   40.79   12.54
  -1  -9  -5   24.77   10.26
  -1  -9   5   31.06   10.79
   1  -9  -5    7.99    8.98
  -1   9  -5  -10.91    8.52
   1   9  -6   -4.62   19.05
  -1  -9   6   11.78   18.07
   1  -9   6    7.35    7.35
  -1   9   6    8.22    8.52
   1   9  -6   10.91    8.75
  -1  -9   6  -11.78    8.11
   1  -9  -6   12.01    9.24
  -1   9  -6    6.93    8.41
   1   9  -7   -9.92   20.30
  -1  -9   7    4.13   21.32
   1  -9   7   10.53    7.50
  -1   9   7   25.53    9.92
  -1  -9   7   10.11    7.80
   1  -9  -7   22.84    9.13
  -1   9  -7   -2.05    7.80
   1  -9   8   17.61   24.13
   1   9  -8   18.33   20.34
  -1  -9   8   23.75   24.01
  -1   9  -8  -17.84   20.00
   1  -9   8   12.65    7.04
  -1   9   8    9.09    8.11
   1   9  -8   -0.57    6.63
  -1  -9   8    0.61    7.04
   1  -9  -8    3.30    7.69
  -1   9  -8   -4.62    6.10
   1  -9   9    5.76   26.06
   1   9  -9   -3.30   20.76
  -1  -9   9  -10.42   23.94
  -1   9  -9   13.67   24.58
   1  -9   9    0.04    6.40
  -1   9   9   20.64    8.86
   1   9  -9   -4.70    6.33
  -1  -9   9    0.23    6.93
   1  -9  -9    6.36    7.50
  -1   9  -9   -5.76    5.98
   1  -9  10   10.76   25.30
   1   9 -10   37.42   23.18
  -1  -9  10  -23.75   25.45
  -1   9 -10   16.25   20.87
   1  -9  10   12.46    7.88
  -1   9  10   -9.51    8.98
   1   9 -10    3.60    7.16
  -1  -9  10    4.89    8.07
   1  -9 -10    5.23    9.01
  -1   9 -10   12.50    7.54
   1  -9  11    0.72    5.91
  -1   9  11    5.19    7.27
   1   9 -11    1.74    5.83
  -1  -9  11    6.51    6.59
   1  -9 -11   -7.69    7.27
  -1   9 -11    7.92    5.76
   1  10   0   -4.17   11.21
  -1 -10   0    4.36   10.45
   1 -10   0    0.08   10.19
  -1  10   0    9.77   11.32
   1 -10   1  105.25   24.96
  -1  10   1  108.17   25.98
   1  10  -1  153.17   34.88
  -1 -10  -1  127.41   29.66
   1  10   1  133.36   31.36
  -1 -10   1  104.99   25.11
   1 -10  -1  143.77   32.53
  -1  10  -1  143.43   32.76
   1 -10   2   57.19   15.79
  -1  10   2   22.19   10.83
   1  10  -2    4.70   10.38
  -1 -10  -2   42.57   13.79
   1  10   2   48.33   14.51
  -1 -10   2   22.42   10.83
   1 -10  -2   12.54   10.04
  -1  10  -2   57.38   16.36
   1 -10   3   37.34   12.01
  -1  10   3   11.21    9.13
  -1 -10  -3   21.97   10.87
   1  10   3   18.14   10.45
  -1 -10   3   32.61   11.32
   1 -10  -3   28.67   11.29
   1 -10   4    2.99    8.45
  -1  10   4    4.39    8.67
   1  10  -4   18.63   10.26
  -1 -10  -4   -3.14    8.94
   1  10   4    6.51    8.94
  -1 -10   4   -0.08    8.14
   1 -10  -4   -7.57    8.98
  -1  10  -4   14.81    9.73
   1 -10   5   23.82   10.15
  -1  10   5   34.05   11.82
   1  10  -5   28.71   10.98
  -1 -10  -5   15.64   10.34
  -1 -10   5   27.16   10.60
   1 -10  -5   24.20   10.91
  -1  10  -5   43.59   13.18
   1 -10   6   29.32   10.42
  -1  10   6   58.48   15.53
   1  10  -6   24.73   10.26
  -1 -10  -6   55.45   15.53
  -1 -10   6   43.94   12.88
   1 -10  -6   59.20   15.83
  -1  10  -6   56.85   15.19
   1  10  -7  -20.15   19.32
  -1 -10   7    9.96   21.85
   1 -10   7   -0.38    8.07
  -1  10   7    4.05    7.69
   1  10  -7   -3.83    7.95
  -1 -10  -7   -2.88    7.61
  -1 -10   7   -2.95    7.23
   1 -10  -7    5.87    7.73
  -1  10  -7   -7.08    7.57
   1 -10   8  120.48   33.41
   1  10  -8  179.30   42.57
  -1 -10   8  120.75   35.03
   1 -10   8  227.36   48.75
  -1  10   8  211.30   45.94
   1  10  -8  221.11   47.61
  -1 -10  -8  296.03   63.44
  -1 -10   8  236.79   50.83
   1 -10  -8  213.58   46.40
  -1  10  -8  306.07   65.22
   1 -10   9   11.21   24.20
   1  10  -9   -3.64   21.21
  -1 -10   9  -15.57   24.39
  -1  10  -9   73.21   26.82
   1 -10   9   12.42    7.73
  -1  10   9   27.19   10.64
   1  10  -9   13.79    8.22
  -1 -10  -9   22.69   10.07
  -1 -10   9   11.70    8.37
   1 -10  -9   22.95   10.23
  -1  10  -9   16.51    8.37
   1 -10  10   82.72   29.62
   1  10 -10    2.84   20.34
  -1 -10  10   16.78   23.07
  -1  10 -10   12.95   22.27
  -1  10  10  117.79   27.12
   1  10 -10   46.89   12.95
  -1 -10  10   61.05   15.49
   1 -10 -10   52.80   14.70
   1 -11   1   51.85   14.66
  -1  11   1    5.42    8.60
   1  11  -1   14.96   10.53
  -1 -11  -1   16.25    9.89
   1  11   1    2.58    8.94
  -1 -11   1   13.48    9.51
   1 -11  -1    3.83    9.20
  -1  11  -1   50.07   14.88
   1 -11   2   10.26    9.20
  -1  11   2   16.55    9.85
   1  11  -2    7.69    9.92
  -1 -11  -2    9.05    9.54
   1  11   2   29.35   11.44
  -1 -11   2   26.66   10.68
   1 -11  -2   20.23   10.26
  -1  11  -2    6.40    9.39
   1 -11   3   17.16    9.92
  -1  11   3   13.75    9.70
  -1 -11  -3   19.77   10.38
   1  11   3    4.70    9.36
  -1 -11   3   32.38   11.63
   1 -11  -3   13.07    9.85
   1 -11   4   31.85   11.51
  -1  11   4   12.35    9.66
   1  11  -4   13.79   10.11
  -1 -11  -4    3.45    9.62
   1  11   4   14.92   10.00
  -1 -11   4   12.42    9.28
   1 -11  -4   17.73   10.53
  -1  11  -4   21.74   10.68
   1 -11   5   34.28   11.67
  -1  11   5    9.85    9.01
   1  11  -5   41.70   12.99
  -1 -11  -5   -2.01    9.36
   1  11   5   20.45   10.19
  -1 -11   5   17.46    9.36
   1 -11  -5   27.35   11.21
  -1  11  -5   11.21    9.13
   1 -11   6    7.65    7.92
  -1  11   6    1.44    8.26
   1  11  -6   -3.90    8.64
  -1 -11  -6   -8.41    8.48
   1  11   6   -1.82    7.99
  -1 -11   6    6.59    8.75
   1 -11  -6    8.45    8.86
  -1  11  -6   10.72    8.48
  -1 -11   7    5.91   21.66
   1 -11   7   17.46    8.71
  -1  11   7    9.70    9.01
   1  11  -7   19.77    8.67
  -1 -11  -7   27.88   10.79
  -1 -11   7   48.78   13.48
   1 -11  -7   26.85   10.42
  -1  11  -7   26.13    9.43
   1  11  -8  -43.03   22.65
  -1 -11   8  -34.09   24.39
   1 -11   8   17.65    9.01
  -1  11   8    7.99    8.60
   1  11  -8   11.48    7.69
  -1 -11  -8    8.03    8.48
  -1 -11   8   -6.02    7.57
   1 -11  -8   -4.96    8.03
  -1  11  -8   -0.04    7.23
   1 -11   9   13.29   25.49
   1  11  -9   -2.23   22.35
  -1 -11   9   30.68   25.91
   1 -11   9   17.50    9.05
  -1  11   9   10.79   10.30
   1  11  -9    5.42    8.48
  -1 -11  -9   14.58   10.26
  -1 -11   9   10.26    8.79
   1 -11  -9    2.80    9.39
  -1  11  -9    9.51    8.71
   1 -11  10    8.94    6.74
  -1  11  10   22.27   10.15
   1  11 -10   14.51    7.84
  -1 -11 -10   -6.63    8.26
  -1 -11  10   16.63    8.22
   1 -11 -10   13.94    8.79
  -1  11 -10    2.84    6.70
   1  12   0   -3.33    9.13
  -1 -12   0    8.07    9.54
   1 -12   0   10.83    9.51
  -1  12   0   11.40    9.58
   1 -12   1    0.27    9.32
  -1  12   1   13.75    9.92
   1  12  -1    1.33   10.42
  -1 -12  -1   -2.65    9.28
   1  12   1    7.04    9.58
  -1 -12   1   15.68   10.00
   1 -12  -1   -0.49    9.24
  -1  12  -1   11.40   10.64
  -1  12   2  237.36   51.62
   1  12  -2  160.70   36.28
  -1 -12  -2  170.10   37.95
   1  12   2  140.18   32.12
  -1 -12   2  198.73   43.63
   1 -12  -2  235.62   51.28
   1 -12   3   41.62   13.33
  -1  12   3   51.28   15.11
  -1 -12  -3   48.10   14.81
   1  12   3   37.50   12.95
  -1 -12   3   37.69   12.88
   1 -12  -3   49.09   14.85
   1 -12   4  223.92   48.67
  -1  12   4  119.12   27.54
  -1 -12  -4  110.33   25.94
   1  12   4  134.49   30.75
  -1 -12   4  120.90   27.84
   1 -12  -4  152.07   34.16
  -1  12  -4  126.39   29.01
   1 -12   5   -1.44    8.75
  -1  12   5  -17.80    9.20
   1  12  -5    4.05    9.17
  -1 -12  -5   24.73   10.79
   1  12   5    2.76    9.09
  -1 -12   5   12.73    8.82
   1 -12  -5    1.74    9.05
  -1  12  -5   -7.57    9.05
   1 -12   6  238.50   51.43
  -1  12   6  207.67   45.37
   1  12  -6  239.71   51.62
  -1 -12  -6  247.85   53.78
   1  12   6  222.17   48.48
  -1 -12   6  245.32   52.87
   1 -12  -6  181.53   40.11
  -1  12  -6  179.83   39.28
   1 -12   7    0.98    8.18
  -1  12   7   -7.84    8.82
   1  12  -7    0.83    7.69
  -1 -12  -7    1.06    8.48
   1  12   7   18.37   10.00
  -1 -12   7   -1.36    8.26
   1 -12  -7   -2.16    8.11
  -1  12  -7   -6.51    7.50
   1  12  -8   72.76   24.43
  -1 -12   8   40.75   24.88
   1 -12   8   74.84   18.63
   1  12  -8   75.14   19.16
  -1 -12  -8  138.32   31.51
   1  12   8  118.25   28.07
   1 -12  -8   80.11   20.07
  -1  12  -8  113.85   26.17
   1  12  -9  -15.15   20.87
  -1 -12   9  -23.10   20.98
   1 -12   9   17.95    8.86
  -1  12   9    3.52    8.98
   1  12  -9    4.51    7.92
  -1 -12  -9    5.34    8.94
  -1 -12   9    3.22    8.07
   1 -12  -9    7.27    8.94
  -1  12  -9   -1.02    7.92
   1  13   0  -20.79   10.00
  -1 -13   0   -5.98    9.58
   1 -13   0   -9.39    9.32
  -1  13   0   -2.50    8.90
   1 -13   1  125.29   28.94
  -1  13   1  117.60   27.42
   1  13  -1  146.39   33.14
  -1 -13  -1   88.10   21.70
   1  13   1  108.21   25.72
  -1 -13   1  125.10   28.82
   1 -13  -1   95.67   23.03
  -1  13  -1  130.93   30.15
   1 -13   2    6.06    9.51
  -1  13   2   -0.11    9.05
   1  13  -2    0.27    9.17
  -1 -13  -2    8.14    9.43
   1  13   2   -1.33    9.47
  -1 -13   2    2.54    9.36
   1 -13  -2    1.29    9.13
  -1  13  -2  -11.02    9.20
   1 -13   4   23.37   10.07
  -1  13   4    7.04    8.82
   1  13  -4   -3.86    8.22
  -1 -13  -4   -0.76    8.94
   1  13   4   -5.53    8.90
  -1 -13   4    6.44    8.67
   1 -13  -4    8.52    9.09
  -1  13  -4    6.89    8.14
   1 -13   5  103.55   24.32
  -1  13   5  128.70   29.54
   1  13  -5  179.75   39.54
  -1 -13  -5  176.01   39.16
   1  13   5  185.32   41.02
  -1 -13   5  122.37   28.07
   1 -13  -5  119.31   27.84
  -1  13  -5  139.80   31.36
   1 -13   6   54.01   15.04
  -1  13   6   60.56   16.59
   1  13  -6   68.78   17.35
  -1 -13  -6   63.25   17.12
   1  13   6   98.36   23.79
  -1 -13   6   56.96   15.53
   1 -13  -6   49.58   14.96
  -1  13  -6   60.79   16.10
   1 -13   7    8.90    9.20
   1  13  -7   24.24   10.45
  -1 -13  -7   26.10   12.04
   1  13   7   21.13   11.10
   1 -13  -7   31.97   12.80
  -1  13  -7    9.01    8.71
   1 -13   8    8.33    9.24
  -1  13   8   -9.17   10.00
   1  13  -8   -6.63    9.24
  -1 -13  -8   10.26    9.96
   1  13   8   10.23   10.76
  -1 -13   8   -8.94    8.75
   1 -13  -8   24.01   11.29
  -1  13  -8   21.48    9.96
   1 -13   9   21.70    9.32
  -1  13   9   13.94    9.13
   1  13  -9   17.16    8.52
  -1 -13  -9   16.21    9.05
   1  13   9    3.11    8.11
  -1 -13   9    2.88    7.69
   1 -13  -9   35.15   11.78
  -1  13  -9    8.22    7.57
  -1 -14   0   19.96   10.30
   1 -14   0   -2.23    9.13
  -1  14   0   -7.27    9.01
   1 -14   1  -22.12   10.23
  -1  14   1    3.98    9.13
   1  14  -1    7.04    9.43
  -1 -14  -1   20.68   10.42
   1  14   1   13.67   10.07
  -1 -14   1    9.70    9.13
   1 -14  -1    0.61    9.17
  -1  14  -1  -27.84   10.57
   1 -14   2   22.61   10.57
  -1  14   2  -11.63    9.28
  -1 -14  -2    0.34    9.66
   1  14   2   19.69   10.76
  -1 -14   2   -7.01    8.79
   1 -14  -2   -7.39    8.86
  -1  14  -2    0.34    8.82
   1 -14   3   -1.17    9.32
  -1  14   3    9.05    9.28
  -1 -14  -3    0.91    9.51
   1  14   3    0.72    9.36
  -1 -14   3    1.97    8.90
   1 -14  -3   -1.33    9.13
  -1  14   4    3.45    9.62
   1  14  -4    4.20    8.45
  -1 -14  -4   51.32   15.34
   1  14   4   45.45   14.43
  -1 -14   4    9.13    9.20
   1 -14  -4   10.23    9.77
   1 -14   5    7.76    9.32
  -1  14   5   -4.89    9.43
   1  14  -5    7.57    9.13
  -1 -14  -5   -4.70    9.73
   1  14   5    0.42    9.85
  -1 -14   5    2.31    8.71
   1 -14  -5   13.07   10.19
  -1  14  -5    7.27    8.79
   1 -14   6  -14.85    9.43
  -1  14   6   -2.42    9.66
   1  14  -6    0.34    8.75
  -1 -14  -6   21.66   11.48
   1  14   6   -5.42    9.85
  -1 -14   6   29.81   11.59
   1 -14  -6    9.47   10.04
  -1  14  -6   22.88   10.49
   1 -14   7    0.83    9.73
  -1  14   7   26.82   12.42
   1  14  -7    7.16    9.39
  -1 -14  -7   -4.66   10.95
   1  14   7    3.11   10.72
  -1 -14   7    1.33    9.73
   1 -14  -7    1.17   10.91
  -1  14  -7    6.48    9.09
   1 -14   8   29.58   10.79
  -1  14   8    5.49    9.17
   1  14  -8   10.00    8.52
  -1 -14  -8   15.60    9.62
   1  14   8    6.55    9.32
  -1 -14   8    7.80    8.67
   1 -14  -8    3.83    8.52
  -1  14  -8   15.83    8.98
   1  15   0   14.20   10.49
  -1 -15   0    1.67    9.13
   1 -15   0    1.78    9.20
  -1  15   0    0.45    9.05
   1 -15   1    3.03    9.92
  -1  15   1    7.92    9.66
   1  15  -1    4.17    9.96
  -1 -15  -1   11.36    9.73
   1  15   1   12.80   10.04
  -1 -15   1    9.81   10.00
   1 -15  -1    6.21    9.70
  -1  15  -1   13.14   10.30
   1 -15   2  -19.43   10.53
  -1  15   2   -4.39    9.77
   1  15  -2   18.22   10.19
  -1 -15  -2    7.42    9.89
   1  15   2   -0.30    9.36
  -1 -15   2   -4.92    9.24
   1 -15  -2   10.83    9.81
  -1  15  -2    3.26    9.54
   1 -15   3   60.45   16.59
  -1  15   3   61.81   17.23
  -1 -15  -3   66.55   18.03
   1  15   3   66.24   17.99
  -1 -15   3   56.02   15.95
   1 -15  -3   52.61   15.76
  -1  15  -3   25.57   10.34
   1 -15   4    3.83    9.05
  -1  15   4    5.11    9.54
   1  15  -4   13.22    9.62
  -1 -15  -4   14.51   10.53
   1  15   4   -2.61    9.39
  -1 -15   4   15.38    9.81
   1 -15  -4   19.69   10.64
  -1  15  -4    3.07    8.60
   1 -15   5   22.88   11.48
  -1  15   5   40.94   14.05
   1  15  -5   60.75   16.66
  -1 -15  -5   47.27   15.42
   1  15   5   43.18   14.96
  -1 -15   5   13.82   10.53
   1 -15  -5   53.02   16.13
  -1  15  -5    7.95    9.92
  -1  15   6   -3.60   10.57
   1  15  -6   -0.61    9.81
  -1 -15  -6   -3.56   11.29
   1  15   6    0.61   10.91
  -1 -15   6   14.92   10.79
   1 -15  -6   17.04   11.78
  -1  15  -6   55.60   16.29
   1 -15   7   19.51    9.73
   1  15  -7    8.48    8.33
  -1 -15  -7    7.88   10.15
   1  15   7   11.48   10.23
  -1 -15   7   75.56   18.94
   1 -15  -7   17.04   10.76
  -1  15  -7    5.61    8.22
   1  16   0    7.54   10.04
  -1 -16   0   16.10   10.60
   1 -16   0    6.06    9.77
  -1  16   0   -3.94    9.54
   1 -16   1   26.06   11.85
  -1  16   1   37.72   13.22
  -1 -16  -1   30.98   12.42
   1  16   1   39.92   13.56
   1 -16  -1   31.66   12.35
  -1  16  -1   34.81   12.61
   1 -16   2  125.90   29.50
  -1  16   2  201.04   44.47
  -1 -16  -2  119.57   28.14
   1  16   2  140.14   32.31
  -1 -16   2  214.18   47.00
   1 -16  -2  203.69   45.00
  -1  16  -2  128.51   30.03
   1 -16   3   17.65   10.87
  -1  16   3    8.56   10.64
  -1 -16  -3   -6.48   10.23
   1  16   3    4.39   10.26
  -1 -16   3   10.98   10.30
   1 -16  -3   -0.49   10.07
  -1  16  -3   -1.02    8.79
   1 -16   4   33.67   13.37
  -1  16   4   27.65   12.50
   1  16  -4   33.78   13.14
  -1 -16  -4   32.04   13.60
   1  16   4   26.32   12.84
  -1 -16   4   24.73   11.85
   1 -16  -4    0.42   10.83
  -1  16  -4   29.24   12.20
   1 -16   5   -0.30   10.11
  -1  16   5   -3.52   10.68
   1  16  -5   16.97   10.72
  -1 -16  -5   -0.34   10.83
   1  16   5   11.17   11.14
  -1 -16   5  -12.99   10.38
   1 -16  -5    0.61   10.79
  -1  16  -5    8.86   10.00
   1 -16   6   -1.33    8.98
  -1  16   6    9.09    9.85
   1  16  -6   29.69   11.10
  -1 -16  -6   19.92   11.51
   1  16   6   45.03   14.81
  -1 -16   6   29.88   11.51
   1 -16  -6  -11.29    9.96
  -1  16  -6    0.57    8.67
  -1  16   7   -1.70    9.77
   1  16  -7   -0.15    7.69
  -1 -16  -7   -5.42    9.54
   1  16   7   -3.64   10.49
   1 -16  -7   19.66   11.06
  -1  16  -7    1.55    7.69
   1  17   0  -12.84   10.53
  -1 -17   0   18.14   11.29
   1 -17   0   14.51   11.06
  -1  17   0   15.34   11.44
   1 -17   1   29.73   13.26
  -1  17   1   43.40   15.04
   1  17  -1   48.97   16.02
  -1 -17  -1   16.02   11.51
   1  17   1   17.20   11.85
  -1 -17   1   77.72   20.45
   1 -17  -1   26.13   12.50
  -1  17  -1   50.79   16.74
   1 -17   2    5.72   11.36
  -1  17   2  -10.23   11.10
   1  17  -2    8.56   11.21
  -1 -17  -2    5.04   11.06
   1  17   2   -2.05   11.40
  -1 -17   2   -8.64   11.17
   1 -17  -2    7.99   11.44
  -1  17  -2   11.78   11.44
   1 -17   3   11.63   11.89
  -1  17   3   31.10   13.63
  -1 -17  -3   55.87   17.61
   1  17   3   74.73   20.64
  -1 -17   3   27.57   13.29
   1 -17  -3   38.67   14.58
  -1  17  -3    6.40   10.68
   1 -17   4    2.61    9.81
  -1  17   4    9.24   10.68
   1  17  -4  -18.29   10.15
  -1 -17  -4   18.03   11.44
   1  17   4   13.14   10.98
  -1 -17   4   -2.05    9.73
   1 -17  -4    7.57   10.98
  -1  17  -4  -12.39    9.66
   1 -17   5    1.82    8.79
  -1  17   5   -4.73    9.62
   1  17  -5  -10.07    8.94
  -1 -17  -5   21.32   11.32
   1  17   5   32.84   12.42
  -1 -17   5    4.05    9.13
   1 -17  -5   -8.33    9.54
  -1  17  -5   18.03    9.70
  -1 -18   0  106.13   25.94
   1 -18   0   92.26   23.22
  -1  18   0   73.40   19.81
   1 -18   1    9.36   10.49
  -1  18   1   15.11   11.21
   1  18  -1    3.79   10.76
  -1 -18  -1    0.04   10.42
   1  18   1    7.27   11.21
  -1 -18   1   13.52   10.68
   1 -18  -1   14.66   10.87
  -1  18  -1    2.50   10.26
   1 -18   2   26.47   11.97
  -1  18   2   42.38   14.51
   1  18  -2   17.23   11.10
  -1 -18  -2   24.05   11.74
   1  18   2   19.43   11.55
  -1 -18   2   41.55   13.98
   1 -18  -2   25.72   12.31
  -1  18  -2   48.44   15.34
   1 -18   3   -4.62    9.62
  -1  18   3  -15.49    9.92
  -1 -18  -3   -6.74    9.66
   1  18   3   -2.99    9.73
  -1 -18   3    4.24    9.77
   1 -18  -3   10.00    9.92
  -1  18  -3    2.20    9.09
   1 -18   4   32.23   12.54
  -1  18   4   24.13   11.51
   1  18  -4   28.52   11.48
  -1 -18  -4  -12.73    9.58
   1  18   4   16.82   10.72
  -1 -18   4   23.86   11.48
   1 -18  -4   19.66   11.29
  -1  18  -4   45.30   13.86
   1  19   0    3.48    9.70
  -1 -19   0    4.89   10.23
   1 -19   0   -1.55    9.54
  -1  19   0  -13.90   10.04
   2   0   2  359.93   73.48
  -2   0  -2  378.64   77.34
   2   0   3  406.78   82.98
  -2   0   3  440.49   90.60
   2   0  -3  480.26   98.47
   2   0   4  177.22   40.19
  -2   0   4  322.96   68.40
  -2   0  -4  204.30   48.44
  -2   0   5  240.35   53.10
   2   0  -5  251.22   56.02
  -2   0  -5  162.37   40.26
   2   0   6    6.36   22.54
  -2   0   6   33.03   26.89
   2   0  -6   14.28   23.71
  -2   0  -6   35.22   22.50
   2   0   7   75.11   27.61
  -2   0   7   51.74   25.38
   2   0  -7   58.97   23.07
  -2   0  -7   50.41   24.39
   2   0   8   66.77   25.38
  -2   0   8   57.95   25.38
   2   0  -8    7.50   20.00
  -2   0  -8   38.78   20.60
  -2   0   8   74.08   16.32
   2   0  -8   66.13   14.92
   2   0   9  102.22   29.81
   2   0  -9   68.02   24.66
  -2   0  -9  106.92   30.41
  -2   0   9   84.88   18.52
   2   0  -9  107.34   22.99
   2   0  10   61.05   26.29
  -2   0  10  -16.93   24.66
   2   0 -10    4.05   23.56
  -2   0 -10   40.49   23.75
  -2   0  10   24.16    6.82
   2   0 -10   32.72    7.99
   2   0  11  -19.24   25.19
  -2   0  11   32.65   25.53
   2   0 -11   29.66   24.28
  -2   0 -11   10.60   22.72
  -2   0  11   -1.21    3.37
   2   0 -11   -1.36    3.90
   2   0  12   -6.51   22.57
  -2   0  12   11.63   23.79
   2   0 -12   21.74   20.94
  -2   0 -12  -25.83   23.33
  -2   0  12   -1.06    3.48
   2   0 -12    4.20    4.28
   2   1  -1    3.45   18.14
  -2  -1   1  -38.44   21.63
  -2  -1  -2   18.56   18.41
   2   1   2   22.12   18.63
  -2  -1   2   67.38   25.15
   2   1  -3   16.25   28.78
  -2  -1  -3   20.79   26.93
   2   1   3  -19.85   19.92
  -2  -1   3   30.75   25.83
  -2   1  -3   48.40   27.00
  -2   1   3    8.37   10.45
   2  -1   4   12.35   24.01
  -2   1   4   21.10   23.56
   2   1  -4    8.75   25.04
  -2  -1  -4  -23.26   22.08
  -2  -1   4   -8.29   24.96
   2  -1  -4    3.18   23.07
  -2   1  -4  -36.13   24.96
  -2   1   4    2.58    7.04
   2  -1  -4   13.71    8.75
  -2   1   5  -31.66   21.70
   2   1  -5    2.01   23.86
  -2  -1  -5  -40.72   21.59
   2   1   5  -35.68   21.44
  -2  -1   5   41.21   24.58
   2  -1  -5  -47.50   26.21
  -2   1  -5  -10.76   27.31
  -2   1   5   13.60    6.89
   2  -1  -5    8.45    7.65
  -2   1   6   -5.38   21.63
   2   1  -6   16.32   22.84
  -2  -1  -6   21.89   24.81
   2   1   6   -1.93   21.32
  -2  -1   6   19.20   24.39
   2  -1  -6  -24.39   23.44
  -2   1  -6   40.37   24.73
  -2   1   6   14.62    6.93
   2  -1  -6   13.94    7.84
   2  -1   7    5.49   23.10
  -2   1   7    4.77   28.78
   2   1  -7    6.59   20.91
  -2  -1  -7   19.35   21.55
   2   1   7   26.36   24.32
  -2  -1   7   14.96   24.13
   2  -1  -7   10.64   20.41
  -2   1  -7   50.87   23.48
   2  -1   8   10.42   20.34
   2   1  -8   34.43   20.57
  -2  -1  -8   -1.14   19.88
   2   1   8   25.83   21.74
  -2  -1   8   28.86   24.20
   2  -1  -8    4.28   19.81
  -2   1  -8  -15.83   17.76
  -2   1   8   11.93    4.89
   2  -1  -8    3.07    6.40
   2  -1   9    4.89   19.54
  -2   1   9   14.39   20.79
   2   1  -9   -9.47   19.13
  -2  -1  -9   20.79   18.79
   2   1   9   23.82   21.06
  -2  -1   9   42.95   23.10
   2  -1  -9   52.84   23.44
  -2   1  -9   22.99   20.30
  -2   1   9    1.48    4.28
   2  -1  -9    7.76    4.47
   2  -1  10   -3.22   22.72
  -2   1  10  -64.01   27.04
   2   1 -10   32.00   22.38
  -2  -1 -10    8.48   20.15
   2   1  10  -12.35   22.01
   2  -1 -10   18.71   22.91
  -2   1 -10  -26.02   19.96
  -2   1  10    4.55    4.09
   2  -1 -10    0.80    3.67
   2  -1  11    4.13   26.59
  -2   1  11    9.73   23.82
   2   1 -11   34.35   25.57
  -2  -1 -11   12.69   23.10
   2   1  11   12.08   26.36
  -2  -1  11   27.38   26.82
   2  -1 -11  -33.71   23.33
  -2   1 -11    6.51   23.03
  -2   1  11    9.20    4.51
  -2  -1  11    3.33    4.01
   2  -1 -11    5.26    3.94
   2  -1  12   20.83   25.45
  -2   1  12   -7.39   23.52
   2   1 -12   -3.52   25.72
  -2  -1 -12   -9.20   18.22
   2   1  12   -6.40   24.43
  -2  -1  12    0.68   23.75
   2  -1 -12   -9.51   21.59
  -2   1 -12   -8.82   23.18
  -2   1  12    2.84    4.20
  -2  -1  12    3.67    3.71
   2  -1 -12    8.22    4.51
   2   2   0   30.19   14.51
  -2  -2   0   42.91   17.08
   2  -2   0  116.92   27.84
  -2   2   0  127.18   29.77
   2   2  -1  -22.72   17.80
  -2  -2  -1    5.83   10.42
   2   2   1  -24.92   10.60
  -2  -2   1   14.73   21.85
   2  -2   1   16.63   11.63
  -2   2   1    2.92   11.55
   2  -2  -1  -17.46   12.01
  -2   2  -1   -7.73   11.85
  -2  -2  -2    6.29   17.95
   2   2   2   19.96   17.69
  -2  -2   2  -24.88   23.10
  -2   2   2  -23.14   12.08
   2  -2  -2  -28.44   12.76
   2   2  -3   23.48   22.54
  -2  -2  -3   94.57   27.38
  -2  -2   3   45.07   22.88
  -2   2   3    4.28   10.87
   2  -2  -3    1.29   10.79
   2  -2   4  -17.27   21.02
   2   2  -4  -17.57   22.99
  -2  -2  -4   -5.26   21.36
   2   2   4   23.52   22.76
  -2  -2   4   -7.99   24.88
  -2   2  -4  -13.79   22.88
  -2   2   4    7.99    7.80
   2  -2  -4   18.79    9.54
   2  -2   5   13.26   22.23
  -2   2   5   15.23   20.07
   2   2  -5    5.19   24.35
  -2  -2  -5   -9.66   20.79
   2   2   5  -14.96   21.40
  -2  -2   5  -22.80   22.23
   2  -2  -5  -31.36   22.91
  -2   2  -5  -23.37   22.99
  -2   2   5   25.64    7.76
   2  -2  -5   14.58    8.90
  -2   2   6    1.14   24.05
   2   2  -6  -14.96   28.56
  -2  -2  -6   13.18   22.38
   2   2   6   11.59   22.12
  -2  -2   6  -11.78   24.47
   2  -2  -6   26.63   21.63
  -2   2  -6   26.10   20.68
  -2   2   6    4.66    5.53
   2  -2  -6    1.33    6.17
   2  -2   7   21.93   22.61
   2   2  -7   32.76   23.03
  -2  -2  -7  -14.24   20.79
   2   2   7   -1.36   22.16
  -2  -2   7   68.82   29.01
   2  -2  -7   -9.43   20.60
  -2   2  -7   30.07   23.52
   2  -2   8  -27.27   21.85
  -2   2   8   -5.30   20.60
   2   2  -8   19.35   21.55
  -2  -2  -8   17.20   19.54
   2   2   8  -22.12   21.29
  -2  -2   8   11.36   24.85
   2  -2  -8   15.64   19.51
  -2   2  -8  -25.53   20.04
  -2   2   8   20.00    6.59
   2  -2  -8    4.13    4.81
   2  -2   9   46.17   24.32
  -2   2   9   36.40   23.18
   2   2  -9    6.02   17.20
  -2  -2  -9  -14.77   19.20
   2   2   9    2.99   21.82
  -2  -2   9   20.53   22.08
   2  -2  -9   10.91   19.58
  -2   2  -9   35.91   21.44
  -2   2   9    7.35    4.92
   2  -2  -9    7.95    4.73
   2  -2  10   -1.89   24.77
  -2   2  10   37.42   25.38
   2   2 -10   11.82   24.62
  -2  -2 -10   31.70   21.29
   2   2  10  -45.00   24.05
  -2  -2  10   30.26   27.35
   2  -2 -10   61.77   25.87
  -2   2 -10  -12.35   21.25
  -2   2  10   -1.89    4.58
   2  -2 -10    7.80    4.62
   2  -2  11   20.45   26.44
  -2   2  11   15.07   24.88
   2   2 -11    8.03   23.41
  -2  -2 -11    5.79   21.89
   2   2  11   -8.75   24.32
   2  -2 -11    9.96   21.13
  -2   2 -11  -11.89   21.51
  -2   2  11    4.24    4.81
   2  -2 -11    4.85    4.58
   2  -2  12   -3.45   25.45
  -2   2  12    5.08   24.51
   2   2 -12   13.52   21.89
  -2  -2 -12   38.94   23.56
   2   2  12   28.25   23.52
  -2  -2  12    2.88   25.04
   2  -2 -12  -19.81   23.75
  -2   2 -12  -20.94   23.37
  -2   2  12    2.69    5.26
   2  -2 -12    2.42    4.55
   2  -3   0  184.56   40.94
   2   3  -1    5.38   17.76
  -2  -3   1  -17.42   22.27
   2  -3   1   -6.29   12.20
   2  -3  -1    3.67   12.35
   2   3  -2  215.93   48.37
  -2  -3   2  191.42   43.48
   2  -3   2  185.97   40.79
   2  -3  -2  214.94   46.36
   2   3  -3  169.30   40.68
  -2  -3  -3  162.03   36.13
   2   3   3  128.13   31.25
  -2  -3   3  185.93   44.50
   2  -3   3  117.34   26.82
   2  -3  -3  102.87   23.60
   2  -3   4   61.62   24.69
   2   3  -4   50.07   25.75
  -2  -3  -4   48.37   19.01
   2   3   4   59.16   23.18
  -2  -3   4   55.79   24.92
   2  -3   4   55.75   14.35
  -2   3   4   34.88    9.20
   2  -3  -4   69.27   16.36
  -2   3  -4   47.15   13.56
   2  -3   5   65.71   25.26
   2   3  -5  101.96   32.69
  -2  -3  -5   74.16   25.57
   2   3   5   48.93   22.04
  -2  -3   5   58.63   25.72
  -2   3  -5   46.28   25.87
   2  -3   5   56.28   14.09
  -2   3   5   42.50   11.06
   2  -3  -5   56.74   14.09
  -2   3  -5   48.33   13.37
   2  -3   6   39.88   24.62
   2   3  -6    5.42   27.61
  -2  -3  -6  -47.27   22.16
   2   3   6    1.82   20.34
  -2  -3   6    2.80   23.67
  -2   3  -6   22.69   20.94
  -2   3   6  -12.65    6.93
   2  -3  -6  -11.82    7.42
  -2   3   7   99.08   30.26
   2   3  -7   67.19   30.38
  -2  -3  -7   57.53   26.97
   2   3   7   40.83   24.28
  -2  -3   7   37.04   26.02
   2  -3  -7   68.89   24.96
  -2   3  -7   67.83   25.11
  -2   3   7   55.64   13.22
   2  -3  -7   55.98   13.45
   2  -3   8   64.12   23.63
  -2   3   8   14.54   18.75
   2   3  -8   23.90   19.58
  -2  -3  -8    9.17   18.82
   2   3   8   -3.94   18.86
  -2  -3   8   -1.29   23.26
   2  -3  -8   -2.31   16.21
  -2   3  -8   55.15   20.79
  -2   3   8   11.89    6.17
   2  -3  -8   -1.55    5.30
   2  -3   9  -13.63   22.23
  -2   3   9  -17.50   19.58
   2   3  -9   52.49   22.50
  -2  -3  -9   19.20   20.49
   2   3   9  -36.13   23.48
  -2  -3   9  -16.44   22.69
   2  -3  -9   -8.71   16.85
  -2   3  -9    8.22   19.58
  -2   3   9    0.08    5.00
   2  -3  -9    8.64    5.19
   2  -3  10   22.27   24.09
  -2   3  10  -14.58   25.26
   2   3 -10   45.79   25.79
  -2  -3 -10   21.74   21.74
   2   3  10  -42.91   23.52
  -2  -3  10   35.60   25.49
   2  -3 -10   -7.65   19.01
  -2   3 -10  -44.84   23.56
  -2   3  10   -0.42    5.11
   2  -3 -10    5.04    4.92
   2  -3  11  -12.39   22.99
  -2   3  11    1.67   24.35
   2   3 -11    1.48   22.99
  -2  -3 -11  -12.57   22.38
   2   3  11   13.07   22.76
  -2  -3  11   40.19   28.63
   2  -3 -11  -10.53   21.13
  -2   3 -11   12.88   22.61
  -2   3  12    4.36    5.49
   2  -3 -12    3.86    5.00
   2  -4   0   71.17   18.29
  -2   4   0   79.76   20.11
   2  -4   1    0.91    9.09
  -2   4   1   38.06   13.22
   2  -4  -1   20.83   11.17
  -2   4  -1   26.51   11.74
   2   4  -2   42.99   22.61
  -2  -4   2   21.25   25.60
   2  -4   2   91.70   22.65
  -2   4   2   42.84   13.60
   2  -4  -2   39.39   13.14
  -2   4  -2   62.57   19.01
   2   4  -3   -8.29   20.26
  -2  -4   3  -14.88   22.72
   2  -4   3   -2.05    9.54
  -2   4   3    6.55    8.26
   2  -4  -3    1.55    8.33
   2   4  -4   18.52   22.61
  -2  -4  -4   22.16   18.10
   2   4   4   17.61   19.54
  -2  -4   4   -8.75   25.19
   2  -4   4  -21.13    9.51
  -2   4   4   10.79    7.27
   2  -4  -4   15.79    8.37
  -2   4  -4   -4.20    9.70
   2  -4   5   23.60   23.33
   2   4  -5  -11.48   24.88
  -2  -4  -5   11.67   19.96
   2   4   5   -0.34   19.09
  -2  -4   5   35.34   26.13
  -2   4  -5    7.08   23.71
   2  -4   5   16.51    8.90
  -2   4   5   -8.26    7.08
   2  -4  -5    2.92    7.69
  -2   4  -5   -2.92    9.20
   2  -4   6   21.06   24.01
   2   4  -6   38.94   27.38
  -2  -4  -6  -17.27   20.53
   2   4   6   -5.72   21.59
  -2  -4   6   11.48   24.32
  -2   4  -6   34.81   22.61
   2  -4   6    0.49    7.76
  -2   4   6   14.66    7.27
   2  -4  -6   17.73    8.52
  -2   4  -6   19.54    9.85
   2  -4   7   10.30   21.63
   2   4  -7   29.01   24.24
  -2  -4  -7   24.69   19.69
   2   4   7   14.73   20.19
  -2  -4   7  -31.32   24.96
  -2   4  -7    4.28   19.39
   2  -4   7   40.30   10.98
  -2   4   7   10.87    5.53
   2  -4  -7    7.84    6.17
  -2   4  -7   32.95   10.45
  -2   4   8  -36.89   17.80
   2   4  -8   30.34   22.31
  -2  -4  -8    2.23   16.25
   2   4   8   18.18   17.04
  -2  -4   8   21.89   20.64
   2  -4  -8   20.60   18.10
  -2   4  -8   -5.76   17.50
   2  -4   8   11.44    7.12
   2  -4  -8    2.99    5.76
  -2   4  -8   28.07    9.62
   2  -4   9  -23.75   22.42
  -2   4   9   -3.07   19.58
   2   4  -9   16.21   20.38
  -2  -4  -9   10.34   17.69
   2   4   9   -1.67   19.43
  -2  -4   9   13.98   22.35
   2  -4  -9    4.24   18.07
  -2   4  -9   53.44   23.75
   2  -4  -9    6.51    5.45
  -2   4  -9    1.40    6.70
   2  -4  10    4.58   24.35
  -2   4  10   10.07   22.08
   2   4 -10    1.29   22.80
  -2  -4 -10    0.30   20.38
   2   4  10    0.23   20.00
  -2  -4  10  -13.94   22.42
   2  -4 -10   41.97   22.16
  -2   4 -10  -14.05   23.18
   2  -4 -10    0.00    5.34
  -2   4 -10    5.34    5.87
   2  -4  11    2.76   24.69
  -2   4  11   -7.27   25.00
   2   4 -11   29.35   23.44
  -2  -4 -11  -22.31   21.36
   2   4  11  -39.09   24.66
  -2  -4  11   14.77   26.32
   2  -4 -11  -10.26   21.74
  -2   4 -11   23.97   23.52
   2  -4 -11    0.19    5.76
   2  -4 -12   -5.15    5.72
   2  -5   0  549.19  115.86
  -2   5   0  493.51  104.27
   2  -5   1   13.79   10.04
  -2   5   1   -2.35   10.38
   2  -5  -1   -3.03   10.26
  -2   5  -1   -4.17   10.19
   2   5  -2  119.95   31.51
  -2  -5   2  105.90   29.13
   2  -5   2  184.60   40.00
  -2   5   2  260.16   55.79
   2  -5  -2  214.07   46.25
  -2   5  -2  229.22   49.31
   2   5  -3   99.76   30.57
  -2  -5   3  123.32   32.80
   2  -5   3   30.22    9.96
  -2   5   3   64.01   16.17
   2  -5  -3   81.73   19.66
   2   5  -4  153.92   37.38
  -2  -5   4  159.76   39.16
   2  -5   4   94.04   21.32
  -2   5   4  145.40   31.81
   2  -5  -4  117.22   26.32
  -2   5  -4   95.37   21.74
   2   5  -5    5.08   23.90
  -2  -5   5   52.15   22.46
   2  -5   5   30.07   11.29
  -2   5   5   -2.16    7.95
  -2   5  -5   -2.95    8.37
   2   5  -6  -11.51   23.29
  -2  -5  -6  -12.76   20.87
   2   5   6   59.05   22.69
  -2  -5   6  -16.48   25.57
   2  -5   6   27.08    9.96
  -2   5   6   38.03   10.91
   2  -5  -6   16.78    7.95
  -2   5  -6   27.35   10.72
   2  -5   7  186.88   44.43
   2   5  -7  159.79   40.30
  -2  -5  -7  216.53   47.53
   2   5   7  141.88   34.69
  -2  -5   7  276.71   60.52
  -2   5  -7  142.71   35.79
   2  -5   7  232.97   49.73
  -2   5   7  211.87   45.34
   2  -5  -7  322.16   68.21
  -2   5  -7  277.78   59.12
   2  -5   8   10.30   20.91
   2   5  -8    1.93   18.14
  -2  -5  -8   -5.04   17.80
   2   5   8  -12.27   17.31
  -2  -5   8   -2.20   21.78
  -2   5  -8   -2.20   17.12
   2  -5   8    7.42    7.20
  -2   5   8   17.61    7.73
   2  -5  -8   13.07    6.93
  -2   5  -8    2.92    7.88
   2   5  -9   79.69   26.51
  -2  -5  -9   37.19   21.21
   2   5   9    8.11   20.98
  -2  -5   9   45.60   25.49
   2  -5  -9   14.20   17.54
  -2   5  -9   39.84   22.72
   2  -5   9   32.00    9.54
  -2   5   9   40.37   10.76
   2  -5  -9   19.66    7.27
  -2   5  -9   27.84    9.47
   2  -5  10   36.06   26.93
  -2   5  10   47.65   23.79
   2   5 -10   44.05   27.57
  -2  -5 -10   33.25   21.10
   2   5  10   38.14   25.04
  -2  -5  10    6.06   27.23
   2  -5 -10   17.12   21.21
  -2   5 -10   40.37   24.32
  -2   5  10   27.50    8.82
   2  -5 -10   34.96   10.19
  -2   5 -10   25.91    8.56
   2  -5  11   72.30   30.75
  -2   5  11   60.11   25.94
   2   5 -11   66.09   27.00
  -2  -5 -11  102.00   30.60
   2   5  11   63.74   27.99
  -2  -5  11  123.06   36.93
   2  -5 -11  107.22   30.11
  -2   5 -11   87.15   28.94
   2  -5  11   93.48   21.40
  -2   5  11   48.48   13.10
  -2   5 -11   66.28   16.06
   2  -5  12   13.45    6.74
  -2   5  12    3.83    5.87
   2  -5 -12   -1.59    5.79
  -2   5 -12   16.70    6.89
   2  -6   0   15.91    9.39
  -2   6   0   10.60    9.89
   2  -6   1  -11.14    8.52
  -2   6   1    4.73    9.54
   2  -6  -1    2.05    8.56
  -2   6  -1   -1.10    9.09
   2  -6   2   22.50    9.47
  -2   6   2   16.29    9.62
   2  -6  -2   11.10    8.64
  -2   6  -2    7.08    8.86
   2   6  -3   50.83   22.76
  -2  -6   3  108.81   33.10
   2  -6   3   12.31    8.11
  -2   6   3    2.95    8.64
   2  -6  -3  -13.03    8.37
   2   6  -4   -5.98   22.61
  -2  -6   4   13.71   22.61
   2  -6   4    3.37    7.61
  -2   6   4   22.99    9.81
   2  -6  -4    6.78    8.37
  -2   6  -4    2.69    8.26
   2   6  -5   18.41   27.69
  -2  -6   5   38.56   23.86
   2  -6   5    4.01    7.27
  -2   6   5    5.57    8.22
   2  -6  -5   -7.20    8.14
  -2   6  -5   -9.81    8.07
   2   6  -6  107.60   30.83
  -2  -6   6   85.52   29.20
   2  -6   6  113.13   24.96
  -2   6   6  129.65   28.63
   2  -6  -6   67.11   16.21
  -2   6  -6   92.53   20.98
   2  -6   7  -45.75   22.61
  -2  -6  -7   11.70   18.52
   2   6   7  -16.21   14.85
  -2  -6   7   57.91   25.38
  -2   6  -7   -3.56   20.53
   2  -6   7    4.32    6.21
  -2   6   7   -0.08    7.20
   2  -6  -7    2.69    6.82
  -2   6  -7    7.50    6.59
   2  -6   8  -19.20   19.16
   2   6  -8   12.31   17.50
  -2  -6  -8   -9.09   19.35
   2   6   8   43.59   20.41
  -2  -6   8   -3.60   21.25
  -2   6  -8   15.79   16.21
   2  -6   8   42.08   11.89
  -2   6  -8   38.56   10.57
   2  -6   9   20.34   24.58
   2   6  -9   -7.61   21.55
  -2  -6  -9  -26.59   19.20
   2   6   9  -50.15   21.89
  -2  -6   9  -38.48   26.89
  -2   6  -9  -19.39   22.42
   2  -6   9  -11.93    7.35
  -2   6   9   -4.09    6.44
   2  -6  -9    1.51    6.59
  -2   6  -9    0.68    6.97
   2   6 -10   19.35   25.11
  -2  -6 -10   -8.52   20.60
   2   6  10   14.70   25.57
  -2  -6  10  -39.77   27.84
  -2   6 -10   -5.23   22.38
   2  -6  10    9.70    7.27
  -2   6  10    5.00    6.59
   2  -6 -10    2.99    6.40
  -2   6 -10   -5.83    6.63
   2  -6  11   34.77   27.54
   2   6 -11   46.28   24.77
  -2  -6 -11  -35.53   23.37
   2   6  11   18.63   22.76
  -2  -6  11    2.42   25.79
   2  -6 -11   19.13   20.26
   2  -6  11   -2.35    7.84
  -2   6  11    8.26    7.73
   2  -6 -11   12.73    7.95
  -2   6 -11   17.95    8.45
   2  -6  12    5.15    6.59
  -2   6  12    6.93    6.36
   2  -6 -12   -4.85    6.10
  -2   6 -12    2.23    5.95
   2  -7   0   24.96   10.19
  -2   7   0   36.47   12.31
   2  -7   1    4.85    8.22
  -2   7   1   -9.58    9.58
   2  -7  -1    1.63    8.56
  -2   7  -1   22.91   10.45
   2  -7   2   18.37    9.17
  -2   7   2   49.35   14.39
   2  -7  -2   21.40    9.92
  -2   7  -2   22.08   10.42
   2  -7   3    1.21    8.14
  -2   7   3   -0.23    9.24
   2  -7  -3    3.52    8.56
   2   7  -4   -4.92   21.21
  -2  -7   4   -0.34   21.66
   2  -7   4    7.35    8.37
  -2   7   4   21.29    9.96
   2  -7  -4   20.23    9.85
  -2   7  -4   20.98    9.81
   2   7  -5   15.91   22.50
  -2  -7   5    2.95   23.56
   2  -7   5    2.58    7.16
  -2   7   5   15.30    9.36
   2  -7  -5   17.73    8.82
  -2   7  -5   26.47    9.96
   2   7  -6    2.23   21.13
  -2  -7   6  -21.40   22.01
   2  -7   6   -4.81    6.55
  -2   7   6   11.36    7.99
   2  -7  -6   -3.37    7.69
  -2   7  -6    5.23    7.23
   2  -7   7   -2.99   20.45
   2   7  -7  -12.80   15.87
  -2  -7   7   10.72   19.73
   2  -7   7    7.95    6.67
  -2   7   7    5.00    7.54
   2  -7  -7   24.01    9.54
  -2   7  -7    2.12    7.01
   2  -7   8   14.01   22.46
   2   7  -8  -20.26   18.67
  -2  -7  -8   -1.70   16.93
  -2  -7   8  -24.73   20.91
  -2   7  -8   19.66   19.20
   2  -7   8    4.09    5.91
  -2   7   8   10.79    7.54
   2  -7  -8   11.78    7.46
  -2   7  -8    9.51    7.01
   2  -7   9   20.34   23.67
   2   7  -9   -7.16   22.50
  -2  -7  -9   18.60   18.45
   2   7   9   -2.54   20.26
  -2  -7   9    7.76   24.35
  -2   7  -9    9.20   22.08
   2  -7   9   11.29    6.40
  -2   7   9   11.02    7.39
   2  -7  -9   10.04    7.31
  -2   7  -9   15.95    6.59
   2  -7  10   34.31   25.41
   2   7 -10   11.06   23.56
  -2  -7 -10   -4.55   21.85
   2   7  10   23.26   22.46
  -2  -7  10   16.93   26.25
  -2   7 -10   -1.02   21.97
   2  -7  10    0.64    7.27
  -2   7  10   15.57    8.14
   2  -7 -10   -1.86    7.23
  -2   7 -10   -0.04    5.53
   2   7 -11  -30.87   21.66
  -2  -7 -11    8.45   19.20
   2   7  11   17.08   20.49
  -2  -7  11   27.04   27.19
  -2   7 -11  -22.38   21.74
   2  -7  11   12.39    8.14
  -2   7  11   -3.30    7.04
   2  -7 -11    3.56    7.46
  -2   7 -11   -8.14    6.17
   2  -8   0  188.13   40.98
  -2   8   0  229.41   49.62
   2  -8   1    7.04    8.67
  -2   8   1   -5.83    9.73
   2  -8  -1    2.88    8.60
  -2   8  -1   14.47   10.11
   2  -8   2   92.07   21.82
  -2   8  -2  122.15   28.03
   2  -8   3    5.38    8.64
  -2   8   3    2.99    9.24
   2  -8  -3    6.10    9.17
   2  -8   4  164.72   36.28
  -2   8   4  172.52   38.03
   2  -8  -4  188.88   41.32
  -2   8  -4  221.11   47.95
   2   8  -5   -6.97   20.23
  -2  -8   5  -28.82   22.01
   2  -8   5   -3.26    6.97
  -2   8   5    3.98    7.95
   2  -8  -5    3.22    8.56
  -2   8  -5    3.18    7.46
   2   8  -6  -55.45   22.35
  -2  -8   6  -17.69   19.69
   2  -8   6   27.19    9.39
  -2   8   6   11.02    8.79
   2  -8  -6   34.09   11.29
  -2   8  -6   41.51   12.16
   2   8  -7   69.35   22.12
  -2  -8   7   73.97   24.47
   2  -8   7   40.03   11.10
  -2   8   7   33.29   11.32
   2  -8  -7   15.07    9.09
  -2   8  -7   44.62   12.16
   2  -8   8  -33.78   22.42
   2   8  -8   -0.04   18.67
  -2  -8   8   -2.84   20.68
  -2   8  -8   13.67   20.04
   2  -8   8   -7.50    6.02
  -2   8  -8   -0.15    6.55
   2  -8   9   23.71   24.73
   2   8  -9   87.11   28.71
  -2  -8   9   96.96   32.72
  -2   8  -9   37.04   23.33
   2  -8   9   64.20   15.42
  -2   8   9   57.27   14.88
   2  -8  -9   59.05   15.19
  -2   8  -9   45.60   11.82
   2  -8  10   -3.45   25.19
   2   8 -10   39.81   23.44
  -2  -8 -10  -13.33   20.76
   2   8  10   27.54   19.51
  -2  -8  10   44.01   27.19
  -2   8 -10   24.81   23.18
   2  -8  10    7.31    7.23
  -2   8  10    5.42    8.11
   2  -8 -10   -3.07    8.11
  -2   8 -10    0.76    6.06
   2  -8  11   16.78    7.01
  -2   8  11    3.18    7.04
  -2  -8  11   32.69    9.51
   2  -8 -11   11.06    8.07
  -2   8 -11    1.93    5.61
   2  -9   0   18.07   10.00
  -2   9   0   20.41   11.48
   2  -9   1    2.88    9.05
  -2   9   1    4.73   10.30
   2  -9  -1   -8.48    9.28
  -2   9  -1    9.28   10.30
   2  -9   2    9.36    8.86
  -2   9   2    8.03    9.85
   2  -9  -2    4.96    9.13
  -2   9  -2   14.35   10.53
   2  -9   3    8.98    8.75
  -2   9   3  -29.58   11.29
   2  -9  -3    0.76    9.92
   2  -9   4   -4.28    7.50
  -2   9  -4   -3.37    8.07
   2   9  -5  -18.56   21.21
  -2  -9   5   23.48   20.83
   2  -9   5   -7.31    7.35
  -2   9   5   -7.27    8.18
   2  -9  -5   -1.63    8.64
  -2   9  -5   -3.30    7.92
   2   9  -6    3.45   20.19
  -2  -9   6  -12.35   19.05
   2  -9   6    7.20    7.16
  -2   9   6    4.92    8.29
   2  -9  -6   -8.82    9.01
  -2   9  -6    6.17    7.92
   2   9  -7  -25.49   18.75
  -2  -9   7   15.76   21.40
   2  -9   7    3.79    6.63
  -2   9   7   10.60    8.48
   2  -9  -7   29.05   10.49
  -2   9  -7   11.59    7.76
   2   9  -8  -19.16   19.20
  -2  -9   8   21.40   22.76
   2  -9   8   -0.15    6.44
  -2   9   8   24.51    9.58
   2  -9  -8    3.03    7.69
  -2   9  -8   -6.74    6.21
   2  -9   9  -27.35   25.68
   2   9  -9   19.51   23.03
  -2  -9   9   25.91   26.59
  -2   9  -9   27.76   25.68
   2  -9   9    6.86    6.59
  -2   9   9   -3.45    7.57
  -2  -9   9   18.22    8.07
   2  -9  -9    0.30    7.46
  -2   9  -9   -3.56    5.91
   2  -9  10  -17.99   25.49
   2   9 -10    8.29   22.95
  -2  -9  10   -4.96   23.56
  -2   9 -10   13.22   21.59
   2  -9  10    7.61    7.57
  -2   9  10   -3.75    8.67
  -2  -9  10  -15.00    8.64
   2  -9 -10  -15.42    9.01
  -2   9 -10    1.44    6.78
   2  -9  11    6.40    6.10
  -2   9  11    6.25    7.35
  -2  -9  11    3.33    6.78
   2  -9 -11   -4.20    7.31
  -2   9 -11   17.57    6.89
   2 -10   0  224.37   48.67
  -2  10   0  269.71   58.33
   2 -10   1   26.85   10.83
  -2  10   1    6.14   10.72
   2 -10  -1    3.11    9.24
  -2  10  -1    6.89   10.26
   2 -10   2   22.46    9.96
  -2  10   2   39.28   13.03
   2 -10  -2   27.23   11.89
  -2  10  -2   35.64   12.61
   2 -10   3    6.97    8.07
  -2  10   3   24.39   10.30
   2 -10  -3    6.17    9.32
   2 -10   4   59.27   15.57
  -2  10   4   62.11   16.40
   2 -10  -4   51.70   14.88
  -2  10  -4   22.50   10.72
   2 -10   5   25.53    9.70
  -2  10   5   24.66   10.60
   2 -10  -5   16.36   10.11
  -2  10  -5   10.79    9.05
   2  10  -6   -0.64   18.18
  -2 -10   6   60.18   23.71
   2 -10   6    5.04    7.23
  -2  10   6   25.26   10.23
   2 -10  -6   18.48    9.81
  -2  10  -6    9.43    8.37
   2  10  -7   23.71   19.01
  -2 -10   7   18.07   21.97
   2 -10   7   11.97    7.16
  -2  10   7   14.62    8.52
   2 -10  -7    9.05    8.07
  -2  10  -7   16.32    8.37
   2  10  -8    1.17   20.53
  -2 -10   8    7.46   23.82
   2 -10   8    1.25    6.63
  -2  10   8   -3.07    8.03
  -2 -10   8    9.32    7.76
   2 -10  -8    6.14    8.22
  -2  10  -8   -2.99    6.70
   2 -10   9   27.38   22.54
   2  10  -9   10.76   23.18
  -2 -10   9   58.10   27.46
   2 -10   9   28.29    9.92
  -2  10   9   15.45    9.77
  -2 -10   9   17.57    8.94
   2 -10  -9   15.23    9.32
  -2  10  -9   19.43    8.45
   2 -10  10   34.84   24.81
   2  10 -10  -13.14   23.10
  -2 -10  10   24.09   23.75
  -2  10 -10   61.51   25.04
   2 -10  10   27.99    9.51
  -2  10  10   11.48    9.09
  -2 -10  10   13.56    8.56
   2 -10 -10   27.35   10.76
  -2  10 -10   11.32    7.27
   2 -11   0   16.97    9.62
  -2  11   0    4.39    9.62
   2 -11   1   15.26    9.09
  -2  11   1    9.81    8.98
   2 -11  -1   17.08    9.85
  -2  11  -1   16.55   10.23
   2 -11   2   -6.59    8.14
  -2  11   2   -4.01    9.05
   2 -11  -2   -1.70    9.20
  -2  11  -2   -1.63    9.51
  -2  11   3  208.35   45.53
   2 -11  -3  333.41   71.32
   2 -11   4    8.22    8.14
  -2  11   4   -7.08    8.98
   2 -11  -4   -1.10    9.43
  -2  11  -4    9.36    9.13
   2 -11   5   -0.95    7.42
  -2  11   5   -2.61    8.37
   2 -11  -5  -17.23    9.51
  -2  11  -5   21.59    9.73
  -2 -11   6   -1.97   20.79
   2 -11   6    0.64    6.70
  -2  11   6   -3.22    7.80
  -2 -11   6   -8.29    7.61
   2 -11  -6   12.54    8.98
  -2  11  -6    4.43    7.69
   2  11  -7    2.88   21.25
  -2 -11   7   -2.01   21.89
   2 -11   7   -2.58    6.97
  -2  11   7   -2.05    8.33
  -2 -11   7    1.93    7.99
   2 -11  -7   -4.43    7.99
  -2  11  -7   -2.35    6.51
   2  11  -8  -16.89   22.91
  -2 -11   8  -10.49   23.75
   2 -11   8   13.90    7.69
  -2  11   8   -1.33    8.22
  -2 -11   8    1.63    7.65
   2 -11  -8   -4.20    7.95
  -2  11  -8   12.23    7.42
   2  11  -9   18.26   23.90
  -2 -11   9   17.65   23.41
   2 -11   9   24.16    9.58
  -2  11   9  -14.62   10.11
  -2 -11   9   -2.80    8.64
   2 -11  -9   13.75   10.00
  -2  11  -9   -4.77    7.73
   2 -11  10   -9.28    6.36
  -2  11  10    5.49    8.26
  -2 -11  10   14.51    8.18
   2 -11 -10    6.25    7.95
  -2  11 -10    1.86    6.40
   2 -12   0   20.04   10.57
  -2  12   0   32.16   12.08
   2 -12   1    3.11    9.36
  -2  12   1   -8.07    9.62
   2 -12  -1   -0.53    9.54
  -2  12  -1    5.57   10.19
   2 -12   2   17.50   10.49
  -2  12   2   25.38   11.48
   2 -12  -2   22.76   11.40
  -2  12  -2   43.37   14.35
   2 -12   3    2.54    8.03
  -2  12   3    6.10    9.47
  -2 -12   3    5.34    9.39
   2 -12  -3    5.38    9.89
   2 -12   4   -0.42    7.88
  -2  12   4    7.01    9.20
  -2 -12   4   23.41   10.30
   2 -12  -4   21.78   10.76
  -2  12  -4   25.79   11.17
   2 -12   5    1.86    7.42
  -2  12   5   -5.64    8.71
  -2 -12   5   15.38    8.98
   2 -12  -5    7.01    8.94
  -2  12  -5    4.70    8.26
   2 -12   6   26.10    9.81
  -2  12   6   -2.73    8.90
  -2 -12   6    7.23    8.41
   2 -12  -6   -4.01    8.98
  -2  12  -6   40.45   11.85
  -2 -12   7   -9.28   24.69
   2 -12   7   15.15    8.41
  -2  12   7   27.08   10.87
  -2 -12   7   19.58    9.39
   2 -12  -7   13.33    9.28
  -2  12  -7   22.42    9.09
   2  12  -8   -3.79   21.06
  -2 -12   8  -27.46   22.69
   2 -12   8    6.63    7.95
  -2  12   8   29.54   12.01
   2  12  -8    5.49    8.14
  -2 -12   8   24.09   10.11
   2 -12  -8    3.07    9.66
  -2  12  -8   -5.91    7.57
   2  12  -9   37.95   23.52
  -2 -12   9   18.41   23.22
   2 -12   9   13.63    8.07
  -2  12   9    1.89    9.17
   2  12  -9    0.15    7.76
  -2 -12   9   -5.15    8.03
   2 -12  -9    2.20    8.71
  -2  12  -9   13.45    7.84
   2 -13   0   49.46   14.81
  -2  13   0   35.22   12.65
   2 -13   1    8.60    9.39
  -2  13   1    0.64    9.05
  -2 -13   1    7.20    9.05
   2 -13  -1   -1.55    8.90
  -2  13  -1   15.98    9.85
   2 -13   2   72.00   18.48
  -2  13   2   40.15   13.48
  -2 -13   2   66.81   17.69
   2 -13  -2   34.16   12.76
  -2  13  -2   59.39   16.17
  -2  13   3   43.25   13.52
  -2 -13   3   66.24   17.38
   2 -13  -3   33.14   12.35
  -2  13  -3   85.37   20.72
   2 -13   4   17.46    8.94
  -2  13   4   21.55   10.23
  -2 -13   4   52.65   14.70
   2 -13  -4   22.84   10.60
  -2  13  -4   30.49   10.79
   2 -13   5   42.46   12.57
  -2  13   5   86.01   21.10
   2  13  -5   44.09   13.10
  -2 -13   5   69.88   17.91
   2 -13  -5   52.53   15.38
  -2  13  -5   66.39   16.85
   2 -13   6    0.53    7.99
  -2  13   6   33.97   12.80
   2  13  -6   -9.20    7.84
  -2 -13   6    3.41    8.64
   2 -13  -6    3.79   10.34
  -2  13  -6    6.44    8.82
   2 -13   7   -1.02    8.11
  -2  13   7   12.50   10.34
   2  13  -7   34.69   12.01
  -2 -13   7   33.06   11.89
   2 -13  -7   18.33   11.59
  -2 -13   8   -2.05   22.08
   2 -13   8    7.16    8.18
  -2  13   8    3.41    9.24
   2  13  -8    1.67    8.60
  -2 -13   8    6.10    9.05
   2 -13  -8   13.90    9.77
  -2  13  -8    3.45    7.84
   2 -13   9    6.36    7.20
  -2  13   9    3.90    8.37
   2  13  -9   15.42    8.60
  -2 -13   9   35.60   11.67
   2 -13  -9    8.71    8.56
  -2  13  -9   50.07   13.26
  -2 -14   0   -4.89    8.98
   2 -14   0   17.73   10.04
  -2  14   0    1.36    8.64
   2 -14   1    2.12    8.75
  -2  14   1   15.60    9.81
  -2 -14  -1    0.91    8.45
  -2 -14   1    0.57    9.13
   2 -14  -1    2.84    8.86
  -2  14  -1   -7.39    8.75
   2 -14   2    6.06    8.98
  -2  14   2   -2.27    9.70
  -2 -14   2   22.65   10.38
   2 -14  -2   -5.79    9.92
  -2  14  -2    1.44    8.67
   2 -14   3    1.48    8.82
  -2  14   3    2.80    9.13
  -2 -14   3   -8.03    8.67
   2 -14  -3    6.93    9.17
  -2  14  -3   14.51    8.64
   2 -14   4    1.44    8.94
  -2  14   4   18.67   10.42
   2  14  -4    2.42    8.75
  -2 -14   4    7.69    9.32
   2 -14  -4  -13.71    9.81
  -2  14  -4   -1.70    8.64
   2 -14   5    4.58    8.56
  -2  14   5   14.85   10.19
   2  14  -5    3.86    8.67
  -2 -14   5   -4.36    8.90
   2 -14  -5   15.60   10.49
  -2  14  -5   -0.49    8.41
   2 -14   6  -19.62    9.28
  -2  14   6   13.37   10.57
   2  14  -6   16.51   10.04
  -2 -14   6    5.38    9.24
   2 -14  -6   -3.18   10.45
  -2  14  -6  -13.29    9.24
   2 -14   7    0.61    8.67
  -2  14   7    7.27   10.79
   2  14  -7  -21.36    9.92
  -2 -14   7   -0.95    9.77
   2 -14  -7   15.64   11.82
  -2  14  -7    8.48    9.13
   2 -14   8   10.87    8.14
  -2  14   8   -0.23    9.01
   2  14  -8   -4.01    7.92
  -2 -14   8   12.84    8.90
   2 -14  -8    5.08    8.45
  -2 -15   0    0.53    9.13
   2 -15   0   -0.15    9.24
  -2  15   0   24.54   11.10
   2 -15   1   10.57    9.89
  -2  15   1   11.89    9.77
   2  15  -1   14.01   10.11
  -2 -15  -1    3.48    9.51
  -2 -15   1   14.92   10.07
   2 -15  -1    6.14    9.51
  -2  15  -1   13.45   10.11
   2 -15   2    3.37    9.28
  -2  15   2    7.35   10.15
   2  15  -2    3.60    9.47
  -2 -15  -2    7.39    9.58
  -2 -15   2   -2.61    9.43
   2 -15  -2    5.49   10.07
  -2  15  -2   -7.27    9.17
   2 -15   3    4.36    9.66
  -2  15   3    0.00    9.62
  -2 -15  -3   -3.64    9.77
  -2 -15   3    4.92    9.47
   2 -15  -3    3.71    9.73
  -2  15  -3    3.30    8.82
   2 -15   4   -7.57    9.13
  -2  15   4   -6.48    9.20
   2  15  -4    3.14    8.90
  -2 -15  -4   -5.04    9.20
  -2 -15   4    5.19    9.20
   2 -15  -4   16.13   10.23
  -2  15  -4   -1.14    8.64
   2 -15   5   -0.15    9.54
  -2  15   5   -7.92   10.15
   2  15  -5    3.30    9.70
  -2 -15   5    7.92   10.04
   2 -15  -5   -1.82   10.53
  -2  15  -5    6.33    9.36
   2 -15   6    1.48   11.93
  -2  15   6   -2.05   10.60
   2  15  -6   -7.01   10.23
  -2 -15   6   -5.38    9.81
   2 -15  -6   13.63   11.97
  -2  15  -6   -7.31    9.81
   2 -15   7   15.45    8.71
  -2  15   7    5.76    9.66
   2  15  -7   -7.04    8.45
  -2 -15   7   13.75    9.13
   2 -15  -7    4.24    9.85
  -2  15  -7   21.32    9.73
   2  16   0   29.32   12.46
  -2 -16   0   29.39   12.27
   2 -16   0   38.06   13.22
  -2  16   0   33.94   12.80
   2 -16   1   10.42    9.89
  -2  16   1   -5.00    9.62
   2  16  -1    1.14    9.66
  -2 -16  -1    3.60    9.51
   2  16   1   21.17   10.38
  -2 -16   1   -5.53    9.20
   2 -16  -1    5.79    9.66
  -2  16  -1   -5.45    9.09
   2 -16   2   -2.35    9.36
  -2  16   2    7.95   10.19
   2  16  -2   -4.58    9.47
  -2 -16  -2   -6.51    9.70
  -2 -16   2    2.99    9.85
   2 -16  -2    1.82    9.85
  -2  16  -2   -0.57    9.32
   2 -16   3    3.07   10.19
  -2  16   3    3.48   10.23
  -2 -16  -3    1.10   10.30
  -2 -16   3  -16.02   10.76
   2 -16  -3    2.05   10.57
  -2  16  -3    3.71    9.54
   2 -16   4   -6.67   10.64
  -2  16   4    3.60   10.76
   2  16  -4   13.10   10.79
  -2 -16  -4   12.12   11.85
  -2 -16   4    2.20   10.45
   2 -16  -4    1.44   11.36
  -2  16  -4  -11.55   10.49
   2 -16   5   -4.62    9.96
  -2  16   5    1.78   10.60
   2  16  -5    8.90   10.26
  -2 -16  -5   -9.96   10.98
  -2 -16   5    5.64   10.26
   2 -16  -5   -6.29   11.25
  -2  16  -5   -2.99    9.62
   2 -16   6    2.35    8.90
  -2  16   6   -0.83    9.54
   2  16  -6   -2.69    8.67
  -2 -16  -6    4.36    9.92
  -2 -16   6   -4.09    9.05
   2 -16  -6   -0.49    9.81
  -2  16  -6    4.92    8.60
   2  17   0    0.95   11.10
  -2 -17   0   20.79   11.89
   2 -17   0   24.32   12.35
  -2  17   0   18.71   12.04
   2 -17   1   10.42   11.40
  -2  17   1    9.32   11.63
   2  17  -1   19.69   12.08
  -2 -17  -1    7.88   11.06
   2  17   1    7.61   11.36
  -2 -17   1   -1.55   10.64
   2 -17  -1   -3.11   10.95
  -2  17  -1    8.29   11.44
   2 -17   2   -9.28   11.40
  -2  17   2   25.94   13.18
   2  17  -2   -8.14   11.51
  -2 -17  -2    0.72   11.44
   2  17   2   10.34   11.51
  -2 -17   2   -9.96   11.02
   2 -17  -2    9.43   12.01
  -2  17  -2   23.29   12.92
   2 -17   3    4.55   11.02
  -2  17   3    6.51   11.36
  -2 -17  -3   15.30   11.51
   2  17   3    0.23   10.64
  -2 -17   3    1.59   10.83
   2 -17  -3    0.72   11.25
  -2  17  -3   -9.62   10.87
   2 -17   4    8.94   10.15
  -2  17   4  -10.83   10.38
   2  17  -4    4.17    9.62
  -2 -17  -4    9.51   10.72
  -2 -17   4   -5.19    9.36
   2 -17  -4   -8.98   10.42
  -2  17  -4   -3.03    9.39
   2 -17   5   10.42    9.28
  -2  17   5   -9.89    9.20
   2  17  -5    9.28    9.09
  -2 -17  -5    0.38    9.85
  -2 -17   5    3.45    9.05
   2 -17  -5    0.38    9.36
  -2  17  -5   -1.78    8.37
   2  18   0   25.75   12.16
  -2 -18   0    0.53    9.89
   2 -18   0    3.07   10.19
  -2  18   0    8.03   10.68
   2 -18   1  -10.26   10.00
  -2  18   1   29.32   12.61
   2  18  -1   -5.57   10.19
  -2 -18  -1   -8.33   10.19
   2  18   1  -12.39   10.15
  -2 -18   1    2.42   10.11
   2 -18  -1    9.92   11.06
  -2  18  -1   10.57   10.83
   2 -18   2   12.88   10.15
  -2  18   2   -1.59   10.30
   2  18  -2   12.99   10.34
  -2 -18  -2   12.92   10.38
   2  18   2   -4.81   10.38
  -2 -18   2    2.58    9.73
   2 -18  -2   -8.41   10.00
  -2  18  -2   23.60   11.29
   2 -18   3    4.70    9.73
  -2  18   3  -10.53    9.54
  -2 -18  -3    4.32    9.92
   2  18   3    0.30    9.92
  -2 -18   3   15.30   10.15
   2 -18  -3   -4.01    9.81
  -2  18  -3  -11.36    9.32
   2 -18   4    9.24   10.11
  -2  18   4   18.14   11.06
   2  18  -4    9.58    9.73
  -2 -18   4    0.87    9.73
   2 -18  -4   -4.17   10.72
   3   0  -3 5010.86  986.64
   3   0   4   23.75   15.79
  -3   0   4    9.05   23.60
   3   0  -4   58.90   26.70
  -3   0  -4   42.91   22.23
   3   0   5  871.88  173.51
  -3   0   5  726.82  145.52
  -3   0  -5  871.50  173.54
   3   0   6   50.87   23.86
  -3   0   6   41.21   25.64
   3   0  -6   11.78   23.71
  -3   0  -6   42.57   25.57
   3   0   7  563.20  114.19
  -3   0   7  391.25   81.92
   3   0  -7  404.13   83.89
   3   0   8   16.97   21.10
  -3   0   8  -13.98   23.79
   3   0  -8    3.26   18.63
  -3   0  -8    1.48   19.51
   3   0   9   78.02   27.42
  -3   0   9   23.10   23.18
   3   0  -9   15.11   19.32
  -3   0  -9   21.17   19.05
   3   0  10   -1.10   21.13
   3   0 -10   23.10   22.65
  -3   0 -10    2.16   19.88
   3   0  11   94.04   32.84
  -3   0  11   83.78   32.08
   3   0 -11   30.07   25.87
  -3   0 -11  105.60   31.97
  -3   0  11   70.33   15.95
   3   0  12   18.10   25.49
  -3   0  12   13.90   25.91
   3   0 -12   -3.48   26.55
  -3   0 -12    1.70   19.85
  -3   0  12   28.37    8.07
   3   1  -2  503.36  102.19
  -3  -1   2  461.70   94.31
   3   1  -3   20.72   23.07
  -3  -1  -3  -32.88   21.74
  -3  -1   3   10.26   23.71
   3   1  -4  210.21   48.06
  -3  -1  -4  329.40   69.08
  -3  -1   4  197.03   46.55
   3  -1   5  -15.30   21.02
  -3   1   5  -14.77   21.17
   3   1  -5  -17.84   24.13
  -3  -1  -5  -20.68   21.66
   3   1   5   64.27   24.92
  -3  -1   5   38.94   24.73
   3  -1  -5  -24.47   23.90
  -3   1  -5    4.28   22.80
   3  -1   6  121.77   33.71
  -3   1   6   83.74   30.22
   3   1  -6   78.51   32.91
   3   1   6  167.75   40.60
  -3  -1   6   47.31   27.42
   3  -1  -6  106.54   31.81
  -3   1  -6  160.48   39.66
   3  -1   7   -7.73   21.93
  -3   1   7   45.07   24.20
   3   1  -7   11.17   22.38
  -3  -1  -7   10.53   21.17
   3   1   7  -17.23   21.97
  -3  -1   7  -23.14   25.53
   3  -1  -7   18.14   17.61
  -3   1  -7   15.42   21.17
  -3   1   7    1.67    6.10
   3  -1   8   -7.23   20.91
  -3   1   8  -11.32   20.26
   3   1  -8   13.75   20.72
  -3  -1  -8   17.99   19.05
   3   1   8    6.25   20.94
  -3  -1   8    7.16   23.41
   3  -1  -8   11.51   20.11
  -3   1  -8  -27.27   18.48
  -3   1   8   -7.16    6.48
   3  -1  -8   -5.68    5.19
   3  -1   9   -0.61   20.72
   3   1  -9   20.98   19.51
  -3  -1  -9  -28.67   20.04
   3   1   9   19.35   23.60
  -3  -1   9  -17.38   21.93
   3  -1  -9  -16.97   20.49
  -3   1  -9   -1.33   18.52
  -3   1   9   -4.92    6.06
   3  -1  -9   -3.22    4.66
   3  -1  10  -11.44   22.27
  -3   1  10   45.94   27.42
   3   1 -10    1.51   23.33
  -3  -1 -10   45.75   22.69
   3   1  10   -7.23   22.80
  -3  -1  10  -31.28   27.27
   3  -1 -10   24.77   23.56
  -3   1 -10   -8.75   22.76
  -3   1  10   18.26    7.08
   3  -1 -10    5.68    4.73
   3  -1  11  -94.42   31.47
  -3   1  11    7.99   25.45
   3   1 -11   11.51   23.03
  -3  -1 -11  -40.49   22.54
   3   1  11    3.98   23.52
   3  -1 -11   23.48   25.26
  -3   1 -11    0.45   24.05
  -3   1  11   -7.80    6.17
   3  -1 -11    0.30    5.42
   3  -1  12  -13.26   26.70
  -3   1  12   34.84   26.13
   3   1 -12   -3.30   23.29
   3   1  12    4.01   23.33
  -3  -1  12    4.05   25.94
  -3   1  12   -0.38    5.91
   3  -1 -12    1.36    5.11
   3   2  -1  182.33   39.96
  -3  -2   1   95.44   30.03
   3   2  -2   21.06   22.54
  -3  -2  -2   -3.48   16.93
  -3  -2   2   -8.71   20.49
   3   2  -3  368.52   76.43
  -3  -2  -3  337.35   68.82
   3   2   3  484.80   97.57
  -3  -2   3  354.06   74.54
  -3   2   3  378.14   80.37
   3  -2  -3  504.87  106.62
   3   2  -4   -0.91   23.71
  -3  -2  -4    6.51   15.76
   3   2   4  -22.08   20.41
  -3  -2   4   28.82   24.13
   3   2  -5   94.99   31.81
  -3  -2  -5  104.16   28.97
   3   2   5   80.07   25.60
  -3  -2   5   94.38   29.54
  -3   2  -5   76.05   29.01
  -3   2   5   76.92   18.18
   3  -2  -5   53.52   14.66
   3  -2   6  -17.54   21.70
  -3   2   6   59.65   25.22
   3   2  -6   35.11   26.93
  -3  -2  -6   30.60   21.17
   3   2   6    2.42   20.68
  -3  -2   6    6.02   23.75
   3  -2  -6    6.25   21.89
  -3   2  -6  -22.08   23.22
  -3   2   6    7.99    8.11
   3  -2  -6   11.06    9.36
   3  -2   7   49.28   24.43
  -3   2   7   39.81   23.75
   3   2  -7   51.55   28.60
  -3  -2  -7   16.51   23.94
   3   2   7   54.88   25.30
  -3  -2   7   45.94   26.02
   3  -2  -7   22.42   19.28
  -3   2  -7   21.97   20.15
  -3   2   7   44.84   11.78
   3  -2  -7   58.63   14.66
   3  -2   8   46.28   21.63
   3   2  -8   28.22   20.34
  -3  -2  -8   13.41   18.79
   3   2   8   31.36   19.81
  -3  -2   8   -0.08   23.26
   3  -2  -8  -12.27   17.50
  -3   2  -8   46.59   20.57
  -3   2   8   22.99    8.56
   3  -2  -8    3.03    5.68
   3  -2   9   -9.89   19.81
  -3   2   9  -33.63   21.63
   3   2  -9   -8.98   19.54
  -3  -2  -9  -31.40   20.30
   3   2   9   20.87   21.63
  -3  -2   9   15.60   23.14
   3  -2  -9   -8.79   20.98
  -3   2  -9  -19.01   17.65
  -3   2   9  -19.20    7.42
   3  -2  -9   -6.17    5.30
   3  -2  10  -24.35   24.43
  -3   2  10   54.16   26.59
   3   2 -10   -1.82   23.33
  -3  -2 -10   10.53   21.89
   3   2  10   -9.17   21.55
  -3  -2  10   21.97   24.69
   3  -2 -10   18.26   22.65
  -3   2 -10   29.28   21.02
  -3   2  10    2.95    5.23
   3  -2 -10    2.84    5.11
   3  -2  11   -1.36   25.91
  -3   2  11    1.02   23.26
   3   2 -11   17.95   22.95
  -3  -2 -11   10.34   22.72
   3   2  11  -28.44   23.29
  -3  -2  11  -10.76   26.29
   3  -2 -11   17.88   22.80
  -3   2 -11   30.57   22.42
  -3   2  11   20.15    6.82
   3  -2 -11    8.18    5.64
  -3   2  12    9.13    5.34
   3  -2 -12    6.78    4.96
   3   3   0   -2.92   13.14
  -3  -3   0   -6.17   12.35
   3  -3   0    7.16   13.71
  -3   3   0   40.45   16.70
   3   3  -1   57.80   20.26
  -3  -3   1   51.59   21.02
   3  -3   1  102.26   24.96
  -3   3   1   68.55   20.34
   3  -3  -1   73.52   20.98
  -3   3  -1  130.33   31.17
   3   3  -2  330.69   68.74
  -3  -3  -2  271.68   55.30
   3   3   2  319.93   64.65
  -3  -3   2  265.39   57.53
  -3   3   2  211.12   46.43
   3  -3  -2  302.89   65.33
   3   3  -3   94.99   27.88
  -3  -3  -3  109.53   26.78
   3   3   3  118.70   28.86
  -3  -3   3  147.11   37.27
   3  -3  -3  110.97   26.36
   3   3  -4   53.40   24.62
   3   3   4  102.72   28.03
  -3  -3   4  159.95   41.28
   3  -3  -4   55.83   15.49
   3  -3   5   14.62   21.51
   3   3  -5   71.20   30.57
  -3  -3  -5   28.29   19.85
   3   3   5    5.23   20.00
  -3  -3   5   71.24   28.48
  -3   3  -5   20.79   22.88
   3  -3  -5   20.23   10.83
   3   3  -6   29.50   26.66
  -3  -3  -6   11.21   21.44
   3   3   6   77.26   27.00
  -3  -3   6  -17.95   24.92
  -3   3  -6   38.71   21.29
   3  -3  -6    1.02    9.54
   3  -3   7  -40.68   23.41
   3   3  -7    9.28   23.90
  -3  -3  -7   -5.83   18.98
   3   3   7  -10.87   20.87
  -3  -3   7   17.80   24.13
  -3   3  -7    5.64   21.06
   3  -3  -7    4.24    6.17
   3  -3   8   -7.16   18.60
  -3   3   8   20.38   19.13
   3   3  -8   -8.98   20.83
  -3  -3  -8   -3.60   16.17
   3   3   8  -14.73   16.51
  -3  -3   8  -11.06   20.00
   3  -3  -8   13.26   16.66
  -3   3  -8   10.57   17.65
   3  -3  -8   -5.26    5.76
   3  -3   9   13.75   19.96
  -3   3   9  -17.88   20.68
   3   3  -9   40.34   21.82
  -3  -3  -9  -24.01   18.10
   3   3   9   28.90   20.98
  -3  -3   9    8.45   23.18
   3  -3  -9   30.45   19.54
  -3   3  -9   12.88   19.09
  -3   3   9    0.45    4.77
   3  -3  -9  -10.95    5.49
   3  -3  10   21.13   24.13
  -3   3  10   29.47   24.73
   3   3 -10  -22.27   22.12
  -3  -3 -10    3.11   20.53
   3   3  10  -32.99   20.04
  -3  -3  10   59.31   25.64
   3  -3 -10   17.88   22.27
  -3   3 -10   11.85   20.83
  -3   3  10   -4.58    5.45
   3  -3 -10   -2.46    5.19
   3  -3  11  -17.61   23.82
  -3   3  11   33.82   23.82
   3   3 -11   -0.83   22.38
  -3  -3 -11   31.10   22.72
   3   3  11   15.72   23.71
  -3  -3  11    3.26   25.30
   3  -3 -11   -3.45   20.45
  -3   3 -11  -13.67   20.83
  -3   3  11    1.06    5.64
   3  -3 -11    8.14    5.76
  -3   3  12    2.92    5.19
   3  -3 -12    2.35    4.96
   3  -4   0    2.61   14.05
  -3   4   0    6.74   14.85
  -3  -4   1   25.87   21.48
   3  -4   1   28.33   14.09
  -3   4   1   10.19   14.77
   3  -4  -1   20.98   14.92
  -3   4  -1   15.83   15.15
   3   4  -2   -7.50   21.74
  -3  -4   2  -27.54   21.78
  -3   4   2   26.02   14.47
   3  -4  -2   28.44   14.88
  -3   4  -2  -18.22   13.94
   3   4  -3  105.63   32.50
  -3  -4  -3   80.52   22.35
   3   4   3  122.64   28.41
  -3  -4   3  152.30   38.25
   3  -4   3  103.63   24.20
  -3   4   3   60.37   17.20
   3  -4  -3   85.52   21.55
   3   4  -4  -45.98   24.39
   3   4   4   28.33   20.11
  -3  -4   4   -4.96   21.66
   3  -4   4    8.29    9.36
  -3   4   4    9.73    7.57
  -3   4  -4   22.08   11.21
   3   4  -5   23.22   23.79
  -3  -4  -5    1.10   21.85
   3   4   5   24.05   20.87
  -3  -4   5   38.63   24.66
   3  -4   5   10.83    9.24
   3  -4  -5   -2.73    8.03
  -3   4  -5   21.55   11.25
   3  -4   6   -5.08   24.96
   3   4  -6  -19.28   25.57
  -3  -4  -6   20.19   20.87
   3   4   6   17.91   19.96
  -3  -4   6   35.19   25.79
  -3   4  -6  -12.20   22.16
  -3   4   6    3.90    6.67
   3  -4  -6   10.26    7.99
  -3   4  -6   11.02    9.58
   3   4  -7   30.87   23.82
  -3  -4  -7   31.40   20.38
   3   4   7  -12.54   19.43
  -3  -4   7   43.78   25.79
  -3   4  -7   63.67   24.01
  -3   4   7   28.63    8.86
   3  -4  -7   22.46    7.99
   3  -4   8   29.66   19.85
   3   4  -8    0.19   18.52
  -3  -4  -8   50.60   21.10
   3   4   8    0.87   18.07
  -3  -4   8   20.30   21.97
  -3   4  -8   14.73   17.46
  -3   4   8   -6.55    6.02
   3  -4  -8   -5.23    5.95
   3  -4   9   36.06   23.86
   3   4  -9    6.17   20.49
  -3  -4  -9   12.12   19.35
   3   4   9    5.53   21.78
  -3  -4   9  -14.01   22.76
   3  -4  -9   32.84   20.23
  -3   4  -9   24.13   19.92
  -3   4   9    0.19    5.42
   3  -4  -9   18.10    6.82
   3  -4  10   -6.36   24.35
  -3   4  10   -3.60   23.22
   3   4 -10  -11.97   25.53
  -3  -4 -10    9.24   21.36
   3   4  10    2.16   23.79
  -3  -4  10  -10.91   24.88
   3  -4 -10    6.78   20.83
  -3   4 -10   25.34   22.65
  -3   4  10    1.44    5.42
   3  -4 -10   -1.25    5.57
   3  -4  11    1.10   23.07
  -3   4  11   35.94   23.44
   3   4 -11    9.92   21.59
  -3  -4 -11   12.76   20.57
   3   4  11   24.92   25.68
  -3  -4  11   56.09   29.20
   3  -4 -11   45.45   22.38
  -3   4 -11   22.54   21.32
   3  -4 -11   -4.32    6.25
   3  -4 -12    1.44    5.30
   3  -5   0   12.27   11.25
  -3   5   0  -14.28   14.13
  -3  -5   1  319.93   65.98
   3  -5   1   47.31   15.64
  -3   5   1   41.62   13.67
   3  -5  -1   76.13   18.98
  -3   5  -1   69.01   20.41
   3   5  -2 1799.44  355.15
  -3  -5   2 2425.52  478.36
   3  -5   2 1778.61  372.50
  -3   5   2 1606.66  336.60
   3  -5  -2 1672.18  350.23
  -3   5  -2 1546.81  324.17
   3   5  -3  -22.88   20.26
  -3  -5   3   15.19   22.65
   3  -5   3   19.28   10.60
  -3   5   3    9.32    8.52
   3  -5  -3    5.61    8.33
   3   5  -4  649.56  130.74
  -3  -5   4  763.56  153.13
   3  -5   4  532.14  112.22
  -3   5   4  561.31  118.13
   3  -5  -4  484.80  102.30
  -3   5  -4  631.00  132.90
   3   5  -5   79.42   31.78
  -3  -5  -5   99.80   29.39
   3   5   5  108.63   29.54
  -3  -5   5   81.96   29.81
   3  -5   5   82.83   20.26
  -3   5   5   92.45   21.40
   3  -5  -5   89.99   21.21
  -3   5  -5   70.30   18.60
   3   5  -6  876.81  175.32
  -3  -5  -6  833.63  166.27
   3   5   6  790.07  157.52
  -3  -5   6  788.56  158.20
   3  -5   6  728.34  153.01
  -3   5   6  840.82  176.42
   3  -5  -6  685.54  144.08
  -3   5  -6  854.84  179.49
   3  -5   7   15.19   21.89
   3   5  -7  -16.48   22.57
  -3  -5  -7    1.14   18.90
   3   5   7  -28.86   18.33
  -3  -5   7   18.10   22.12
  -3   5  -7   43.52   21.48
   3  -5   7    4.32    7.76
  -3   5   7    9.81    6.78
   3  -5  -7    1.33    6.51
  -3   5  -7   -6.14    8.75
   3   5  -8    0.76   18.45
  -3  -5  -8  -10.07   18.98
   3   5   8   15.23   19.62
  -3  -5   8  -26.36   21.93
  -3   5  -8   23.48   18.60
   3  -5   8    7.39    7.50
  -3   5   8    8.45    6.70
   3  -5  -8   14.32    7.20
  -3   5  -8    3.30    8.48
   3  -5   9   31.59   24.13
   3   5  -9    4.13   22.04
  -3  -5  -9   22.84   19.73
   3   5   9    6.63   19.01
  -3  -5   9   10.19   24.43
  -3   5  -9   -5.34   19.92
   3  -5   9   12.80    7.42
  -3   5   9   14.01    6.67
   3  -5  -9   -6.06    5.95
  -3   5  -9  -13.14    8.22
   3  -5  10   49.54   25.34
   3   5 -10   35.15   24.73
  -3  -5 -10   20.94   21.74
   3   5  10   32.04   24.13
  -3  -5  10    4.66   24.77
   3  -5 -10   30.15   20.64
  -3   5 -10   35.56   23.52
   3  -5 -10   46.96   12.01
  -3   5 -10   49.84   12.88
   3  -5  11   20.45   23.94
  -3   5  11   -0.61   21.74
   3   5 -11   62.95   25.57
  -3  -5 -11   25.72   23.63
   3   5  11   74.46   27.57
  -3  -5  11   46.32   28.90
   3  -5 -11   21.97   20.30
  -3   5 -11   10.60   19.39
  -3   5  11   38.33   11.17
   3  -5 -11   26.70    9.28
  -3   5 -11   17.88    8.67
  -3   5  12   19.81    7.20
   3  -5 -12    8.41    5.98
   3  -6   0   -0.95    8.41
  -3   6   0   25.53   10.91
   3  -6   1   48.10   13.45
  -3   6   1   89.08   21.32
  -3   6  -1   35.56   12.08
  -3  -6   2   -5.95   17.99
   3  -6   2   -4.89    7.88
  -3   6   2  -18.56    9.54
   3  -6  -2    1.02    8.14
  -3   6  -2    6.67    8.82
   3   6  -3   71.96   23.29
  -3  -6   3   82.95   26.74
   3  -6   3   81.85   20.45
  -3   6   3   83.10   20.11
   3  -6  -3  153.43   33.82
   3   6  -4   11.40   22.12
  -3  -6   4  -18.07   21.78
   3  -6   4   -3.22   10.30
  -3   6   4    3.86    8.45
   3  -6  -4   10.19    8.82
  -3   6  -4   10.15   11.70
   3   6  -5    5.26   23.48
  -3  -6   5   38.75   27.00
   3  -6   5   22.08   10.91
  -3   6   5   20.68    9.54
   3  -6  -5   11.93    8.67
  -3   6  -5   26.51   12.42
   3   6  -6  -33.82   23.94
  -3  -6  -6   14.24   18.41
   3   6   6  -16.36   19.13
  -3  -6   6   12.80   23.14
   3  -6   6    3.60    8.22
  -3   6  -6    2.31    9.32
   3  -6   7   37.95   24.13
   3   6  -7   56.55   24.54
  -3  -6  -7   65.03   21.82
   3   6   7   39.88   18.07
  -3  -6   7   58.97   24.09
   3  -6   7   82.79   19.73
  -3   6   7   71.70   17.23
   3  -6  -7   56.59   14.35
  -3   6  -7   65.33   17.01
   3  -6   8  -11.59   21.17
   3   6  -8   -8.60   20.26
  -3  -6  -8   -0.83   18.52
   3   6   8   19.20   18.98
  -3  -6   8   30.83   22.61
  -3   6  -8  -19.92   17.35
   3  -6   8  -20.57    9.09
  -3   6   8   -3.60    6.40
   3  -6  -8   -0.42    6.55
  -3   6  -8  -19.13   10.53
   3   6  -9  -14.24   21.93
  -3  -6  -9   10.42   21.25
   3   6   9  -10.34   20.00
  -3  -6   9   36.70   25.60
  -3   6  -9    5.49   22.19
   3  -6   9   13.18    8.45
  -3   6   9    2.46    6.25
   3  -6  -9    7.99    6.67
  -3   6  -9    6.74    8.86
   3  -6  10  -17.84   25.87
   3   6 -10   14.43   25.00
  -3  -6 -10   21.36   23.03
   3   6  10   22.69   24.92
  -3  -6  10  -32.53   28.63
  -3   6 -10    2.12   24.39
   3  -6  10    8.75    7.69
  -3   6  10   -0.19    6.14
   3  -6 -10   -1.51    6.44
  -3   6 -10    7.35    6.70
   3  -6  11    7.88   24.85
   3   6 -11  -25.94   22.50
  -3  -6 -11    8.52   18.86
   3   6  11   -8.48   20.41
  -3  -6  11   18.56   27.23
  -3   6 -11   -2.80   21.89
   3  -6  11    5.23    8.18
  -3   6  11   15.26    7.88
   3  -6 -11   16.59    8.18
  -3   6 -11    7.16    7.95
  -3   6  12    2.35    5.83
   3  -6 -12   -4.73    5.83
  -3   6 -12    0.00    6.17
   3  -7   0   -3.60    8.29
  -3   7   0    6.55    9.24
   3  -7   1    6.25    8.41
  -3   7   1   16.25   10.15
   3  -7  -1   11.63    9.01
  -3   7  -1   28.44   11.25
   3  -7   2   31.21   10.98
  -3   7   2   46.89   14.09
   3  -7  -2   62.30   16.25
  -3   7  -2   65.11   16.85
  -3  -7   3   19.96   20.30
   3  -7   3   21.97   10.19
  -3   7   3    4.24    9.70
   3  -7  -3   14.20    9.51
   3   7  -4   86.01   29.32
  -3  -7   4   83.93   28.25
   3  -7   4   58.40   15.30
  -3   7   4   43.56   13.14
   3  -7  -4   91.28   21.70
  -3   7  -4   60.52   16.06
   3   7  -5  -14.70   19.66
  -3  -7   5    4.47   21.55
   3  -7   5   22.42    8.86
  -3   7   5   -0.98    7.54
   3  -7  -5  -11.36    7.84
  -3   7  -5    5.64    7.92
   3   7  -6  -38.33   22.16
  -3  -7   6  -14.58   21.48
   3  -7   6  -12.39    9.01
  -3   7   6   13.90    8.03
   3  -7  -6   19.05    8.75
  -3   7  -6    4.05    7.99
   3   7  -7  -19.88   17.31
  -3  -7  -7    3.90   16.44
  -3  -7   7  -15.68   19.88
   3  -7   7    4.39    8.41
  -3   7   7   -3.41    7.20
   3  -7  -7   -8.45    7.46
  -3   7  -7    7.92   10.60
   3  -7   8  -19.88   22.57
   3   7  -8    9.81   19.32
  -3  -7  -8    2.46   15.79
   3   7   8   -0.95   17.88
  -3  -7   8    6.25   20.87
  -3   7  -8   25.15   20.91
   3  -7   8  -17.27    8.52
  -3   7   8    1.10    6.78
   3  -7  -8   -1.40    6.74
  -3   7  -8    6.10    9.05
   3  -7   9   13.63   25.68
   3   7  -9    0.80   22.23
  -3  -7  -9   25.22   19.88
   3   7   9    2.69   19.92
  -3  -7   9  -11.32   22.95
  -3   7  -9  -26.29   23.03
   3  -7   9   -5.57    8.03
  -3   7   9   -3.22    6.89
   3  -7  -9    4.81    6.89
  -3   7  -9   -3.75    7.01
   3   7 -10   29.32   24.39
  -3  -7 -10    3.75   18.71
   3   7  10   38.59   21.85
  -3  -7  10    3.90   26.36
  -3   7 -10   59.77   25.11
   3  -7  10   22.65    9.81
  -3   7  10   -3.60    7.16
   3  -7 -10   30.79   10.30
  -3   7 -10    7.73    7.46
   3  -7  11   21.36   26.21
   3   7 -11   -0.04   24.43
  -3  -7 -11   11.93   20.49
   3   7  11   -0.57   20.26
  -3  -7  11   41.40   29.43
  -3   7 -11   18.60   21.82
   3  -7  11   -9.85    8.29
  -3   7  11   11.21    7.35
   3  -7 -11    3.64    7.23
  -3   7 -11    7.31    7.27
   3  -8   0   14.28    9.58
  -3   8   0   -3.48    9.81
   3  -8   1   40.11   12.76
  -3   8   1   49.50   14.81
   3  -8  -1   31.21   11.63
  -3   8  -1   39.43   13.14
   3  -8   2    1.48    8.94
  -3   8   2  -19.43   10.57
   3  -8  -2    1.33    9.05
  -3   8  -2    8.41   10.15
  -3  -8   3   99.99   29.81
   3  -8   3   60.94   16.32
  -3   8   3  101.01   23.75
   3  -8  -3   65.45   17.01
  -3  -8   4  180.97   42.76
   3  -8   4  259.41   55.56
  -3   8   4  362.62   77.11
   3  -8  -4  435.18   92.19
  -3   8  -4  261.03   56.06
   3   8  -5   54.43   25.68
  -3  -8   5   54.69   24.92
   3  -8   5   49.43   13.07
  -3   8   5   73.44   17.91
   3  -8  -5   51.06   13.94
  -3   8  -5   51.85   13.86
   3   8  -6   10.49   20.64
  -3  -8   6  -24.66   21.25
   3  -8   6   -3.03    7.23
  -3   8   6   -1.51    7.76
   3  -8  -6   16.10    8.79
  -3   8  -6   18.63    9.09
   3   8  -7   27.99   16.89
  -3  -8   7   -4.92   21.51
   3  -8   7   16.21    7.69
  -3   8   7  -10.30    7.69
   3  -8  -7    3.22    7.42
  -3   8  -7   11.82    7.73
   3   8  -8    0.95   19.73
  -3  -8   8    1.67   20.30
   3  -8   8   -0.83    7.92
  -3   8   8   -3.03    7.27
   3  -8  -8   -0.64    7.12
  -3   8  -8   -4.51    7.57
   3  -8   9   24.81   23.41
   3   8  -9   10.49   21.44
  -3  -8  -9   29.62   21.21
   3   8   9   16.89   19.05
  -3  -8   9    4.81   26.17
  -3   8  -9   17.91   20.49
   3  -8   9    2.12    8.37
  -3   8   9    7.12    7.39
   3  -8  -9    9.09    7.61
  -3   8  -9    2.35    6.10
   3  -8  10   23.37   28.25
   3   8 -10    6.82   24.43
  -3  -8 -10   19.62   18.71
   3   8  10    8.07   18.37
  -3  -8  10   37.46   25.30
  -3   8 -10  -15.38   20.45
   3  -8  10    9.13    9.85
  -3   8  10   29.62   10.83
   3  -8 -10   41.66   12.61
   3  -8  11   -3.79    7.73
  -3   8  11    5.11    7.31
   3  -8 -11  -14.28    7.39
  -3   8 -11    7.84    7.08
   3  -9   0  -13.41    9.54
  -3   9   0    2.05   10.53
   3  -9   1   -1.97    8.90
  -3   9   1   19.85   11.29
   3  -9  -1   12.46    9.77
  -3   9  -1   11.93   10.72
   3  -9   2   -6.67    8.86
  -3   9   2   -8.22    9.17
   3  -9  -2   13.98    9.58
  -3   9  -2   18.48   10.87
   3  -9   3    4.20    8.48
  -3   9   3   29.20   10.98
   3  -9  -3   -0.72    8.60
   3   9  -4   13.33   20.98
  -3  -9   4   -0.61   22.57
   3  -9   4   -0.23    7.65
  -3   9   4    6.51    7.99
   3  -9  -4   10.34    8.37
  -3   9  -4    4.28    8.41
  -3  -9   5   10.04   20.34
   3  -9   5   -6.51    7.35
  -3   9   5    5.34    7.80
   3  -9  -5   11.55    8.29
  -3   9  -5   14.81    8.82
   3   9  -6    5.98   20.19
  -3  -9   6   34.35   20.34
   3  -9   6   13.03    7.65
  -3   9   6    5.49    8.14
   3  -9  -6   13.41    8.64
  -3   9  -6   22.76    9.58
   3   9  -7   33.67   20.07
  -3  -9   7  -30.79   20.94
   3  -9   7    3.30    6.63
  -3   9   7  -21.97   10.11
   3  -9  -7    3.41    9.89
  -3   9  -7   10.72    7.92
   3   9  -8  -21.10   22.08
  -3  -9   8    7.39   22.95
   3  -9   8   11.21    7.12
  -3   9   8   -1.40    7.42
   3  -9  -8    5.64    7.92
  -3   9  -8    0.80    6.36
   3   9  -9   19.39   22.91
  -3  -9   9   40.26   26.51
   3  -9   9   11.59    7.04
  -3   9   9   -8.56    8.14
   3  -9  -9   -6.51    7.46
  -3   9  -9   -4.47    6.44
   3  -9  10   15.19   23.41
   3   9 -10   13.90   21.06
  -3  -9 -10    6.29   18.45
  -3  -9  10  -17.01   23.44
  -3   9 -10   -7.31   20.87
   3  -9  10   -7.61    7.65
  -3   9  10   -3.45    8.45
   3  -9 -10   -1.82    8.14
  -3   9 -10  -10.98    7.27
   3  -9  11    0.76    6.14
  -3   9  11    1.06    6.82
   3  -9 -11    1.17    6.78
  -3   9 -11   12.23    6.36
   3 -10   0    1.74    8.98
  -3  10   0   -4.05   10.04
   3 -10   1   31.06   11.25
  -3  10   1   70.18   17.88
   3 -10  -1   53.02   14.62
  -3  10  -1   47.38   14.39
   3 -10   2   -1.78    7.80
  -3  10   2    4.77    8.48
   3 -10  -2    1.17    8.52
  -3  10  -2    7.84    9.13
   3 -10   3  423.44   89.76
  -3  10   3  503.36  106.50
   3 -10  -3  565.47  119.42
  -3  10  -3  419.28   88.89
   3 -10   4   42.15   12.57
  -3  10   4   88.97   21.29
   3 -10  -4   72.53   18.18
  -3  10  -4   41.47   12.73
   3  10  -5   59.92   22.46
  -3 -10   5   93.29   26.63
   3 -10   5   72.99   17.80
  -3  10   5   95.33   22.61
   3 -10  -5   88.40   21.21
  -3  10  -5  107.15   24.88
  -3 -10   6   50.37   22.84
   3 -10   6   -2.69    7.08
   3 -10  -6   -1.40    7.57
  -3  10  -6   15.95    8.82
   3  10  -7   55.64   22.88
  -3 -10   7   57.65   25.11
   3 -10   7   27.04    9.32
  -3  10   7   43.37   12.61
   3 -10  -7   49.05   13.48
  -3  10  -7   39.62   11.14
   3  10  -8    4.47   21.55
  -3 -10   8   41.13   23.07
   3 -10   8    5.23    7.12
  -3  10   8    1.17    8.90
   3 -10  -8  -17.54    8.52
  -3  10  -8   -2.39    6.93
   3  10  -9   22.95   22.99
  -3 -10   9   -5.19   23.97
   3 -10   9    4.92    7.50
  -3  10   9    9.70    9.05
   3 -10  -9   21.02    9.92
  -3  10  -9   24.77    9.13
   3 -10  10  -24.32   23.52
   3 -10  10    1.97    6.74
  -3  10  10   17.54    9.28
   3 -10 -10   -5.42    8.26
  -3  10 -10   -7.31    6.63
   3 -11   0   -2.16    8.18
  -3  11   0   -9.92    9.28
   3 -11   1  -13.37    8.79
  -3  11   1   -4.24    8.67
   3 -11  -1  -11.51    8.52
  -3  11  -1   -4.05    9.47
   3 -11   2   19.73    9.47
  -3  11   2   22.42   10.23
   3 -11  -2   27.88   10.72
  -3  11  -2   29.24   11.51
   3 -11   3    8.45    8.29
  -3  11   3  -11.55    9.13
   3 -11  -3    2.31    8.45
  -3  11  -3    4.51    8.37
   3 -11   4    9.20    8.48
  -3  11   4    9.20    8.79
   3 -11  -4   13.86    8.94
  -3  11  -4   10.11    9.24
  -3 -11   5   -5.15   20.64
   3 -11   5    6.89    7.84
  -3  11   5   17.08    9.28
   3 -11  -5   11.70    8.52
  -3  11  -5  -14.92    8.60
   3  11  -6   -9.39   18.79
  -3 -11   6   10.95   21.48
   3 -11   6   27.69    9.62
  -3  11   6  -11.89    9.20
   3 -11  -6    4.20    8.45
  -3  11  -6   14.77    8.67
  -3 -11   7  -14.17   22.72
   3 -11   7    0.42    7.12
  -3  11   7   12.01    8.94
   3 -11  -7    1.21    7.69
  -3  11  -7    0.61    6.63
   3  11  -8   36.21   24.35
  -3 -11   8   23.79   24.24
   3 -11   8   -2.23    6.86
  -3  11   8   14.17    9.28
   3 -11  -8    6.21    8.26
  -3  11  -8   14.20    8.14
   3  11  -9   22.12   19.54
  -3 -11   9   -1.21   22.50
   3 -11   9    4.66    7.99
  -3  11   9   -0.19    9.36
   3 -11  -9  -11.17    9.81
  -3  11  -9    4.32    8.07
   3 -11  10    3.22    6.51
  -3  11  10    1.86    7.99
   3 -11 -10    0.76    7.99
  -3  11 -10   12.54    7.04
   3 -12   0   -1.48    8.29
  -3  12   0    4.17    8.98
   3 -12   1   13.10    9.28
  -3  12   1   21.06   10.49
   3 -12  -1   34.66   11.67
  -3  12  -1   22.61   11.06
   3 -12   2    0.61    8.29
  -3  12   2   -1.74    8.86
   3 -12  -2    5.61    8.48
  -3  12  -2   -0.83    7.65
   3 -12   3   31.78   11.10
  -3  12   3   38.41   12.65
   3 -12  -3   52.61   14.73
  -3  12  -3   22.04    9.05
   3 -12   4   42.87   12.61
  -3  12   4   69.24   17.80
   3 -12  -4   57.23   15.57
  -3  12  -4   36.97   11.02
   3 -12   5   28.86   10.19
  -3  12   5   39.31   12.54
   3 -12  -5   29.62   10.68
  -3  12  -5   39.09   11.29
  -3 -12   6    8.07   23.37
   3 -12   6    7.39    7.57
  -3  12   6   -0.61    9.01
   3 -12  -6   -4.70    8.37
  -3  12  -6    8.60    7.46
   3  12  -7   20.79   21.74
  -3 -12   7    8.86   22.88
   3 -12   7   11.67    7.95
  -3  12   7   -4.17    8.60
   3 -12  -7   16.02    9.43
  -3  12  -7   22.72    8.90
  -3 -12   8    9.81   24.47
   3 -12   8   -0.30    8.48
  -3  12   8    4.01    9.92
   3 -12  -8   15.00   10.34
  -3  12  -8   -4.20    8.56
   3 -12   9   -0.49    6.97
  -3  12   9    0.49    8.82
   3 -12  -9  -12.84    8.79
  -3  12  -9   12.99    7.69
   3 -13   0   11.14    8.71
  -3  13   0   27.91   10.87
   3 -13   1   39.54   12.39
  -3  13   1   32.00   11.59
   3 -13  -1   11.02    9.17
  -3  13  -1   55.07   14.77
   3 -13   2   34.58   11.55
  -3  13   2   25.19   10.98
   3 -13  -2   10.42    9.17
  -3  13  -2   58.52   15.19
   3 -13   3   98.82   23.26
  -3  13   3   53.29   16.06
  -3  13  -3   87.30   21.13
   3 -13   4    5.53    7.76
  -3  13   4   22.50   10.64
   3 -13  -4   30.45   11.02
  -3  13  -4    5.15    6.89
   3 -13   5   31.44   11.14
  -3  13   5   47.72   14.28
   3 -13  -5   70.71   18.37
  -3  13  -5   45.11   12.69
   3 -13   6    5.57    7.99
  -3  13  -6    5.04    7.04
   3  13  -7   62.95   23.56
  -3 -13   7  -10.42   20.79
   3 -13   7   16.40    8.94
  -3  13   7   12.65   10.11
   3 -13  -7   -1.63   10.07
  -3  13  -7   14.77    8.75
   3  13  -8   -9.01   19.66
  -3 -13   8   28.44   23.97
   3 -13   8   -1.36    7.61
  -3  13   8    5.57    9.81
   3 -13  -8   21.85   10.87
  -3  13  -8    3.33    7.80
  -3  13   9    6.51    8.71
   3 -13  -9    6.29    7.95
  -3  13  -9   14.09    7.92
   3 -14   0    2.50    8.14
  -3  14   0   11.10    8.79
   3 -14   1   -4.32    7.76
  -3  14   1   12.88    9.17
   3 -14  -1   -0.83    7.92
  -3  14  -1    3.86    7.16
   3 -14   2   -4.24    7.69
  -3  14   2   -4.24    8.82
   3 -14  -2  -11.55    8.07
  -3  14  -2    6.02    7.50
   3 -14   3   12.46    8.86
  -3  14   3   -0.80    9.20
   3 -14  -3    2.27    8.79
  -3  14  -3   10.11    7.92
   3 -14   4    2.01    8.11
  -3  14   4   14.51   10.00
   3 -14  -4    5.95    9.32
  -3  14  -4    9.28    7.57
   3 -14   5   27.91   10.79
  -3  14   5   48.25   15.53
   3 -14  -5   38.67   14.32
  -3  14  -5   42.46   12.20
   3 -14   6    4.81    8.82
  -3  14   6   25.98   12.39
   3 -14  -6   41.59   14.47
  -3  14  -6    5.61    7.95
   3 -14   7    1.51    8.82
  -3  14   7    9.28   10.38
   3 -14  -7    1.63   10.53
  -3  14  -7   18.10    9.17
   3 -14   8  -14.96    7.88
  -3  14   8   -1.63    8.71
   3 -14  -8    4.81    8.52
  -3  14  -8   11.70    7.84
   3 -15   0   -2.27    8.64
  -3  15   0    9.09    9.28
   3 -15   1   30.15   11.14
  -3  15   1   57.99   16.29
   3 -15  -1   43.75   13.37
  -3  15  -1    6.06    8.64
   3 -15   2    1.67    8.60
  -3  15   2   -1.48    9.58
   3 -15  -2   -3.07    8.79
  -3  15  -2    9.36    7.99
   3 -15   3    2.65    8.98
  -3  15   3    2.39    9.51
   3 -15  -3   26.97   11.70
  -3  15  -3   19.51    9.47
   3 -15   4   13.45    8.98
  -3  15   4    1.40    9.54
   3 -15  -4   17.08   10.76
  -3  15  -4   20.98    9.01
   3 -15   5    2.92    9.01
  -3  15   5   18.56   11.48
   3 -15  -5    9.62   11.06
  -3  15  -5    3.52    8.03
   3 -15   6   -3.18    8.75
  -3  15   6    2.20   10.60
   3 -15  -6   13.75   11.70
  -3  15  -6    4.92    7.99
   3 -15   7    2.50    7.76
  -3  15   7   13.14   10.19
   3 -15  -7   -3.22    9.47
  -3  15  -7   -4.36    7.31
   3 -16   0   11.10    9.32
  -3  16   0    0.61    9.43
   3 -16   1   25.07   10.68
  -3  16   1   40.00   13.56
   3 -16  -1   12.42   10.11
  -3  16  -1   36.59   12.92
   3 -16   2   33.94   12.16
  -3  16   2   14.92   10.95
   3 -16  -2  -10.19   10.30
  -3  16  -2   23.86   11.17
   3 -16   3   12.39   10.15
  -3  16   3   -3.37   10.38
   3 -16  -3   32.46   12.99
  -3  16  -3   30.68   11.51
   3 -16   4   -1.63    9.66
  -3  16   4   -7.12   11.14
   3 -16  -4    3.86   11.59
  -3  16  -4   -6.55    8.64
   3 -16   5    1.14    9.17
  -3  16   5   -5.04   10.83
   3 -16  -5   -3.11   10.98
  -3  16  -5  -10.19    8.26
   3 -16   6   11.67    8.48
  -3  16   6   -4.32    9.24
   3 -16  -6    7.04    9.92
  -3  16  -6   13.26    7.88
   3 -17   0    8.26   11.55
  -3  17   0    1.78   11.21
   3 -17   1   20.38   11.78
  -3  17   1  -15.19   11.74
   3 -17  -1   23.79   12.57
  -3  17  -1   17.16   12.27
   3 -17   2    0.00   10.00
  -3  17   2   -2.54   11.63
   3 -17  -2    1.78   11.48
  -3  17  -2    4.51   11.06
   3 -17   3   13.33   10.42
  -3  17   3   -7.73   10.79
   3 -17  -3   -3.45   10.76
  -3  17  -3  -11.14    9.89
   3 -17   4   11.32    9.32
  -3  17   4   13.52   10.34
   3 -17  -4   15.64   11.02
  -3  17  -4    4.51    9.51
   3 -17   5   12.12    8.71
  -3  17   5   -5.87    9.39
   3 -17  -5    8.60    9.70
  -3  17  -5   -6.40    7.31
   3 -18   0   -8.56    9.85
  -3  18   0   -2.35   10.00
   3 -18   1    7.39   10.00
  -3  18   1   10.19   10.19
   3 -18  -1    1.55    9.70
  -3  18  -1    6.06   10.30
   3 -18   2   14.85   10.79
  -3  18   2   19.43   10.79
   3 -18  -2    4.85    9.96
  -3  18  -2    1.36    9.24
   3 -18   3    3.52    9.01
  -3  18   3    3.30    9.43
   3 -18  -3    9.62    9.96
  -3  18  -3    5.45    8.82
   4   0   4  791.59  157.60
   4   0  -4  864.69  172.29
  -4   0  -4  832.49  165.51
   4   0   5   -6.55   19.69
  -4   0   5   14.05   21.82
   4   0  -5   47.08   24.54
  -4   0  -5   -0.57   18.98
   4   0   6   -0.95   23.07
  -4   0   6    2.20   25.34
   4   0  -6   19.47   28.94
  -4   0  -6    9.85   22.84
   4   0   7   83.51   26.47
  -4   0   7   33.18   26.74
   4   0  -7   35.94   24.54
  -4   0  -7   75.60   25.15
   4   0   8  -23.03   20.11
  -4   0   8  -16.32   22.54
   4   0  -8  -19.43   18.52
  -4   0  -8   30.75   19.20
   4   0   9  203.88   46.93
  -4   0   9  204.75   47.50
   4   0  -9  168.58   40.03
  -4   0  -9  172.75   40.15
   4   0  10  -51.43   24.92
  -4   0  10   -5.38   26.82
   4   0 -10   11.74   23.33
  -4   0 -10   24.05   21.59
   4   0  11  -14.88   22.38
   4   0 -11   19.13   21.78
  -4   0 -11   36.93   22.76
   4   1  -3    6.82   21.32
   4   1   3   -8.26   16.48
  -4  -1   3  -22.38   22.80
   4   1  -4   20.45   23.26
  -4  -1  -4  -27.95   18.03
   4   1   4    0.30   21.13
  -4  -1   4  -27.04   25.00
   4  -1   5   31.85   18.82
   4   1  -5  -38.44   26.25
  -4  -1  -5  -14.62   22.95
   4   1   5   -5.76   18.94
  -4  -1   5   51.59   26.02
  -4   1  -5   19.35   21.32
   4  -1   6    6.63   23.33
  -4   1   6    0.30   25.11
   4   1  -6   17.27   26.51
  -4  -1  -6   49.58   23.18
   4   1   6   45.00   23.63
  -4  -1   6   15.76   24.13
   4  -1  -6  -23.10   21.97
  -4   1  -6  -39.81   20.76
   4  -1   7   45.26   22.84
  -4   1   7   -2.46   22.50
   4   1  -7   -3.45   26.02
  -4  -1  -7  -19.69   23.26
   4   1   7   33.44   22.80
  -4  -1   7    1.70   24.13
   4  -1  -7    8.41   21.55
  -4   1  -7   32.23   20.07
   4  -1   8   -5.53   20.94
  -4   1   8   16.32   24.39
   4   1  -8   -6.89   19.16
  -4  -1  -8   -6.36   18.14
   4   1   8  -26.36   18.82
  -4  -1   8  -76.77   26.47
   4  -1  -8   17.12   18.07
  -4   1  -8  -16.82   18.14
   4  -1   9   14.77   20.91
  -4   1   9  -15.49   21.51
   4   1  -9   16.17   19.32
  -4  -1  -9  -25.11   19.47
   4   1   9  -33.82   21.06
  -4  -1   9  -34.43   22.84
   4  -1  -9  -23.71   20.57
  -4   1  -9   -3.52   18.82
   4  -1  10   26.74   21.93
   4   1 -10   62.80   25.91
  -4  -1 -10   20.76   22.23
   4   1  10  -13.98   20.79
  -4  -1  10   -8.64   23.67
   4  -1 -10  -32.50   22.23
  -4   1 -10   22.16   21.13
  -4   1  10   -8.71    6.63
   4  -1  11   19.85   23.97
  -4   1  11   11.25   25.64
   4   1 -11   -0.19   21.66
  -4  -1 -11   50.68   25.53
   4   1  11   44.88   24.51
  -4  -1  11   29.20   29.01
   4  -1 -11   40.45   24.20
  -4   1 -11   23.41   22.01
  -4   1  11    4.62    6.93
  -4   1  12    1.40    6.14
   4  -1 -12    1.51    5.49
   4   2  -2  -24.01   21.13
  -4  -2   2    6.67   24.09
   4   2  -3  123.93   32.16
  -4  -2  -3   81.81   22.46
   4   2   3   45.45   18.98
  -4  -2   3   27.88   23.86
   4   2  -4   10.15   21.59
   4   2   4  -17.76   20.15
  -4  -2   4  -17.01   24.81
   4   2  -5   -0.64   26.63
  -4  -2  -5   11.10   19.13
   4   2   5   24.47   21.55
  -4  -2   5   25.91   24.69
   4  -2   6  -35.87   25.07
   4   2  -6    6.82   25.19
  -4  -2  -6    5.04   21.29
   4   2   6   15.68   22.42
  -4  -2   6   19.39   24.92
  -4   2  -6    3.60   23.63
   4  -2   7  264.90   56.70
   4   2  -7  264.97   58.33
  -4  -2  -7  234.48   51.02
   4   2   7  202.67   45.90
  -4  -2   7  260.66   58.21
   4  -2  -7  162.94   38.14
  -4   2  -7  274.40   58.97
  -4   2   7  256.98   54.65
   4  -2  -7  149.68   32.35
   4  -2   8    4.85   18.82
  -4   2   8   -4.13   18.48
   4   2  -8    1.70   21.02
  -4  -2  -8   -5.91   17.42
   4   2   8    8.18   15.53
  -4  -2   8  -22.57   20.04
   4  -2  -8   14.54   18.75
  -4   2  -8  -30.68   18.33
  -4   2   8   -0.15    7.39
   4  -2  -8    2.23    5.98
   4  -2   9    0.53   20.60
   4   2  -9   43.86   22.01
  -4  -2  -9   67.30   23.18
   4   2   9   26.36   20.79
  -4  -2   9   35.75   24.01
   4  -2  -9   74.31   25.07
  -4   2  -9   13.18   18.60
  -4   2   9   21.97    8.33
   4  -2  -9   35.45    9.51
   4  -2  10  -10.19   21.40
  -4   2  10   -6.70   25.07
   4   2 -10    4.89   21.51
  -4  -2 -10   12.23   20.87
   4   2  10  -14.92   19.81
  -4  -2  10  -19.43   23.10
   4  -2 -10   10.72   20.45
  -4   2 -10   41.13   22.69
  -4   2  10    5.26    6.93
   4  -2 -10   -0.23    5.34
   4  -2  11    0.15   24.54
  -4   2  11    6.48   24.62
   4   2 -11    3.26   22.88
  -4  -2 -11   -2.99   21.02
   4   2  11  -25.72   23.82
  -4  -2  11   -0.49   24.96
   4  -2 -11   11.93   23.60
  -4   2 -11   28.14   21.85
  -4   2  11   10.76    7.76
   4  -2 -11   -0.11    5.68
  -4   2  12   14.01    7.27
   4  -2 -12    6.86    5.49
  -4  -3   0  757.12  149.64
  -4  -3   1  -12.95   19.85
   4   3  -2 1193.44  236.34
  -4  -3  -2 1356.30  267.21
   4   3   2 1187.76  234.03
  -4  -3   2 1216.92  241.15
  -4   3   2 1037.78  217.93
   4  -3  -2  854.46  179.79
   4   3  -3  -32.72   25.64
  -4  -3  -3    2.73   16.32
   4   3   3    2.27   14.70
  -4  -3   3  -41.51   23.44
  -4   3   3  -30.03   12.92
   4  -3  -3  -27.35   12.76
   4   3  -4  298.38   63.74
   4   3   4  253.84   53.71
  -4  -3   4  316.94   66.89
  -4   3   4  223.42   48.18
   4  -3  -4  271.00   58.21
   4   3  -5    8.41   22.95
  -4  -3  -5   25.15   22.19
   4   3   5   45.07   22.35
  -4  -3   5  -33.33   24.16
  -4   3   5    3.41    9.51
   4  -3  -5   -4.17   10.79
   4  -3   6  645.77  130.44
   4   3  -6  757.12  152.37
  -4  -3  -6  634.03  127.45
   4   3   6  640.84  128.51
  -4  -3   6  620.39  125.93
  -4   3  -6  521.92  105.82
  -4   3   6  480.26  101.32
   4  -3  -6  631.00  132.87
   4  -3   7    4.05   20.07
   4   3  -7    6.02   23.10
  -4  -3  -7   16.48   19.81
   4   3   7   -0.57   18.63
  -4  -3   7   21.89   24.35
  -4   3  -7   23.29   20.23
  -4   3   7    9.01    6.63
   4  -3  -7    0.57    6.67
   4  -3   8    6.21   17.73
   4   3  -8  -12.80   18.86
  -4  -3  -8  -11.25   18.63
   4   3   8    3.83   18.26
  -4  -3   8    8.79   22.61
  -4   3  -8  -25.04   17.76
   4  -3  -8   -1.40    6.21
   4  -3   9  -20.23   19.54
  -4   3   9   22.84   22.99
   4   3  -9   31.36   21.74
  -4  -3  -9   14.73   19.58
   4   3   9  -14.54   22.04
  -4  -3   9    6.48   22.99
   4  -3  -9  -37.00   20.34
  -4   3  -9   22.27   18.03
   4  -3  -9   -1.48    5.61
   4  -3  10   23.60   24.77
  -4   3  10  -27.16   23.94
   4   3 -10   -2.08   24.96
  -4  -3 -10    8.48   21.66
   4   3  10   20.34   23.48
  -4  -3  10  -47.65   26.93
   4  -3 -10   11.10   20.72
  -4   3 -10   17.04   20.49
   4  -3 -10    4.28    6.10
   4  -3  11   -8.75   21.85
  -4   3  11   14.66   23.29
   4   3 -11    3.71   22.27
  -4  -3 -11    2.84   20.41
   4   3  11   35.87   26.32
  -4  -3  11    3.79   26.70
   4  -3 -11    1.14   21.89
  -4   3 -11  -16.48   19.88
   4  -3 -11   -1.51    6.70
   4  -3 -12  -11.02    5.83
   4   4   0  -36.17   15.04
  -4  -4   0    1.48   12.12
   4  -4   0   13.56   11.78
  -4   4   0   -1.97   14.92
  -4  -4   1  -35.72   18.37
   4  -4   1    4.85   12.46
  -4   4   1   -9.43   14.54
   4  -4  -1   10.72   14.51
  -4   4  -1    1.29   14.73
   4   4  -2  -52.23   21.97
  -4  -4  -2   10.76   10.04
   4   4   2   -1.33    9.39
  -4  -4   2   -1.74   21.25
   4  -4   2   -2.65   10.64
  -4   4   2   -3.30   12.42
   4  -4  -2   21.21   13.33
  -4   4  -2  -12.01   12.65
   4   4  -3   -8.18   22.04
  -4  -4  -3    3.52   16.74
   4   4   3   11.74   13.33
  -4  -4   3   28.25   23.07
  -4   4   3   25.57   12.76
   4  -4  -3    9.62   11.36
   4   4  -4   38.67   23.97
  -4  -4  -4   -1.14   16.78
   4   4   4   29.05   17.04
  -4  -4   4   23.07   24.51
  -4   4   4   -7.54    9.89
   4  -4  -4    0.61   10.95
   4   4  -5  -34.24   27.69
  -4  -4  -5   12.54   21.85
   4   4   5   28.86   20.87
  -4  -4   5  -10.72   23.75
  -4   4   5    4.85   10.07
   4  -4  -5   -3.22   11.06
   4   4  -6   55.18   26.63
  -4  -4  -6  -39.39   21.89
   4   4   6    2.80   20.00
  -4  -4   6   23.52   24.32
  -4   4   6    5.72    8.79
   4  -4  -6   -2.99    7.42
   4  -4   7   -4.01   22.42
   4   4  -7   61.13   26.70
  -4  -4  -7   27.65   20.83
   4   4   7  -17.54   18.10
  -4  -4   7  -24.35   22.01
  -4   4  -7   -3.45   21.29
  -4   4   7    3.86    8.37
   4  -4  -7   10.83    7.42
   4  -4   8   45.11   22.08
   4   4  -8  -42.91   19.88
  -4  -4  -8    6.36   18.07
   4   4   8   -1.25   17.35
  -4  -4   8  -12.84   21.48
  -4   4  -8    4.36   16.02
  -4   4   8   -5.19    7.69
   4  -4  -8   -3.79    6.74
   4  -4   9  -22.50   22.99
   4   4  -9   -5.98   21.02
  -4  -4  -9    2.54   18.94
   4   4   9  -14.51   19.24
  -4  -4   9   -4.92   22.19
  -4   4  -9   11.06   18.94
  -4   4   9   -0.68    5.76
   4  -4  -9    9.05    6.51
   4  -4  10    6.74   25.45
   4   4 -10    9.66   23.56
  -4  -4 -10  -26.13   21.55
   4   4  10   -2.31   22.27
  -4  -4  10  -14.32   24.69
   4  -4 -10   -1.02   21.89
  -4   4 -10   -6.29   23.18
  -4   4  10    3.30    5.87
   4  -4 -10    6.59    6.59
   4  -4  11    4.70   24.13
  -4   4  11   43.52   24.09
   4   4 -11   11.25   22.27
  -4  -4 -11   59.43   26.44
   4   4  11   98.40   30.75
  -4  -4  11    6.74   26.55
   4  -4 -11   18.75   21.70
  -4   4 -11   42.23   22.42
  -4   4  11   30.94    9.70
   4  -4 -11   19.28    8.33
  -4   4  12    4.70    5.53
   4  -4 -12   11.67    5.95
   4   5   0  161.99   34.50
  -4  -5   0  189.83   40.00
   4  -5   0  180.28   39.62
  -4   5   0  238.61   52.31
   4   5  -1   94.08   24.47
  -4  -5   1   64.96   20.91
   4  -5   1   95.86   23.60
  -4   5   1   88.21   23.18
   4  -5  -1   75.14   19.09
  -4   5  -1  130.44   30.83
  -4  -5   2  125.90   32.27
  -4   5   2   68.10   19.20
   4  -5  -2   69.46   17.91
  -4   5  -2  135.59   31.44
   4   5  -3    9.01   17.12
  -4  -5   3   27.50   22.61
   4  -5   3    3.71   10.49
  -4   5   3    4.51   11.70
   4  -5  -3   23.44   10.72
  -4   5  -3   20.91   11.85
   4   5  -4    0.72   23.07
  -4  -5  -4    7.50   15.38
   4   5   4   11.10   17.42
  -4  -5   4   32.04   22.84
   4  -5   4   -3.86   10.60
  -4   5   4   25.60   11.89
   4  -5  -4   -5.26    9.13
  -4   5  -4  -22.57   12.92
   4   5  -5   -2.35   23.86
  -4  -5  -5   -4.77   17.99
   4   5   5   28.71   19.92
  -4  -5   5    9.73   25.75
   4  -5   5    9.54   10.00
  -4   5   5    5.38   10.38
   4  -5  -5   24.32   10.60
  -4   5  -5   26.85   12.84
   4   5  -6  142.49   38.41
  -4  -5  -6  142.79   34.31
   4   5   6  186.16   42.19
  -4  -5   6  131.46   36.21
   4  -5   6  161.27   35.22
  -4   5   6  149.64   32.65
   4  -5  -6  121.84   27.12
   4   5  -7   -7.76   20.76
  -4  -5  -7   10.91   16.21
   4   5   7  -21.55   16.13
  -4  -5   7  -23.82   20.49
  -4   5   7    3.48    6.78
   4  -5  -7    0.53    6.74
  -4   5  -7   -3.22    9.77
   4  -5   8   45.26   22.27
   4   5  -8  -19.47   19.81
  -4  -5  -8   -2.08   19.51
   4   5   8   11.55   17.20
  -4  -5   8   11.48   21.32
  -4   5  -8   16.55   19.54
  -4   5   8   33.67    9.89
   4  -5  -8   10.91    6.97
   4  -5   9    5.23   23.14
   4   5  -9  -29.54   22.42
  -4  -5  -9   10.00   21.85
   4   5   9  -21.13   19.81
  -4  -5   9  -14.13   23.03
  -4   5  -9  -38.52   22.69
  -4   5   9   -2.12    5.95
   4  -5  -9    6.10    6.36
   4  -5  10   23.97   25.79
   4   5 -10   50.98   27.57
  -4  -5 -10   55.18   24.28
   4   5  10   76.77   28.71
  -4  -5  10   11.51   29.62
  -4   5 -10   -0.98   23.07
  -4   5  10   57.42   14.01
   4  -5 -10   50.45   12.76
   4  -5  11   20.30   22.65
   4   5 -11   19.35   23.63
  -4  -5 -11   20.72   19.62
   4   5  11   19.43   20.87
  -4  -5  11  -16.02   26.47
   4  -5 -11   11.74   20.53
  -4   5 -11   36.70   22.88
  -4   5  11   24.81    9.17
   4  -5 -11   28.78    9.62
  -4   5  12   22.84    7.80
   4  -5 -12   10.57    6.33
   4  -6   0   -2.54    9.51
  -4   6   0   19.24   13.37
   4  -6   1   -0.53   10.57
  -4   6   1   -2.27   12.50
   4  -6  -1   32.88   11.89
  -4   6  -1    8.75   12.50
   4   6  -2  -29.09   19.20
  -4  -6   2    3.71   18.33
   4  -6   2   16.51   11.25
  -4   6   2   -2.50   12.16
   4  -6  -2   -3.64    9.70
  -4   6  -2   11.32   12.61
  -4  -6   3   17.91   21.21
   4  -6   3   16.74   11.67
  -4   6   3   15.15    9.92
   4  -6  -3   10.49    9.77
  -4   6  -3   11.02   11.82
   4   6  -4   22.54   22.76
  -4  -6   4    3.75   22.84
   4  -6   4   -0.30   10.57
  -4   6   4   -9.13    8.67
   4  -6  -4   -3.52    8.48
  -4   6  -4   -5.08   12.39
  -4  -6  -5   26.78   18.94
   4   6   5   21.82   18.60
  -4  -6   5  -21.89   22.04
   4  -6   5   16.17   11.17
  -4   6   5   36.93   11.63
   4  -6  -5   22.61    9.47
  -4   6  -5    0.45   12.35
   4   6  -6   11.06   23.41
  -4  -6  -6  -15.83   16.82
   4   6   6    1.63   16.36
  -4  -6   6   13.07   23.48
   4  -6   6    3.64    8.67
  -4   6   6   -9.09    6.97
   4  -6  -6   22.23    8.75
  -4   6  -6   -6.36   10.00
   4   6  -7   44.39   23.07
  -4  -6  -7   27.23   18.18
   4   6   7   32.31   16.06
  -4  -6   7   -4.39   19.13
   4  -6   7   17.50    9.51
  -4   6   7   21.82    8.98
   4  -6  -7   26.66    9.39
  -4   6  -7   42.99   13.71
   4   6  -8  -16.25   20.15
  -4  -6  -8   19.09   17.35
   4   6   8  -25.15   18.45
  -4  -6   8    4.01   21.02
   4  -6   8   -2.80    7.88
  -4   6   8    2.50    6.40
   4  -6  -8   -6.21    6.63
  -4   6  -8  -15.60    9.81
   4  -6   9   16.32   24.73
   4   6  -9   11.29   22.61
  -4  -6  -9    0.38   18.67
   4   6   9   16.59   21.59
  -4  -6   9   47.72   25.34
  -4   6  -9  -17.84   22.12
   4  -6   9    0.95    8.03
  -4   6   9   18.98    7.76
   4  -6  -9   10.45    7.08
  -4   6  -9   15.91    7.92
   4  -6  10   22.01   24.24
   4   6 -10  -39.05   24.28
  -4  -6 -10   38.10   21.97
   4   6  10    3.79   20.72
  -4  -6  10   24.73   26.10
  -4   6 -10   -4.92   23.79
  -4   6  10   -0.15    6.74
   4  -6 -10   15.23    7.61
  -4   6 -10   -0.42    7.12
   4  -6  11   13.52   23.10
   4   6 -11    2.65   24.20
  -4  -6 -11   10.98   20.91
   4   6  11   35.22   22.08
  -4  -6  11  -17.23   27.65
  -4   6 -11  -13.79   20.04
  -4   6  11  -11.02    7.20
   4  -6 -11   -2.76    7.20
  -4   6 -11   10.91    7.69
   4  -7   0  427.23   90.48
  -4   7   0  433.67   91.92
   4  -7   1  -15.87   10.49
  -4   7   1    2.73    9.85
   4  -7  -1   23.94   10.19
  -4   7  -1   -3.90   14.66
   4   7  -2  266.15   56.06
  -4  -7   2  234.14   50.71
   4  -7   2  353.11   75.41
  -4   7   2  436.32   92.45
   4  -7  -2  353.68   75.22
  -4   7  -2  373.30   79.88
   4   7  -3    6.78   20.11
  -4  -7   3   50.56   22.57
   4  -7   3    4.58   11.48
  -4   7   3   10.26    9.09
   4  -7  -3   -7.35    8.94
  -4   7  -3   -2.31   11.97
  -4  -7   4    1.02   22.57
   4  -7   4   10.45   10.98
  -4   7   4   15.91    9.51
  -4   7  -4    9.43   12.27
   4   7  -5   -1.36   23.33
  -4  -7   5  -18.67   21.82
   4  -7   5   -0.11    9.32
  -4   7   5   -6.67    7.73
   4  -7  -5   10.87    7.95
  -4   7  -5    0.83   10.57
   4   7  -6   26.63   21.89
  -4  -7  -6   61.21   21.93
  -4  -7   6   76.62   26.89
   4  -7   6   52.23   14.77
  -4   7   6   44.05   12.42
  -4   7  -6   62.30   17.27
   4   7  -7   -9.43   16.59
  -4  -7  -7   -6.06   16.51
   4   7   7   15.60   15.15
  -4  -7   7   -2.84   19.88
   4  -7   7    4.51    8.67
  -4   7   7    9.54    7.61
   4  -7  -7   11.78    7.92
  -4   7  -7    3.60    9.85
   4   7  -8  136.69   35.22
  -4  -7  -8  102.11   28.33
   4   7   8   77.83   24.35
  -4  -7   8  144.38   36.97
   4  -7   8  130.56   29.16
  -4   7   8  130.14   28.78
   4  -7  -8   79.27   18.67
  -4   7  -8  133.81   30.26
   4   7  -9    5.57   21.25
  -4  -7  -9   55.26   23.44
   4   7   9  -16.02   22.08
  -4  -7   9   -1.78   24.96
  -4   7  -9   43.29   21.97
   4  -7   9    1.17    8.37
  -4   7   9    9.28    7.23
   4  -7  -9    8.90    7.35
  -4   7  -9    3.14    7.50
   4  -7  10   84.39   30.79
   4   7 -10   59.05   27.72
  -4  -7 -10   33.44   24.92
   4   7  10   49.99   23.03
  -4  -7  10   59.96   28.67
  -4   7 -10    5.42   21.78
   4  -7  10  108.17   24.92
  -4   7  10   81.09   19.28
   4  -7 -10   44.16   12.54
  -4   7 -10   76.62   18.48
   4  -7  11   -0.04    7.84
  -4   7  11   -5.91    6.82
   4  -7 -11    3.79    7.01
  -4   7 -11    2.54    7.04
   4  -8   0   16.06   10.04
  -4   8   0   16.82   11.29
   4  -8   1  219.03   47.53
  -4   8   1  156.31   35.11
  -4   8  -1  224.94   49.05
  -4  -8   2   33.52   19.35
   4  -8   2   21.21   10.15
  -4   8   2   28.33   12.04
   4  -8  -2    9.66    9.62
  -4   8  -2   28.25   12.01
   4   8  -3  628.72  126.12
  -4  -8   3  715.46  143.47
   4  -8   3  908.62  190.97
  -4   8   3  709.40  149.38
   4  -8  -3  633.27  133.59
  -4   8  -3  544.64  115.10
   4   8  -4   12.69   22.84
  -4  -8   4   46.47   25.98
   4  -8   4   -4.47   10.26
  -4   8   4   30.15   10.87
   4  -8  -4   -8.64    8.56
  -4   8  -4    7.01    9.81
  -4  -8   5  185.85   43.22
   4  -8   5  196.12   42.95
  -4   8   5  272.74   58.52
   4  -8  -5  270.69   58.06
  -4   8  -5  244.33   53.10
   4   8  -6  -28.44   22.54
  -4  -8   6   17.27   20.07
   4  -8   6    9.32    9.47
  -4   8   6    6.29    8.18
   4  -8  -6   21.21    9.32
  -4   8  -6   21.66   11.85
   4  -8   7  872.64  183.39
  -4   8   7  805.60  169.45
   4  -8  -7  792.34  166.65
  -4   8  -7  881.35  185.32
   4   8  -8  -10.34   19.39
  -4  -8  -8    1.86   18.10
   4   8   8   27.72   18.48
  -4  -8   8   -7.42   21.40
   4  -8   8  -12.20    8.56
  -4   8   8    3.52    7.01
   4  -8  -8   -3.94    7.27
  -4   8  -8    7.42    7.76
   4   8  -9   -1.36   22.38
  -4  -8  -9   40.64   22.35
   4   8   9   37.46   20.98
  -4  -8   9  -11.67   25.60
   4  -8   9   18.10    9.47
  -4   8   9   15.76    8.11
   4  -8  -9   13.14    7.76
  -4   8  -9   28.44    9.77
   4   8 -10    9.85   23.37
  -4  -8 -10   37.12   23.97
   4   8  10   27.57   20.68
  -4  -8  10   -5.95   23.14
  -4   8 -10   13.60   19.13
   4  -8  10    2.08    9.81
  -4   8  10   18.41    9.36
   4  -8 -10   -2.05    8.67
  -4   8 -10   10.23    9.13
   4  -8  11   13.29    8.64
  -4   8  11   -0.57    6.86
   4  -8 -11    5.68    7.31
  -4   8 -11    5.26    7.08
   4  -9   0    0.49    9.54
  -4   9   0   -0.08   10.45
   4  -9   1   17.16    9.92
  -4   9   1   -0.64   10.34
   4  -9  -1    8.14    9.47
  -4   9  -1    4.28   10.07
   4  -9   2   20.11   10.15
  -4   9   2   -1.33    9.09
   4  -9  -2   -7.01    8.94
  -4   9  -2   36.40   12.99
   4   9  -3  -11.32   17.99
  -4  -9   3  -23.63   21.93
   4  -9   3   12.57    8.56
  -4   9   3    5.57    8.64
   4  -9  -3    5.87    8.18
  -4   9  -3    4.01    8.37
   4   9  -4   29.39   19.85
  -4  -9   4   22.12   21.55
   4  -9   4   35.64   11.44
  -4   9   4    5.34    8.29
   4  -9  -4   31.59   10.95
  -4   9  -4   20.34    9.66
   4   9  -5   -0.80   18.90
  -4  -9   5  -15.76   19.62
   4  -9   5   -0.45    7.65
  -4   9   5    2.58    8.22
   4  -9  -5   -9.62    8.33
  -4   9  -5    6.82    8.71
  -4  -9   6  -19.47   20.83
   4  -9   6   12.01    9.17
  -4   9   6   19.62    8.98
   4  -9  -6   -4.32    7.84
  -4   9  -6   11.32    8.56
   4   9  -7   21.89   21.70
  -4  -9   7  -17.50   22.80
   4  -9   7    9.73    8.75
  -4   9   7   13.86    8.48
   4  -9  -7   -3.86    7.50
  -4   9  -7   -1.21    7.88
   4   9  -8   36.02   23.71
  -4  -9   8    8.41   21.66
   4  -9   8    1.14    8.86
  -4   9   8    0.34    7.39
   4  -9  -8    4.20    7.61
  -4   9  -8   -4.55    7.54
   4   9  -9   17.88   21.21
  -4  -9  -9  -11.36   18.48
  -4  -9   9    3.75   23.29
   4  -9   9   -4.77    9.05
  -4   9   9    7.80    7.99
   4  -9  -9  -12.12    8.14
  -4   9  -9    1.55    8.22
   4  -9  10  -28.60   23.14
   4   9 -10  -18.26   22.46
  -4  -9 -10   35.75   20.91
   4   9  10  -21.89   17.35
  -4  -9  10  -17.91   21.55
   4  -9  10   19.96   10.30
  -4   9  10    3.03    8.14
   4  -9 -10   13.45    8.82
  -4   9 -10    8.86    8.67
  -4   9  11   -4.28    6.63
   4  -9 -11    3.11    6.86
  -4   9 -11  -13.90    7.12
   4 -10   0   22.46   10.15
  -4  10   0   15.11   10.34
   4 -10   1   10.57    8.64
  -4  10   1   -3.56    8.48
   4 -10  -1    8.67    8.29
  -4  10  -1    8.29    9.47
   4 -10   2    4.24    7.80
  -4  10   2   46.70   13.52
   4 -10  -2    3.14    8.71
  -4  10  -2    2.42    8.94
   4 -10   3   23.90   10.07
  -4  10   3   38.78   12.35
   4 -10  -3   33.78   11.48
  -4  10  -3   29.01   11.25
   4  10  -4  -15.26   17.23
  -4 -10   4    7.16   18.18
   4 -10   4   18.67    9.20
  -4  10   4    3.26    8.67
   4 -10  -4   13.41    9.05
  -4  10  -4   -3.30    8.67
   4  10  -5   66.62   23.71
  -4 -10   5   32.12   17.84
   4 -10   5   86.32   20.49
  -4  10   5   77.95   19.16
   4 -10  -5   82.45   19.96
  -4  10  -5   60.30   15.87
   4  10  -6    9.54   15.87
  -4 -10   6  -20.00   20.68
   4 -10   6    7.01    7.42
  -4  10   6   11.17    8.11
   4 -10  -6   -3.07    7.54
  -4  10  -6    1.51    7.80
  -4 -10   7   18.56   21.70
   4 -10   7   17.61    8.22
  -4  10   7   10.60    8.14
   4 -10  -7    3.94    7.65
  -4  10  -7   15.64    7.73
   4  10  -8  -17.04   21.63
  -4 -10   8  -30.53   24.35
   4 -10   8    5.04    7.12
  -4  10   8   -8.14    7.69
   4 -10  -8    1.93    7.84
  -4  10  -8    4.70    6.93
   4  10  -9   25.64   21.70
  -4 -10   9   86.13   28.90
   4 -10   9   60.75   16.66
  -4  10   9   64.77   17.35
   4 -10  -9   94.73   22.91
  -4  10  -9   69.61   17.35
   4 -10  10    1.78    8.67
  -4  10  10   -5.76    7.76
   4 -10 -10    1.17    7.84
  -4  10 -10   -1.89    6.67
   4 -11   0   21.55    9.85
  -4  11   0   20.57   10.11
   4 -11   1   -5.42    8.26
  -4  11   1   -6.86    8.75
   4 -11  -1   -9.39    8.41
  -4  11  -1    0.83    9.62
   4 -11   2    9.01    8.48
  -4  11   2   22.91   10.15
   4 -11  -2   10.53    8.86
  -4  11  -2   11.29    9.77
   4 -11   3   -7.31    8.52
  -4  11   3   -3.03    8.79
   4 -11  -3   -3.98    8.64
  -4  11  -3  -10.57    9.24
   4 -11   4   -3.90    7.65
  -4  11   4   -2.80    8.67
   4 -11  -4    9.05    8.60
  -4  11  -4    7.57    9.01
   4  11  -5   -1.17   20.38
  -4 -11   5   15.76   20.23
   4 -11   5    0.68    7.42
  -4  11   5  -11.02    8.67
   4 -11  -5   -3.11    8.75
  -4  11  -5   -6.82    8.11
   4  11  -6    0.00   18.63
  -4 -11   6  -23.56   23.18
   4 -11   6    6.93    7.31
  -4  11   6    3.64    7.73
   4 -11  -6   11.06    8.14
  -4  11  -6   11.67    8.52
   4  11  -7   13.22   20.68
  -4 -11   7  -15.53   24.35
   4 -11   7   -1.70    7.35
  -4  11   7   -2.16    8.14
   4 -11  -7    3.83    8.03
  -4  11  -7   -9.24    7.04
  -4 -11   8   45.72   25.57
   4 -11   8   27.35   10.45
  -4  11   8   37.88   12.39
   4 -11  -8   27.27   10.79
  -4  11  -8    3.22    8.22
   4  11  -9   13.56   20.79
  -4 -11   9   13.48   24.43
   4 -11   9    4.92    7.50
  -4  11   9   20.30   10.11
   4 -11  -9    3.45    8.71
  -4  11  -9    5.79    7.54
  -4  11  10    5.57    7.65
   4 -11 -10    4.17    7.50
  -4  11 -10    8.60    6.78
   4 -12   0   22.80   10.11
  -4  12   0   18.52   10.23
   4 -12   1  397.31   84.57
  -4  12   1  392.76   83.78
   4 -12  -1  372.99   79.54
  -4  12  -1  461.32   97.94
   4 -12   2   -1.21    8.37
  -4  12   2   10.23    9.36
   4 -12  -2    5.11    8.60
  -4  12  -2    9.73    7.76
   4 -12   3   60.11   15.95
  -4  12   3   78.78   19.58
   4 -12  -3   74.12   18.63
  -4  12  -3   85.67   20.64
   4 -12   4   14.58    8.75
  -4  12   4   13.63    9.36
   4 -12  -4   -5.68    8.07
  -4  12  -4   14.17    7.80
  -4 -12   5   81.13   27.57
   4 -12   5   45.26   13.07
  -4  12   5   54.12   14.96
   4 -12  -5   77.26   19.01
  -4  12  -5   69.54   17.08
   4  12  -6   20.19   20.30
  -4 -12   6   -6.36   23.44
   4 -12   6    5.91    7.84
  -4  12   6   -6.29    8.79
   4 -12  -6   -7.99    8.67
  -4  12  -6   -5.57    6.63
   4  12  -7  304.51   65.07
  -4 -12   7  384.05   80.37
   4 -12   7  598.80  126.35
  -4  12   7  411.32   87.45
  -4  12  -7  623.04  131.43
   4  12  -8   -2.84   19.81
  -4 -12   8   26.89   23.41
   4 -12   8   -1.33    8.48
  -4  12   8   -9.01    9.39
   4 -12  -8    1.21    9.43
  -4  12  -8    7.12    8.45
   4 -12   9   29.01    9.89
  -4  12   9   37.76   12.31
   4 -12  -9   45.90   13.48
  -4  12  -9   28.86    9.85
   4 -13   0  685.54  144.68
  -4  13   0  615.47  130.14
   4 -13   1   27.99   10.68
  -4  13   1   15.38    9.36
   4 -13  -1   19.24    9.77
  -4  13  -1   34.09   11.17
   4 -13   2  828.33  174.45
  -4  13   2  923.39  194.45
   4 -13  -2  700.69  147.86
  -4  13  -2  983.99  206.99
   4 -13   3   18.37    9.05
  -4  13   3    2.88    8.45
   4 -13  -3    5.08    8.22
  -4  13  -3    1.29    7.16
   4 -13   4  139.76   31.44
  -4  13   4  123.32   28.41
   4 -13  -4  139.23   31.47
  -4  13  -4  141.27   31.47
   4 -13   5    6.82    8.14
  -4  13   5   -1.93    8.64
   4 -13  -5   15.38    9.54
  -4  13  -5   -2.16    6.89
   4  13  -6  472.68   96.62
  -4 -13   6  451.09   93.55
   4 -13   6  557.52  117.87
  -4  13   6  601.83  127.30
   4 -13  -6  644.63  136.16
  -4  13  -6  539.34  113.97
   4  13  -7    7.99   19.47
  -4 -13   7   35.64   24.13
   4 -13   7   11.82    9.32
  -4  13   7   12.57   10.07
   4 -13  -7    1.89    9.32
  -4  13  -7    5.42    8.29
   4  13  -8   24.92   22.01
  -4 -13   8   90.45   29.58
   4 -13   8   78.10   19.13
  -4  13   8   90.29   22.19
   4 -13  -8   91.96   22.38
  -4  13  -8   56.09   14.92
  -4  13   9   -5.38    7.80
   4 -13  -9  -12.42    7.76
  -4  13  -9    5.19    6.93
   4 -14   0   -4.77    8.07
  -4  14   0  -13.07    8.86
   4 -14   1   -3.56    8.18
  -4  14   1    4.09    8.52
   4 -14  -1    6.29    8.22
  -4  14  -1    3.67    7.27
   4 -14   2    7.69    8.29
  -4  14   2   -1.29    8.60
   4 -14  -2    0.42    8.60
  -4  14  -2   -4.62    7.42
   4 -14   3    9.17    8.67
  -4  14   3   -2.99    9.09
   4 -14  -3   12.23    9.17
  -4  14  -3   -8.07    7.23
   4 -14   4   17.20    9.05
  -4  14   4    9.58    9.39
   4 -14  -4  -10.72    8.82
  -4  14  -4    3.26    7.39
   4 -14   5   -1.06    8.11
  -4  14   5    8.79    9.32
   4 -14  -5   -3.11    8.86
  -4  14  -5    6.17    7.61
   4 -14   6   10.83    9.24
  -4  14   6    6.21    9.96
   4 -14  -6    4.96    9.73
  -4  14  -6   13.22    8.75
   4  14  -7   32.31   19.32
  -4 -14   7   34.84   22.42
   4 -14   7    9.96    8.79
  -4  14   7    8.64    9.92
   4 -14  -7   11.74    9.81
  -4  14  -7   24.92   10.07
   4 -14   8  -11.85    7.69
  -4  14   8   -0.04    8.22
   4 -14  -8   -1.70    7.69
  -4  14  -8   -1.21    7.01
   4 -15   0  142.52   32.19
  -4  15   0  111.81   25.98
   4 -15   1    1.33    8.75
  -4  15   1    4.09    8.94
   4 -15  -1   -7.99    8.86
  -4  15  -1    8.37    8.52
   4 -15   2    6.74    8.86
  -4  15   2    8.45    9.81
   4 -15  -2   20.53    9.62
  -4  15  -2   16.06    9.01
   4 -15   3   -2.92    8.41
  -4  15   3    4.55    9.28
   4 -15  -3   -0.95    8.75
  -4  15  -3    6.29    8.14
   4 -15   4    8.22    8.90
  -4  15   4    1.82    9.20
   4 -15  -4    2.46    9.20
  -4  15  -4  -13.56    8.18
   4 -15   5   14.09   10.11
  -4  15   5    2.99   10.42
   4 -15  -5  -12.84   10.00
  -4  15  -5    9.89    8.67
   4 -15   6   63.36   16.93
  -4  15   6   60.22   16.89
   4 -15  -6   12.50   10.04
  -4  15  -6   50.79   14.20
   4 -15   7    6.89    7.92
  -4  15   7  -10.26    9.54
   4 -15  -7    6.89    8.56
  -4  15  -7    1.86    6.67
   4 -16   0   22.80   10.42
  -4  16   0   27.19   10.87
   4 -16   1   89.31   21.89
  -4  16   1  109.19   26.13
   4 -16  -1  111.81   26.36
  -4  16  -1  151.84   34.16
   4 -16   2    6.44    9.81
   4 -16  -2   21.85   11.25
  -4  16  -2   13.26    9.36
   4 -16   3  114.34   27.12
  -4  16   3  140.10   32.50
   4 -16  -3  124.87   29.24
  -4  16  -3   86.92   21.32
   4 -16   4    6.93   10.15
  -4  16   4    2.05   10.64
   4 -16  -4  -11.74   10.42
  -4  16  -4   -4.28    8.75
   4 -16   5    9.62    9.13
  -4  16   5    5.53   10.34
   4 -16  -5   12.92   10.49
  -4  16  -5   18.37    9.05
   4 -16   6    2.23    7.99
  -4  16   6   18.63   10.26
   4 -16  -6   10.34    8.98
  -4  16  -6   -5.61    6.93
   4 -17   0  -15.53   10.26
  -4  17   0   -0.64    9.66
   4 -17   1   14.58   11.25
  -4  17   1    6.14   11.02
   4 -17  -1   -5.49   10.15
  -4  17  -1   -2.31    9.17
   4 -17   2    2.50    9.51
  -4  17   2   -2.23   10.53
   4 -17  -2    6.02    8.75
  -4  17  -2   12.54    9.89
   4 -17   3   12.61   10.11
  -4  17   3   21.74   11.21
   4 -17  -3    2.99    9.47
  -4  17  -3    3.30    8.22
   4 -17   4    2.01    8.67
  -4  17   4    9.58   10.04
   4 -17  -4    2.95    9.13
  -4  17  -4    7.69    7.54
   4 -17   5   -5.53    7.95
  -4  17   5  -13.33    9.81
   4 -17  -5    4.92    8.64
  -4  17  -5   -3.60    6.78
   4 -18   0   17.54    9.62
  -4  18   0   11.29    8.60
   4 -18   1   46.43   14.32
  -4  18   1   40.03   13.63
   4 -18  -1   50.49   15.07
  -4  18  -1   22.35   10.19
   4 -18   2   17.50    9.70
  -4  18   2   22.01   11.36
   4 -18  -2    2.27    7.16
  -4  18  -2    3.79    7.88
   4 -18   3   21.55   10.30
  -4  18   3    8.52   10.23
   4 -18  -3   -4.77    8.71
  -4  18  -3   13.26    8.64
   5   0   5  566.23  113.74
   5   0  -5  582.14  117.26
  -5   0  -5  630.62  126.43
   5   0   6   41.62   22.16
  -5   0   6   19.20   23.37
   5   0  -6   61.17   29.47
  -5   0  -6   54.16   23.63
   5   0   7   14.54   21.51
  -5   0   7    8.75   23.75
   5   0  -7   31.59   21.74
  -5   0  -7   39.01   20.76
   5   0   8   18.26   18.07
  -5   0   8  -30.07   20.87
   5   0  -8    9.32   18.56
  -5   0  -8    4.92   17.54
   5   0   9  890.06  177.82
  -5   0   9  866.20  173.69
   5   0  -9  873.40  174.53
  -5   0  -9 1025.28  204.07
   5   0  10  -17.57   19.39
  -5   0  10   22.04   23.18
   5   0 -10  -16.10   21.70
  -5   0 -10  -41.78   22.23
   5   0  11  506.77  103.89
  -5   0  11  495.78  104.08
   5   0 -11  488.21  100.14
  -5   0 -11  438.59   91.32
   5   1  -4  223.35   49.84
  -5  -1  -4  174.34   39.16
   5   1   4  238.65   51.43
  -5  -1   4  233.95   51.74
   5   1  -5   26.29   24.39
  -5  -1  -5   24.32   20.49
   5   1   5   -5.61   20.45
  -5  -1   5   -5.19   24.16
   5  -1   6   40.11   22.54
   5   1  -6  -10.19   23.67
  -5  -1  -6  -10.07   20.53
   5   1   6    3.11   19.01
  -5  -1   6   49.05   26.10
  -5   1  -6   32.42   24.13
   5  -1   7    3.03   19.92
  -5   1   7   -2.92   21.02
   5   1  -7   29.39   23.56
  -5  -1  -7   -2.69   17.95
   5   1   7  -16.82   20.30
  -5  -1   7    0.80   25.87
   5  -1  -7    3.94   20.34
  -5   1  -7   -4.92   17.91
   5  -1   8   35.53   21.63
  -5   1   8  -27.42   20.26
   5   1  -8  -31.63   20.49
  -5  -1  -8   11.70   16.89
   5   1   8   14.01   16.06
  -5  -1   8  -43.40   21.97
   5  -1  -8   34.73   18.48
  -5   1  -8  -16.06   18.14
   5  -1   9   21.21   21.32
  -5   1   9   20.49   23.48
   5   1  -9   -5.38   19.73
  -5  -1  -9    8.60   17.95
   5   1   9   13.79   20.07
  -5  -1   9  -19.81   22.84
   5  -1  -9   11.06   20.72
  -5   1  -9   31.81   20.00
   5  -1  10  189.94   45.15
  -5   1  10  168.09   42.84
   5   1 -10  121.96   33.90
  -5  -1 -10  204.22   46.74
   5   1  10  184.79   43.37
  -5  -1  10  108.59   33.67
   5  -1 -10  111.01   32.84
  -5   1 -10  180.44   42.76
   5  -1  11  -19.88   22.99
   5   1 -11    7.95   23.10
  -5  -1 -11   28.10   23.52
   5   1  11    5.95   23.44
  -5  -1  11  -24.16   26.59
   5  -1 -11   31.81   22.01
  -5   1 -11   20.45   22.50
   5   2  -3  342.50   72.27
  -5  -2   3  281.18   60.18
   5   2  -4   35.72   23.33
   5   2   4   31.02   18.60
  -5  -2   4   59.62   25.22
   5   2  -5   22.65   23.94
  -5  -2  -5   25.30   22.88
   5   2   5   -6.36   20.53
  -5  -2   5   18.60   21.82
   5  -2   6   14.43   20.91
   5   2  -6   -6.70   23.52
  -5  -2  -6   -7.46   20.49
   5   2   6   11.63   19.16
  -5  -2   6   25.53   24.66
   5  -2   7   -5.53   20.26
   5   2  -7   -3.52   23.18
  -5  -2  -7   17.38   19.62
   5   2   7  -15.53   18.82
  -5  -2   7  -13.48   22.23
  -5   2  -7  -17.50   19.09
   5  -2   8  -20.15   20.15
   5   2  -8   22.38   18.56
  -5  -2  -8   -5.61   18.63
   5   2   8    4.24   18.26
  -5  -2   8  -20.30   21.48
   5  -2  -8   13.33   15.72
  -5   2  -8   -2.20   17.54
   5  -2   9   41.25   21.93
  -5   2   9  -36.47   22.99
   5   2  -9   11.14   20.04
  -5  -2  -9   40.90   21.32
   5   2   9    8.56   21.74
  -5  -2   9  -34.88   24.16
   5  -2  -9  -30.22   22.08
  -5   2  -9   -5.45   19.39
   5  -2  10   -9.81   22.01
   5   2 -10   -9.54   24.47
  -5  -2 -10  -38.06   22.38
   5   2  10  -14.81   24.39
  -5  -2  10   10.83   27.31
   5  -2 -10   12.76   22.27
  -5   2 -10   21.44   21.85
   5  -2  11   87.57   28.94
  -5   2  11   51.78   28.29
   5   2 -11   27.08   23.52
  -5  -2 -11  112.03   31.74
   5   2  11   34.58   27.38
  -5  -2  11   21.29   27.50
   5  -2 -11   80.11   26.85
  -5   2 -11  100.82   30.49
  -5   2  12    7.39    6.82
   5  -2 -12    1.25    5.30
  -5  -3   1  -39.01   18.56
  -5  -3   2   64.92   25.38
   5   3  -3   11.78   19.54
  -5  -3  -3   11.14   16.17
   5   3   3    6.02   13.07
  -5  -3   3   18.98   23.56
   5   3  -4  197.14   45.53
  -5  -3  -4  157.26   35.03
   5   3   4  249.10   52.15
  -5  -3   4  171.54   41.97
   5   3  -5   34.01   28.71
  -5  -3  -5  -11.70   21.55
   5   3   5   10.68   20.23
  -5  -3   5   35.30   25.11
   5   3  -6  361.82   76.51
  -5  -3  -6  365.99   75.79
   5   3   6  360.42   74.61
  -5  -3   6  384.43   80.52
  -5   3   6  323.57   68.78
   5  -3  -6  316.82   67.38
   5  -3   7  -12.16   18.75
   5   3  -7  -12.73   22.50
  -5  -3  -7   -0.30   19.96
   5   3   7  -13.22   17.99
  -5  -3   7  -18.67   21.82
  -5   3  -7   26.32   19.96
  -5   3   7    5.76    8.37
   5  -3  -7    5.30    7.12
   5  -3   8   34.01   19.69
   5   3  -8   19.69   18.86
  -5  -3  -8  -15.23   18.10
   5   3   8   12.73   17.91
  -5  -3   8  -37.80   22.91
  -5   3  -8   24.13   19.24
  -5   3   8    4.05    7.88
   5  -3  -8   19.24    8.03
   5  -3   9  -20.15   20.19
   5   3  -9   45.45   23.71
  -5  -3  -9   40.79   20.76
   5   3   9  -18.29   19.62
  -5  -3   9   -2.12   24.09
  -5   3  -9   -8.79   17.69
  -5   3   9   -1.82    7.35
   5  -3  -9   -8.64    6.40
   5  -3  10   48.06   22.69
  -5   3  10   58.55   26.36
   5   3 -10   51.96   27.12
  -5  -3 -10   30.87   22.72
   5   3  10   67.72   27.72
  -5  -3  10   66.74   28.44
   5  -3 -10  -26.89   22.80
  -5   3 -10   53.14   24.20
   5  -3  11   31.47   23.67
  -5   3  11   14.62   25.64
   5   3 -11   61.09   25.11
  -5  -3 -11   -3.79   22.80
   5   3  11    0.83   22.01
  -5  -3  11   25.53   27.23
   5  -3 -11   51.51   23.75
  -5   3 -11   36.55   21.63
  -5   3  11   20.83    9.39
   5  -3 -11   15.23    7.80
   5  -3 -12    6.17    5.98
   5   4   0  -15.15   13.22
  -5  -4   0  -12.88   13.98
   5   4  -1   58.90   19.81
  -5  -4   1  114.16   27.50
  -5   4   1   26.10   15.45
  -5  -4  -2   -4.92    8.18
   5   4   2   -4.77    8.03
  -5  -4   2   15.38   20.26
  -5   4   2   15.42   12.84
   5  -4  -2   -7.08    9.66
  -5  -4  -3  -19.05   13.03
   5   4   3  -11.74   12.35
  -5  -4   3  -45.37   23.75
  -5   4   3   78.40   20.07
   5   4  -4    7.27   23.86
  -5  -4  -4  -12.16   15.64
   5   4   4   13.03   16.82
  -5  -4   4   14.88   22.69
  -5   4   4   27.12   12.31
   5  -4  -4   -1.89    9.36
   5   4  -5   57.30   26.17
  -5  -4  -5   24.16   18.45
   5   4   5   23.26   19.77
  -5  -4   5   77.95   30.15
  -5   4   5    4.92   10.38
   5  -4  -5   35.53   11.82
   5   4  -6   -0.91   24.62
  -5  -4  -6   10.00   17.46
   5   4   6   -4.66   19.28
  -5  -4   6  -24.88   24.01
  -5   4   6    3.41    8.75
   5  -4  -6   -8.07    7.42
   5   4  -7   13.33   19.96
  -5  -4  -7    6.55   15.76
   5   4   7   40.53   17.65
  -5  -4   7   31.36   21.32
  -5   4   7    8.07    8.94
   5  -4  -7    9.05    7.69
   5  -4   8  -10.53   19.28
   5   4  -8    0.68   19.81
  -5  -4  -8   -2.50   20.34
   5   4   8   12.50   16.85
  -5  -4   8   -2.05   21.02
  -5   4  -8   11.44   17.95
  -5   4   8    3.60    8.22
   5  -4  -8   -1.06    6.74
   5  -4   9  -19.88   22.80
   5   4  -9  -25.41   21.29
  -5  -4  -9   12.01   21.44
   5   4   9   24.24   20.87
  -5  -4   9   17.57   22.69
  -5   4  -9  -34.24   18.98
  -5   4   9    0.11    7.73
   5  -4  -9    8.14    6.74
   5  -4  10   -0.91   23.52
   5   4 -10   32.65   25.30
  -5  -4 -10    7.61   21.13
   5   4  10    7.80   23.90
  -5  -4  10   38.90   29.05
  -5   4 -10   14.70   21.36
  -5   4  10   -3.60    7.80
   5  -4 -10   -1.06    6.59
   5  -4  11   17.08   22.65
   5   4 -11   -3.14   22.95
  -5  -4 -11   17.35   19.58
   5   4  11    4.28   20.07
  -5  -4  11   25.53   26.51
   5  -4 -11  -10.15   17.65
  -5   4 -11   30.49   21.17
  -5   4  11   20.26   10.00
   5  -4 -11   10.68    7.92
  -5   4  12   11.29    7.54
   5  -4 -12    1.55    5.91
   5   5   0   37.50   14.13
  -5  -5   0   -2.73   13.98
   5  -5   0    9.09   10.00
  -5   5   0   27.12   14.35
   5   5  -1    3.86   15.38
  -5  -5   1  -10.91   19.58
   5  -5   1    1.78   10.64
  -5   5   1  -10.49   12.65
   5  -5  -1    0.98    9.92
  -5   5  -1   -0.61   12.76
   5   5  -2 1116.18  221.00
  -5  -5   2  965.43  191.50
   5  -5   2 1188.90  249.41
  -5   5   2 1068.83  224.52
   5  -5  -2 1055.95  221.61
  -5   5  -2  926.04  194.68
  -5  -5  -3   -2.23   11.25
   5   5   3    0.11   11.93
  -5  -5   3    9.92   21.48
  -5   5   3    3.45   11.21
   5  -5  -3   20.38   10.83
  -5   5  -3   10.45   13.18
   5   5  -4   50.11   22.42
  -5  -5  -4   72.45   20.72
   5   5   4   59.77   19.69
  -5  -5   4  114.91   32.91
  -5   5   4   57.57   17.08
   5  -5  -4   61.05   16.63
   5   5  -5   77.83   29.69
  -5  -5  -5  -10.07   13.82
   5   5   5   30.22   19.62
   5   5  -6  -17.54   23.75
  -5  -5  -6    0.27   16.97
   5   5   6  -33.29   18.45
  -5  -5   6   -1.51   24.05
  -5   5   6  -13.86    9.58
   5  -5  -6   -4.51    7.88
   5   5  -7   -0.45   20.68
  -5  -5  -7   26.97   18.22
   5   5   7   28.67   17.01
  -5  -5   7   41.25   20.83
  -5   5   7    7.04    9.43
   5  -5  -7    2.31    7.92
   5   5  -8  -11.44   20.64
  -5  -5  -8  -11.21   17.61
   5   5   8  -31.74   18.52
  -5  -5   8    8.71   21.55
  -5   5   8   -7.20    8.29
   5  -5  -8   -4.36    7.16
   5  -5   9    5.91   22.69
   5   5  -9    6.33   22.84
  -5  -5  -9    2.84   18.48
   5   5   9  -17.42   21.74
  -5  -5   9  -21.02   22.65
  -5   5  -9   -1.29   20.94
  -5   5   9    0.00    8.14
   5  -5  -9    2.39    6.97
  -5   5  10  830.60  174.53
   5  -5 -10  702.96  147.79
   5  -5  11   -7.92   24.54
   5   5 -11   20.26   23.41
  -5  -5 -11   -3.22   19.43
   5   5  11   16.10   19.96
  -5  -5  11   30.57   27.04
  -5   5 -11   17.76   22.61
  -5   5  11   -2.84    6.93
   5  -5 -11    3.64    7.54
  -5  -6   0   -3.67   14.51
   5  -6   0   -7.69    9.89
  -5   6   0   -9.24   13.26
   5  -6   1   91.13   22.04
  -5   6   1  104.50   26.13
   5  -6  -1   66.39   17.65
  -5   6  -1   99.16   25.11
   5   6  -2  -15.45   20.26
  -5  -6   2   30.64   18.07
   5  -6   2    0.42   10.87
  -5   6   2   -6.36   13.22
   5  -6  -2    1.82   10.04
  -5   6  -2   -8.26   12.76
   5   6  -3   88.67   27.61
  -5  -6   3   90.79   27.00
   5  -6   3   30.30   13.37
  -5   6   3   32.50   12.46
   5  -6  -3   37.95   13.14
  -5   6  -3   35.26   15.53
  -5  -6  -4  -12.50   15.87
   5   6   4  -20.34   15.26
  -5  -6   4  -34.05   25.49
   5  -6   4   -7.31   11.06
  -5   6   4   11.32   11.74
   5  -6  -4   -2.92    9.96
  -5   6  -4   -0.30   12.46
   5   6  -5   18.67   21.36
   5   6   5  -19.20   15.30
  -5  -6   5   -4.36   22.91
   5  -6   5   17.16   10.42
  -5   6   5   -7.27   10.07
   5  -6  -5   -7.01    8.71
  -5   6  -5    6.36   11.14
   5   6  -6    6.06   23.14
  -5  -6  -6   -7.95   17.69
   5   6   6  -19.92   17.27
  -5  -6   6   24.66   20.72
   5  -6   6    3.75    8.90
  -5   6   6  -16.44    9.92
   5  -6  -6   -4.73    7.88
  -5   6  -6   11.63   10.72
   5   6  -7    5.04   17.42
  -5  -6  -7   34.13   18.18
   5   6   7    7.84   15.91
  -5  -6   7   28.07   20.91
  -5   6   7   19.96   10.53
   5  -6  -7   34.13   11.29
  -5   6  -7   23.48   11.40
   5   6  -8  -14.54   21.66
  -5  -6  -8   -7.42   18.29
   5   6   8   28.86   17.27
  -5  -6   8   -8.60   21.74
  -5   6   8   -8.18    7.16
   5  -6  -8    3.33    7.42
   5  -6   9    2.01   22.84
   5   6  -9   10.42   21.25
  -5  -6  -9  -18.33   20.94
   5   6   9   26.02   22.91
  -5  -6   9   -7.12   25.07
  -5   6   9    6.70    6.89
   5  -6  -9  -11.44    7.61
   5   6 -10  -57.68   26.13
  -5  -6 -10  -21.89   23.79
   5   6  10  -47.91   22.76
  -5  -6  10   -7.01   25.00
  -5   6 -10   19.73   21.97
  -5   6  10   -0.57    7.27
   5  -6 -10   -1.29    7.42
   5  -6  11   62.87   28.03
   5   6 -11   42.00   22.54
  -5  -6 -11   59.65   23.97
   5   6  11  -20.04   20.45
  -5  -6  11   41.28   27.16
  -5   6 -11   28.03   22.84
  -5   6  11   40.72   11.48
   5  -6 -11   60.71   15.11
   5  -7   0   -8.64   10.30
  -5   7   0   -7.76   13.94
   5   7  -1    5.08   17.01
  -5  -7   1    7.20   17.04
   5  -7   1   13.90   10.79
  -5   7   1   20.45   14.24
   5  -7  -1   16.48   11.02
  -5   7  -1    1.44   13.52
   5   7  -2   25.53   18.67
  -5  -7   2   24.51   19.32
   5  -7   2   19.39   12.31
  -5   7   2    0.72   13.98
   5  -7  -2   21.25   11.82
  -5   7  -2   17.20   14.39
   5   7  -3  -20.07   23.97
  -5  -7   3    8.37   22.80
   5  -7   3   13.18   11.85
  -5   7   3   12.46   10.53
   5  -7  -3   23.48   11.67
  -5   7  -3   15.60   14.17
   5   7  -4  -17.91   24.09
  -5  -7   4   15.49   26.17
   5  -7   4   10.68   10.76
  -5   7   4   35.41   13.14
   5  -7  -4   65.64   17.99
  -5   7  -4   17.42   12.95
  -5  -7   5   -1.74   21.21
   5  -7   5    0.72    9.54
  -5   7   5   12.12    8.79
   5  -7  -5   -3.64    8.75
  -5   7  -5   18.29   11.89
   5   7  -6   42.84   20.45
  -5  -7  -6   17.12   15.45
   5   7   6   23.79   15.49
  -5  -7   6   25.75   21.48
   5  -7   6    6.06    9.70
  -5   7   6    8.82    8.03
   5  -7  -6   10.64    8.11
  -5   7  -6    4.85   11.17
   5   7  -7   35.00   20.45
  -5  -7  -7   -3.86   14.28
   5   7   7   -3.64   16.44
  -5  -7   7   10.53   21.21
   5  -7   7    7.80    8.94
  -5   7   7    0.42    7.42
   5  -7  -7   -0.98    7.27
  -5   7  -7   -0.38   10.04
   5   7  -8   38.90   20.79
  -5  -7  -8   30.79   19.09
   5   7   8   15.95   18.56
  -5  -7   8   59.39   26.40
   5  -7   8   36.51   11.74
  -5   7   8   33.60   10.34
   5  -7  -8   62.46   15.57
  -5   7  -8   42.57   12.27
   5   7  -9  -20.11   21.40
  -5  -7  -9    6.40   21.13
   5   7   9  -15.68   19.77
  -5  -7   9   -8.86   25.83
   5  -7   9    5.95    8.67
  -5   7   9    6.67    7.39
   5  -7  -9    2.73    7.20
  -5   7  -9   -5.45    7.84
   5  -7  10   38.22   25.41
   5   7 -10   22.19   23.82
  -5  -7 -10    1.74   23.94
   5   7  10   18.26   19.96
  -5  -7  10  -14.88   23.67
  -5   7 -10   16.40   20.45
   5  -7  10   14.92    9.89
  -5   7  10    8.79    8.33
   5  -7 -10    7.69    8.48
  -5   7 -10   23.26   10.26
  -5   7  11   -1.25    6.67
   5  -7 -11    3.79    7.04
  -5   7 -11    0.91    7.39
   5  -8   0   -5.38   10.79
  -5   8   0   16.29   14.85
   5  -8   1   15.53   11.21
  -5   8   1   30.94   16.02
   5  -8  -1   52.91   15.87
  -5   8  -1   -1.02   14.17
   5   8  -2   -5.64   17.69
  -5  -8   2   42.57   21.29
   5  -8   2   19.96   12.61
  -5   8   2   12.69   10.30
   5  -8  -2   -1.25   10.68
  -5   8  -2   26.63   15.38
   5   8  -3   88.44   27.12
  -5  -8   3   59.84   25.60
   5  -8   3   66.58   18.37
  -5   8   3   44.84   13.60
   5  -8  -3   48.86   14.05
  -5   8  -3   62.30   19.01
   5   8  -4   -6.55   22.54
  -5  -8   4   31.25   22.50
   5  -8   4    8.75    9.92
  -5   8   4   -7.54    8.33
   5  -8  -4   14.01    9.09
  -5   8  -4    4.36   11.21
   5   8  -5  328.07   68.78
  -5  -8   5  341.33   71.20
   5  -8   5  303.00   64.96
  -5   8   5  234.98   50.68
   5  -8  -5  202.37   43.97
  -5   8  -5  348.41   74.65
  -5  -8   6   26.17   21.02
   5  -8   6   21.06   10.83
  -5   8   6    6.06    7.95
   5  -8  -6  -13.33    7.84
  -5   8  -6   -7.39   10.79
   5   8  -7   26.66   20.34
  -5  -8  -7  122.07   29.96
   5   8   7   77.87   22.38
  -5  -8   7   79.08   28.82
   5  -8   7  114.23   26.55
  -5   8   7  120.18   27.08
   5  -8  -7  112.91   25.72
  -5   8  -7  136.16   31.44
   5   8  -8    6.17   21.02
  -5  -8  -8  -10.95   18.22
   5   8   8  -11.97   16.74
  -5  -8   8    0.61   22.31
   5  -8   8   -8.48    8.75
  -5   8   8   14.43    8.07
   5  -8  -8    9.58    7.76
  -5   8  -8   -3.94    7.99
   5   8  -9   71.66   27.31
  -5  -8  -9   42.99   21.97
   5   8   9   68.02   24.13
  -5  -8   9   49.43   26.63
   5  -8   9   67.00   17.12
  -5   8   9   60.07   15.15
   5  -8  -9   30.38   10.23
  -5   8  -9   42.08   12.54
   5   8 -10   24.39   23.29
  -5  -8 -10   -7.04   19.88
   5   8  10   11.93   18.29
  -5  -8  10  -19.24   23.60
   5  -8  10    3.64    9.81
  -5   8  10    7.20    8.41
   5  -8 -10   -0.57    8.33
  -5   8 -10   12.69    9.43
   5  -8  11   16.55    9.66
  -5   8  11    4.85    6.67
   5  -8 -11    0.64    7.01
  -5   8 -11    4.05    7.12
   5  -9   0   13.79    9.58
  -5   9   0    0.80   10.11
   5  -9   1  -11.14    9.92
  -5   9   1  -10.26    9.32
   5  -9  -1    9.70    8.94
  -5   9  -1    5.19   10.19
   5   9  -2   48.78   19.73
  -5  -9   2   24.43   20.45
   5  -9   2   -0.08   10.64
  -5   9   2   13.07    9.32
   5  -9  -2   14.28    9.28
   5   9  -3  -21.78   18.56
  -5  -9   3   20.26   20.07
   5  -9   3   13.18   10.53
  -5   9   3    8.03    8.18
   5  -9  -3    6.10    8.11
  -5   9  -3   -4.32   12.08
   5   9  -4   77.83   23.94
  -5  -9   4  101.58   27.99
   5  -9   4   57.38   16.29
  -5   9   4   59.50   15.64
   5  -9  -4   39.12   12.20
  -5   9  -4   45.49   15.76
   5   9  -5   -7.42   18.41
  -5  -9   5    5.00   17.50
   5  -9   5   -2.46    9.96
  -5   9   5    5.79    8.29
   5  -9  -5    0.80    8.18
  -5   9  -5   -0.61   11.63
   5   9  -6    3.48   16.44
  -5  -9   6  -21.02   20.57
   5  -9   6   -1.82    9.24
  -5   9   6   -9.09    7.65
   5  -9  -6   -3.83    7.76
  -5   9  -6   -6.59   10.79
  -5  -9   7    0.98   21.93
   5  -9   7    7.01    8.71
  -5   9   7   -2.65    7.46
   5  -9  -7   13.56    8.22
  -5   9  -7  -12.99   10.26
   5   9  -8  -21.59   23.94
  -5  -9  -8   19.24   18.10
  -5  -9   8   11.93   24.54
   5  -9   8    9.77    9.32
  -5   9   8    6.33    7.84
   5  -9  -8    1.33    7.54
  -5   9  -8   -9.51    8.33
   5   9  -9  -21.85   22.01
  -5  -9  -9   -6.40   18.48
   5   9   9  -19.28   18.03
  -5  -9   9   -1.17   23.44
   5  -9   9    2.39    9.66
  -5   9   9  -12.16    8.37
   5  -9  -9    4.92    8.45
  -5   9  -9    1.21    8.90
   5   9 -10   47.42   25.11
  -5  -9 -10   14.09   18.60
   5   9  10   -4.43   19.69
  -5  -9  10   29.54   23.48
   5  -9  10   13.18    9.81
  -5   9  10   35.94   11.67
   5  -9 -10   15.76    8.75
  -5   9 -10   19.66    9.66
   5 -10   0   -5.00    8.22
  -5  10   0    5.42    9.54
   5 -10   1  260.92   56.09
  -5  10   1  278.15   59.73
   5 -10  -1  318.68   68.02
  -5  10  -1  216.49   47.23
   5 -10   2    7.08    8.48
  -5  10   2   18.79    9.96
   5 -10  -2   -1.40    8.22
  -5  10  -2   10.45    9.54
   5  10  -3  133.47   32.27
  -5 -10   3   61.05   21.63
   5 -10   3   61.43   16.06
  -5  10   3   60.68   16.32
   5 -10  -3   89.84   21.51
  -5  10  -3   57.38   16.06
   5  10  -4  -29.88   18.75
  -5 -10   4   -4.47   17.08
   5 -10   4   -6.70    9.43
  -5  10   4    7.57    8.60
   5 -10  -4    7.27    8.98
  -5  10  -4    5.34    9.32
   5  10  -5  -13.63   18.90
  -5 -10   5   37.23   18.90
   5 -10   5   10.53    9.92
  -5  10   5    2.08    8.29
   5 -10  -5    2.08    8.07
  -5  10  -5   -1.74    9.20
   5  10  -6   14.92   19.77
  -5 -10   6   12.61   21.74
   5 -10   6   10.79    9.54
  -5  10   6   18.82    9.09
   5 -10  -6   11.32    8.07
  -5  10  -6  -10.72   10.83
   5  10  -7   23.41   21.93
  -5 -10   7   -1.74   23.90
   5 -10   7    8.48    9.89
  -5  10   7   33.37   11.29
   5 -10  -7   48.40   13.63
  -5 -10   8    2.46   23.90
   5 -10   8  -10.11    8.86
  -5  10   8    0.30    7.84
   5 -10  -8    6.02    7.99
  -5  10  -8   16.55    9.17
   5  10  -9  206.34   47.72
  -5 -10   9  210.81   49.58
   5 -10   9  276.22   59.65
  -5  10   9  258.50   56.02
   5 -10  -9  246.94   53.56
  -5  10  -9  242.10   52.65
   5 -10  10    1.29    8.56
  -5  10  10   -9.81    7.76
   5 -10 -10    7.69    7.65
  -5  10 -10   10.04    8.56
   5 -11   0    6.59    8.33
  -5  11   0   10.23    9.39
   5 -11   1  -12.12    8.22
  -5  11   1   -0.80    8.64
   5 -11  -1   -0.04    8.07
  -5  11  -1    3.41    9.62
   5 -11   2   22.61   10.30
  -5  11   2   11.89    9.51
   5 -11  -2    3.33    8.33
  -5  11  -2   36.47   13.03
   5 -11   3  -10.68    8.37
  -5  11   3   -2.54    8.56
   5 -11  -3    0.11    8.41
  -5  11  -3    1.78    9.32
   5  11  -4   -5.34   17.01
  -5 -11   4   18.07   16.74
   5 -11   4    6.33    8.48
  -5  11   4   39.09   12.54
   5 -11  -4   20.87    9.62
  -5  11  -4   -1.48    9.20
   5  11  -5  -22.01   19.16
  -5 -11   5   19.43   22.19
   5 -11   5    2.42    7.50
  -5  11   5   -6.17    7.76
   5 -11  -5    4.96    7.92
  -5  11  -5   -0.95    6.51
   5  11  -6   -3.75   18.63
  -5 -11   6   13.90   21.55
   5 -11   6  -11.02    7.69
  -5  11   6    3.37    8.11
   5 -11  -6   15.23    9.17
  -5  11  -6   -6.55    6.48
   5  11  -7   -1.33   20.19
  -5 -11   7   -2.65   22.42
   5 -11   7   -9.58    9.36
  -5  11   7    5.08    8.29
   5 -11  -7    2.01    8.22
  -5  11  -7   -3.98    7.08
   5  11  -8  -12.88   20.83
  -5 -11   8   10.45   21.97
   5 -11   8    4.09   10.34
  -5  11   8   19.66   10.00
   5 -11  -8   12.65    9.54
  -5  11  -8    6.06    7.84
  -5 -11   9   -7.23   21.85
   5 -11   9   -4.09    9.62
  -5  11   9   -2.39    8.22
   5 -11  -9   -0.19    8.75
  -5  11  -9   -2.54    8.45
   5 -12   0  -13.75    8.67
  -5  12   0  -13.45    8.90
   5 -12   1   13.26    8.98
  -5  12   1   33.25   11.70
   5 -12  -1   31.40   11.36
  -5  12  -1   12.46    8.64
   5 -12   2   35.91   11.97
  -5  12   2    0.04    8.75
   5 -12  -2    7.08    8.03
  -5  12  -2   32.99   10.91
   5 -12   3  151.42   33.78
  -5  12   3  104.38   24.69
   5 -12  -3  137.94   31.10
  -5  12  -3  125.63   28.48
  -5 -12   4   17.31   18.33
   5 -12   4  -13.63    8.98
  -5  12   4   12.08    8.71
   5 -12  -4   19.47    9.81
  -5  12  -4    4.28    7.35
   5  12  -5   34.62   18.94
  -5 -12   5   -9.24   21.44
   5 -12   5   10.60    8.29
  -5  12   5    4.89    8.37
   5 -12  -5   -9.92    8.56
  -5  12  -5   13.82    7.84
   5  12  -6    8.90   20.34
  -5 -12   6   -2.08   20.60
   5 -12   6   -3.22    8.22
  -5  12   6    3.26    8.79
   5 -12  -6    8.48    8.90
  -5  12  -6   -6.40    7.08
   5  12  -7    2.12   20.04
  -5 -12   7   27.72   23.79
   5 -12   7   -8.48    8.33
  -5  12   7  -10.11    9.70
   5 -12  -7   -4.28    9.20
  -5  12  -7   -1.02    7.95
   5  12  -8   20.57   20.38
  -5 -12   8   26.36   22.95
   5 -12   8   10.45    8.71
  -5  12   8    2.08    9.24
   5 -12  -8   16.21   10.07
  -5  12  -8   -7.39    8.14
   5 -12   9   -3.75    7.61
  -5  12   9   13.71    8.56
   5 -12  -9    6.51    8.26
  -5  12  -9    5.91    7.01
   5 -13   0   -5.72    8.03
  -5  13   0    1.17    8.48
   5 -13   1   16.51    9.01
  -5  13   1    6.29    8.90
   5 -13  -1    8.29    8.41
  -5  13  -1    2.27    7.54
   5 -13   2   -9.43    8.11
  -5  13   2   13.82    9.54
   5 -13  -2   -1.02    7.84
  -5  13  -2    3.22    7.27
   5 -13   3   28.78   10.64
  -5  13   3   33.06   11.55
   5 -13  -3   42.76   12.88
  -5  13  -3   38.06   11.55
   5 -13   4   35.41   11.78
  -5  13   4   46.40   13.98
   5 -13  -4    7.27    9.13
  -5  13  -4   12.42    8.14
   5  13  -5   30.30   19.20
  -5 -13   5   94.08   29.66
   5 -13   5    9.66    8.64
  -5  13   5    0.15    8.82
   5 -13  -5    4.24    8.41
  -5  13  -5   -3.14    7.12
   5  13  -6  187.25   43.33
  -5 -13   6  184.15   44.28
   5 -13   6  421.55   89.54
  -5  13   6  346.06   74.20
   5 -13  -6  377.05   80.52
  -5  13  -6  277.66   59.62
   5  13  -7   11.78   20.04
  -5 -13   7  -30.41   24.01
   5 -13   7  -10.04    9.39
  -5  13   7    1.63   10.15
   5 -13  -7   -3.33    9.73
  -5  13  -7   10.07    9.17
   5 -13   8   10.26    8.14
  -5  13   8   10.76    9.17
   5 -13  -8   17.54    9.66
  -5  13  -8   14.54    8.52
   5 -14   0    0.30    8.07
  -5  14   0  -21.36    9.39
   5 -14   1    5.04    8.60
  -5  14   1   -2.80    8.64
   5 -14  -1    9.81    8.52
  -5  14  -1    6.67    7.65
   5 -14   2   12.73    8.94
  -5  14   2   -5.49    8.82
   5 -14  -2   -0.30    7.73
  -5  14  -2    7.57    8.03
   5 -14   3   20.53    9.81
  -5  14   3   26.44   11.14
   5 -14  -3   28.07   10.91
  -5  14  -3   18.60    9.09
   5 -14   4   -9.43    8.33
  -5  14   4   11.48    9.58
   5 -14  -4    4.47    8.86
  -5  14  -4   -1.63    7.65
   5 -14   5  167.45   37.23
  -5  14   5  137.83   31.74
   5 -14  -5  118.09   27.46
  -5  14  -5  128.32   29.09
   5  14  -6    3.79   20.15
  -5 -14   6   30.22   22.65
   5 -14   6   -9.81    9.58
  -5  14   6    7.42   10.45
   5 -14  -6   13.79   10.87
  -5  14  -6   12.69    9.17
   5  14  -7   -3.07   20.45
  -5 -14   7    9.73   22.95
   5 -14   7   13.75    9.01
  -5  14   7   11.48    9.51
   5 -14  -7   -4.09    9.43
  -5  14  -7    6.59    7.73
  -5  14   8    0.76    7.99
   5 -14  -8    4.96    7.84
  -5  14  -8   14.85    7.95
   5 -15   0   13.75    9.47
  -5  15   0    3.30    8.41
   5 -15   1   -0.72    8.56
  -5  15   1   13.41    9.92
   5 -15  -1    7.84    8.75
  -5  15  -1   -5.53    8.18
   5 -15   2   10.15    9.05
  -5  15   2   30.22   11.70
   5 -15  -2    6.89    7.57
  -5  15  -2   21.51    9.70
   5 -15   3   -1.74    9.01
  -5  15   3    7.54    9.47
   5 -15  -3   -1.67    8.67
  -5  15  -3   -2.84    7.61
   5 -15   4  294.78   63.63
  -5  15   4  319.85   69.05
   5 -15  -4  288.34   62.38
  -5  15  -4  269.48   58.37
   5 -15   5  -10.00    9.89
  -5  15   5   14.20   11.32
   5 -15  -5   10.30   10.87
  -5  15  -5    4.47    9.28
  -5 -15   6   29.96   22.72
   5 -15   6    5.42    9.01
  -5  15   6   25.19   11.44
   5 -15  -6   28.18   11.70
  -5  15  -6   15.95    8.71
   5 -15   7    2.88    7.57
  -5  15   7    8.11    8.45
   5 -15  -7   -9.13    8.37
  -5  15  -7   -1.51    6.51
   5 -16   0   -3.94    9.96
  -5  16   0    4.92    9.73
   5 -16   1  470.79  100.18
  -5  16   1  396.93   85.03
   5 -16  -1  420.03   89.73
  -5  16  -1  492.38  104.72
   5 -16   2   -4.58    9.66
  -5  16   2   -6.10   10.07
  -5  16  -2    0.34    8.26
   5 -16   3   11.17   10.72
  -5  16   3   23.67   12.76
   5 -16  -3   40.72   14.47
  -5  16  -3   21.13   10.76
   5 -16   4   15.07   10.60
  -5  16   4   -8.64    9.96
   5 -16  -4    2.39   10.04
  -5  16  -4    7.16    8.56
   5 -16   5  -17.57    8.94
  -5  16   5   -6.44    9.01
   5 -16  -5    5.42    9.24
  -5  16  -5   -2.16    7.39
   5 -16   6   -0.76    7.76
  -5  16   6   -5.87    8.22
   5 -16  -6   -5.19    8.56
  -5  16  -6    5.57    6.97
   5 -17   0  -13.48    9.77
  -5  17   0   -1.40    9.09
   5 -17   1    7.50    9.73
  -5  17   1   10.53   10.34
   5 -17  -1  -10.26    9.47
  -5  17  -1    6.51    9.13
   5 -17   2   -0.08    9.20
  -5  17   2   -6.33   10.42
  -5  17  -2   -2.01    8.52
   5 -17   3   -4.20    8.86
  -5  17   3    1.97    9.70
   5 -17  -3   -1.82    8.90
  -5  17  -3   -9.85    8.22
   5 -17   4   -4.55    8.41
  -5  17   4   11.51    9.66
   5 -17  -4    8.45    8.75
  -5  17  -4    3.75    7.61
   5 -18   0    9.36    9.05
  -5  18   0   -0.76    7.92
   5 -18   1   11.97    8.90
  -5  18   1   21.25   10.79
   5 -18  -1   18.22   10.07
   5 -18   2   11.89    9.05
  -5  18   2   12.04   10.00
  -5  18  -2   -1.21    7.50
   6   0   6  263.57   55.90
   6   0  -6  360.00   75.33
  -6   0  -6  256.72   55.22
   6   0   7   10.00   19.28
  -6   0   7   45.49   24.92
   6   0  -7   43.14   21.17
  -6   0  -7   55.75   21.66
   6   0   8    8.60   17.38
  -6   0   8   23.18   19.96
   6   0  -8    7.01   18.37
  -6   0  -8   31.36   17.16
   6   0   9  147.83   36.51
  -6   0   9  224.98   51.40
   6   0  -9  228.99   51.28
  -6   0  -9  117.37   30.72
   6   0  10  -17.65   22.12
  -6   0  10   34.73   26.93
   6   0 -10   35.49   23.60
  -6   0 -10   21.89   19.96
   6   0  11    7.35   23.60
  -6   0  11   15.53   25.49
   6   0 -11   33.52   23.22
  -6   0 -11   28.22   22.76
   6   1  -5   59.65   28.71
  -6  -1  -5   16.74   20.45
   6   1   5   17.23   20.57
  -6  -1   5   39.01   22.69
   6   1  -6  -14.62   21.89
  -6  -1  -6   16.02   19.51
   6   1   6    6.17   19.32
  -6  -1   6    1.36   22.99
   6  -1   7   24.32   20.41
   6   1  -7  -22.08   21.82
  -6  -1  -7   -8.22   18.52
   6   1   7  -19.69   17.65
  -6  -1   7   -4.36   21.93
  -6   1  -7   21.29   18.71
   6  -1   8   16.59   19.32
  -6   1   8    5.91   18.63
   6   1  -8  -15.04   18.22
  -6  -1  -8    9.85   18.52
   6   1   8   11.74   18.82
  -6  -1   8   52.99   24.58
   6  -1  -8   -5.49   18.29
  -6   1  -8   -5.49   15.42
   6  -1   9   -2.35   19.81
  -6   1   9  -16.21   23.56
   6   1  -9   12.88   19.92
  -6  -1  -9  -14.32   19.43
   6   1   9  -23.97   21.13
  -6  -1   9  -10.60   24.20
   6  -1  -9   -7.27   19.85
  -6   1  -9   -1.82   18.63
   6  -1  10   27.76   21.82
  -6   1  10   57.76   25.41
   6   1 -10   17.84   25.38
  -6  -1 -10   -2.08   19.96
   6   1  10   26.47   25.64
  -6  -1  10    1.82   27.04
   6  -1 -10   18.79   21.63
  -6   1 -10   14.24   20.91
   6  -1  11   -0.19   21.82
  -6   1  11    0.49   27.42
   6   1 -11   -7.99   21.32
  -6  -1 -11   49.88   24.66
   6   1  11   -4.20   26.13
  -6  -1  11   71.81   30.60
   6  -1 -11   22.57   21.78
  -6   1 -11   42.00   25.49
   6   2  -4  -13.48   22.80
  -6  -2   4  -26.10   21.78
   6   2  -5  -59.12   27.50
  -6  -2  -5   25.45   20.79
   6   2   5    7.92   18.60
  -6  -2   5   20.23   22.91
   6   2  -6  -11.51   23.29
  -6  -2  -6   -7.99   19.88
   6   2   6  -16.10   19.09
  -6  -2   6   -2.54   21.74
   6  -2   7    2.20   20.26
   6   2  -7   37.16   23.71
  -6  -2  -7   39.09   20.49
   6   2   7   -5.95   16.85
  -6  -2   7   16.89   22.57
   6  -2   8    4.77   19.88
   6   2  -8   18.07   18.52
  -6  -2  -8    3.67   19.01
   6   2   8  -17.46   19.85
  -6  -2   8   47.15   23.22
  -6   2  -8   29.35   19.66
   6  -2   9   -3.37   20.64
   6   2  -9   -2.99   21.44
  -6  -2  -9   -7.57   20.15
   6   2   9    2.65   19.92
  -6  -2   9    2.12   23.94
   6  -2  -9    9.66   20.94
  -6   2  -9    6.48   18.82
   6  -2  10  -19.28   22.35
  -6   2  10  -23.63   24.47
   6   2 -10   10.04   24.81
  -6  -2 -10   72.00   26.44
   6   2  10  -15.98   24.54
  -6  -2  10  -15.91   26.29
   6  -2 -10   -8.64   21.82
  -6   2 -10  -10.87   21.25
   6  -2  11   15.95   22.69
   6   2 -11  -10.72   21.13
  -6  -2 -11   -4.85   21.74
   6   2  11   47.46   23.71
  -6  -2  11   17.01   27.38
   6  -2 -11   18.14   20.79
  -6   2 -11   49.81   24.73
  -6  -3   3   18.45   21.51
   6   3  -4   69.54   26.36
  -6  -3  -4   40.64   17.23
   6   3   4   57.12   21.25
   6   3  -5   28.60   23.52
  -6  -3  -5   27.50   17.91
   6   3   5   11.97   18.79
  -6  -3   5   36.85   26.47
   6   3  -6   20.68   24.96
  -6  -3  -6   60.11   21.78
   6   3   6   75.98   24.66
  -6  -3   6   42.69   25.83
   6   3  -7   75.56   26.32
  -6  -3  -7   45.49   18.56
   6   3   7   50.75   19.05
  -6  -3   7   83.17   26.25
   6   3  -8   -1.10   19.62
  -6  -3  -8    3.64   20.60
   6   3   8  -34.81   18.98
  -6  -3   8    0.08   21.36
   6  -3   9    8.71   20.76
   6   3  -9  -32.53   22.72
  -6  -3  -9  -24.73   20.57
   6   3   9    1.10   21.66
  -6  -3   9   50.34   24.69
  -6   3  -9   24.73   20.64
  -6   3   9    7.46    8.14
   6  -3  10   40.79   26.66
   6   3 -10   40.34   26.85
  -6  -3 -10   -8.22   21.70
   6   3  10  -11.93   23.67
  -6  -3  10   37.69   28.94
   6  -3 -10   -3.98   20.68
  -6   3 -10  -31.32   22.91
  -6   3  10   23.52   10.76
   6  -3  11   46.17   24.28
  -6   3  11    1.40   24.66
   6   3 -11   12.80   22.61
  -6  -3 -11   23.33   20.23
   6   3  11    5.57   20.38
  -6  -3  11    8.45   26.13
   6  -3 -11   43.18   21.85
  -6   3 -11    1.82   20.23
  -6   3  11   -6.67    8.90
   6  -3 -11   -0.19    7.16
  -6   3  12    2.73    7.04
   6  -3 -12   -4.70    5.98
   6   4  -1    5.30   15.15
  -6  -4   1  -10.95   19.58
   6   4  -2    7.27   18.26
  -6  -4   2  -19.09   18.48
   6   4  -3    7.54   19.47
  -6  -4  -3    9.70   10.95
   6   4   3   13.79   12.54
  -6  -4   3  -24.01   21.93
  -6  -4  -4   21.06   16.29
   6   4   4   35.75   17.38
  -6  -4   4   13.75   23.29
   6   4  -5   -6.02   24.09
  -6  -4  -5   29.43   15.23
   6   4   5   21.82   18.48
  -6  -4   5   -2.20   23.60
  -6   4   5   -5.76   10.34
   6   4  -6    9.92   23.97
  -6  -4  -6    9.96   17.01
   6   4   6  -12.69   17.61
  -6  -4   6   52.84   26.13
  -6   4   6   -6.86    9.43
   6  -4  -6    2.80    7.80
   6   4  -7  -13.82   20.30
  -6  -4  -7  -17.01   17.65
   6   4   7   20.83   16.29
  -6  -4   7    2.05   19.20
  -6   4   7   -5.08    9.36
   6  -4  -7   -9.20    8.11
  -6  -4  -8   -2.08   18.10
   6   4   8  -23.03   18.10
  -6   4   8    4.20    8.37
   6  -4  -8   -3.56    7.23
   6  -4   9   22.19   21.70
   6   4  -9  -19.96   22.46
  -6  -4  -9    4.89   18.79
   6   4   9  -26.36   22.42
  -6  -4   9  -24.81   23.41
  -6   4  -9    3.64   20.00
  -6   4   9   11.85    8.75
   6  -4  -9    3.67    7.23
   6  -4  10  -20.53   22.35
   6   4 -10   34.58   24.85
  -6  -4 -10  -34.81   22.72
   6   4  10  -49.16   23.07
  -6  -4  10   -0.23   25.07
  -6   4 -10  -12.12   21.02
  -6   4  10    8.29    8.52
   6  -4 -10   -0.76    7.08
   6  -4  11   22.35   22.99
   6   4 -11   10.42   23.33
  -6  -4 -11   -6.10   19.28
   6   4  11   19.88   20.57
  -6  -4  11    6.10   26.40
  -6   4 -11   23.41   22.08
  -6   4  11   13.41    9.32
   6  -4 -11   11.32    7.88
   6   5   0  241.68   49.24
  -6  -5   0  349.62   70.45
   6   5  -1   30.98   16.21
  -6  -5  -1   53.48   13.90
   6   5   1   88.14   19.39
  -6  -5   1   62.80   19.77
  -6   5   1   55.98   17.95
   6  -5  -1   39.50   13.33
   6   5  -2  313.07   64.99
   6   5   2  345.19   68.25
  -6  -5   2  272.32   57.12
   6   5  -3   16.25   20.72
  -6  -5  -3   41.74   14.35
   6   5   3    9.58   10.83
  -6  -5   3   45.87   21.93
  -6   5   3   13.03   12.23
   6  -5  -3    0.15   10.30
   6   5  -4   17.27   18.26
  -6  -5  -4   26.70   16.36
   6   5   4   17.01   14.58
  -6  -5   4   23.90   26.10
  -6   5   4   40.72   14.54
   6  -5  -4   37.12   13.07
   6   5   5   17.57   15.42
  -6  -5   5   -1.74   22.72
  -6   5   5  -16.25   10.45
   6  -5  -5  -18.22    9.81
   6   5  -6  -32.08   23.26
  -6  -5  -6  -24.24   17.99
   6   5   6   26.32   17.91
  -6  -5   6   19.88   20.83
  -6   5   6   21.32   10.87
   6  -5  -6    6.63    8.14
   6   5  -7    9.85   17.95
  -6  -5  -7   34.31   18.22
   6   5   7   20.07   16.25
  -6  -5   7   13.41   19.88
  -6   5   7   27.27   11.29
   6  -5  -7   33.22   11.17
   6   5  -8   22.99   21.21
  -6  -5  -8   12.12   17.80
   6   5   8   16.36   16.25
  -6  -5   8   -3.18   21.66
  -6   5   8   -0.53    8.48
   6  -5  -8   -3.26    7.16
   6  -5   9   41.17   24.39
   6   5  -9    8.26   20.91
  -6  -5  -9  -27.08   21.59
   6   5   9   18.22   22.35
  -6  -5   9  -14.24   25.11
  -6   5   9    1.55    8.79
   6  -5  -9    0.42    7.46
   6  -5  10   22.23   24.77
   6   5 -10   23.63   24.35
  -6  -5 -10   24.28   23.79
   6   5  10   -5.72   20.45
  -6  -5  10   17.27   25.57
  -6   5 -10  -17.35   20.49
  -6   5  10   30.19   11.63
   6  -5 -10    6.74    8.07
   6  -5  11   54.69   27.23
   6   5 -11    9.66   21.02
  -6  -5 -11   18.03   20.64
   6   5  11   48.48   24.09
  -6  -5  11   16.44   25.49
  -6   5 -11    1.93   23.37
  -6   5  11   44.69   13.41
   6  -5 -11   48.82   13.29
  -6  -6   0   31.36   14.66
   6  -6   0   25.57   11.74
  -6   6   0   18.90   14.24
   6   6  -1   15.38   16.13
  -6  -6  -1  -24.24   10.34
   6   6   1   -4.20    8.82
  -6  -6   1    8.75   16.93
   6  -6   1   18.71   10.98
  -6   6   1   10.42   13.71
   6  -6  -1    6.21   10.34
  -6   6  -1  -13.56   13.86
   6   6  -2    7.27   17.65
  -6  -6   2  -36.32   20.23
   6  -6   2  -19.20   12.01
  -6   6   2  -17.88   14.01
   6  -6  -2    3.11    8.98
  -6   6  -2   11.21   14.05
   6   6  -3  -15.00   22.69
  -6  -6  -3   13.07   10.38
   6   6   3   16.66   10.91
  -6  -6   3   14.92   21.13
   6  -6   3   -4.01   11.10
  -6   6   3   20.41   11.21
   6  -6  -3   14.32   10.91
  -6   6  -3   26.63   14.70
   6   6  -4    4.09   20.72
  -6  -6  -4    5.83   13.86
   6   6   4  -14.28   13.14
  -6  -6   4   14.24   24.47
  -6   6   4   -8.33   11.29
   6  -6  -4    7.46    9.66
  -6   6  -4   -3.64   13.10
   6   6   5    9.70   14.09
  -6  -6   5  -17.57   22.19
  -6   6   5    9.13   10.26
   6  -6  -5   12.69    9.17
  -6  -6  -6    7.35   16.02
   6   6   6  -12.16   14.17
  -6  -6   6   -3.14   21.55
  -6   6   6   12.57   10.57
   6  -6  -6   -2.39    8.22
   6   6  -7   -5.00   18.86
  -6  -6  -7   24.05   15.68
   6   6   7   34.88   18.52
  -6  -6   7   43.10   22.38
  -6   6   7   10.79    9.81
   6  -6  -7   -8.37    8.14
   6   6  -8   -2.20   17.80
  -6  -6  -8  -24.96   18.10
   6   6   8   -9.77   17.54
  -6  -6   8    1.48   21.93
  -6   6   8   -0.23    8.67
   6  -6  -8   -5.68    7.42
   6   6  -9  -11.06   22.12
  -6  -6  -9   13.52   20.04
   6   6   9  -15.91   19.66
  -6  -6   9   -5.61   25.11
  -6   6   9    5.23    9.20
   6  -6  -9    5.19    8.07
   6  -6  10   57.95   25.38
   6   6 -10    9.05   22.65
  -6  -6 -10   14.24   24.88
   6   6  10   16.55   20.11
  -6  -6  10   11.55   23.86
  -6   6  10    0.34   10.11
   6  -6 -10   12.65    9.13
  -6   6  11   -0.76    8.75
   6  -6 -11    9.77    7.92
   6   7   0   28.07   13.75
  -6  -7   0   38.14   15.98
   6  -7   0    4.24   10.68
  -6   7   0   19.05   14.88
   6   7  -1   -3.18   15.53
  -6  -7   1   11.17   15.57
   6  -7   1   -4.96   10.34
  -6   7   1   20.45   15.07
   6  -7  -1    7.80   10.42
  -6   7  -1  -23.26   14.81
   6   7  -2   20.76   20.98
  -6  -7   2   93.93   26.47
   6  -7   2   52.53   16.59
  -6   7   2   41.51   14.43
   6  -7  -2   18.52   10.26
  -6   7  -2   30.34   15.79
   6   7  -3    3.11   20.30
  -6  -7   3   27.12   23.37
   6  -7   3   -0.61   11.25
  -6   7   3    4.73   10.38
   6  -7  -3   16.44   11.14
  -6   7  -3   23.48   14.01
   6   7  -4    9.70   20.83
  -6  -7   4  -10.42   21.06
   6  -7   4    0.27   10.07
  -6   7   4   12.35    9.51
   6  -7  -4   -5.76    9.01
  -6   7  -4   -2.20   11.70
   6   7  -5  -23.90   21.13
  -6  -7  -5   12.50   13.18
   6   7   5  -16.10   13.10
  -6  -7   5    1.70   19.20
   6  -7   5    4.89    9.96
  -6   7   5   -6.06   10.45
   6  -7  -5   12.92    9.47
  -6   7  -5   -7.12   11.40
  -6  -7  -6    4.36   14.47
   6   7   6  -11.51   15.11
  -6  -7   6  -15.04   20.00
   6  -7   6    8.64    9.73
  -6   7   6   24.54   11.67
   6  -7  -6    6.67    8.64
  -6   7  -6   11.21   11.63
   6   7  -7    4.77   15.34
  -6  -7  -7    0.98   15.34
   6   7   7   21.44   15.83
  -6  -7   7   40.45   23.94
   6  -7   7   10.42    9.17
  -6   7   7    1.10    9.77
   6  -7  -7   11.82    9.01
  -6   7  -7   20.38   11.78
   6   7  -8  -29.66   21.10
  -6  -7  -8   22.16   20.07
   6   7   8   22.61   17.01
  -6  -7   8  -18.18   22.65
  -6   7   8    3.03    9.32
   6  -7  -8    5.98    8.26
  -6   7  -8   17.31    9.05
   6   7  -9   19.20   23.22
  -6  -7  -9   46.06   22.16
   6   7   9   -8.64   19.58
  -6  -7   9  -18.75   23.86
  -6   7   9    5.57    8.90
   6  -7  -9    5.98    8.11
   6   7 -10   21.82   23.86
  -6  -7 -10   22.12   19.62
   6   7  10   -6.51   19.39
  -6  -7  10   -2.46   23.48
  -6   7  10    2.73    8.60
   6  -7 -10  -12.16    9.24
  -6   7  11   -6.14    6.55
   6  -7 -11   -7.73    7.54
   6  -8   0   23.71   11.97
  -6   8   0   47.00   17.76
   6   8  -1   38.82   18.48
  -6  -8   1    5.61   16.63
   6  -8   1   -5.98   10.07
  -6   8   1   -0.30   14.20
   6  -8  -1   -1.36   10.23
  -6   8  -1  -17.76   14.43
   6   8  -2    3.18   20.19
  -6  -8   2   13.60   20.72
   6  -8   2   12.31   11.36
  -6   8   2   10.04   10.95
   6  -8  -2   12.46    8.79
  -6   8  -2   18.41   14.20
   6   8  -3   92.38   28.07
  -6  -8   3  124.61   32.95
   6  -8   3   80.75   20.49
  -6   8   3   59.58   16.36
   6  -8  -3   85.82   21.02
  -6   8  -3   76.92   21.06
   6   8  -4   44.58   20.23
  -6  -8   4   12.01   19.16
   6  -8   4   29.35   12.39
  -6   8   4   22.38   10.76
   6  -8  -4   32.04   11.89
  -6   8  -4   14.47   13.14
   6   8  -5   49.96   21.97
  -6  -8   5   18.14   18.48
   6  -8   5   36.59   13.29
  -6   8   5   50.11   14.70
   6  -8  -5   34.54   12.42
  -6   8  -5    8.29   12.04
   6   8  -6  -11.29   20.04
  -6  -8  -6  -21.44   15.26
   6   8   6   -9.39   14.62
  -6  -8   6   34.35   21.55
   6  -8   6   -4.28    9.43
  -6   8   6   -5.72   10.34
   6  -8  -6   -1.59    8.41
  -6   8  -6    3.60   11.06
  -6  -8  -7  296.45   61.21
   6   8   7  326.22   66.85
  -6  -8   7  327.69   70.03
   6  -8   7  248.76   53.59
  -6   8   7  335.12   71.39
   6  -8  -7  295.05   63.10
  -6   8  -7  288.91   62.19
   6   8  -8   23.48   23.22
  -6  -8  -8   21.70   20.91
   6   8   8   -9.85   16.78
  -6  -8   8   13.37   24.85
   6  -8   8    9.81    9.66
  -6   8   8   18.82    8.86
   6  -8  -8   10.19    8.56
  -6   8  -8    2.73    8.26
   6   8  -9  105.97   32.38
  -6  -8  -9  116.47   30.38
   6   8   9  112.56   29.50
  -6  -8   9   90.22   30.94
   6  -8   9  118.21   27.35
  -6   8   9   78.59   19.13
   6  -8  -9  150.52   33.44
  -6   8  -9   80.90   20.00
   6   8 -10   -6.82   21.63
  -6  -8 -10   15.83   19.66
   6   8  10   28.86   20.83
  -6  -8  10  -14.85   23.48
   6  -8  10   14.77    9.81
  -6   8  10    9.28    7.92
   6  -8 -10   19.28    9.17
  -6   8 -10   19.85   10.15
   6  -9   0   10.95    9.85
  -6   9   0  -10.57   13.10
  -6  -9   1  -33.78   16.40
   6  -9   1    5.57    9.24
  -6   9   1   -7.42    9.89
   6  -9  -1  -19.09    9.96
  -6   9  -1  -18.10   13.33
   6   9  -2   -4.51   18.18
  -6  -9   2   32.76   20.26
   6  -9   2    1.78    9.28
  -6   9   2  -12.84   10.00
   6  -9  -2    4.13    7.42
  -6   9  -2  -15.07   12.69
   6   9  -3    2.50   17.08
  -6  -9   3   -0.53   17.73
   6  -9   3   17.50   11.14
  -6   9   3    0.34    9.73
   6  -9  -3   -1.14    9.36
  -6   9  -3   -2.95   12.27
   6   9  -4   30.91   18.79
  -6  -9   4   24.32   18.82
   6  -9   4    7.04   10.60
  -6   9   4   -7.80    9.09
   6  -9  -4    5.72    9.62
  -6   9  -4  -15.26   12.54
   6   9  -5   22.19   19.20
  -6  -9   5    3.37   17.61
   6  -9   5   12.80   10.76
  -6   9   5    1.36    8.03
   6  -9  -5   -6.29    8.45
  -6   9  -5   -6.78   11.63
   6   9  -6   -2.88   20.60
  -6  -9   6   29.96   22.76
   6  -9   6   10.83   10.04
  -6   9   6   -2.08    7.54
   6  -9  -6  -13.52    8.03
  -6   9  -6   -3.26   11.14
   6   9  -7    4.70   21.40
  -6  -9  -7   -2.08   15.91
  -6  -9   7   -1.67   23.29
   6  -9   7   -4.17    9.39
  -6   9   7   -2.16    7.57
   6  -9  -7    1.21    7.80
  -6   9  -7   -0.53    8.22
  -6  -9  -8  -19.05   18.60
   6   9   8    3.48   16.21
  -6  -9   8   48.14   24.69
   6  -9   8    8.29    9.36
  -6   9   8   17.57    8.71
   6  -9  -8    2.95    7.80
  -6   9  -8   -3.83    8.29
   6   9  -9   10.45   20.94
  -6  -9  -9    5.98   18.71
   6   9   9   -7.12   17.76
  -6  -9   9    6.36   24.66
   6  -9   9   -8.56   10.38
  -6   9   9    1.51    8.75
   6  -9  -9   -0.83    8.71
  -6   9  -9    2.84    9.85
   6  -9  10   -0.30    8.79
  -6   9  10    0.49    7.42
   6  -9 -10    3.71    7.84
  -6   9 -10   11.51    8.82
   6 -10   0  217.89   47.57
  -6  10   0  224.22   49.05
   6 -10   1   -0.83    9.20
  -6  10   1    8.64    9.05
   6 -10  -1    4.73    9.36
  -6  10  -1    2.99   13.10
   6  10  -2   11.29   15.38
  -6 -10   2   -2.20   17.35
   6 -10   2   -2.88    9.39
  -6  10   2   -8.29    8.86
   6 -10  -2    1.44    6.63
  -6  10  -2   -8.48   12.76
   6  10  -3   -9.66   16.44
  -6 -10   3   11.48   16.13
   6 -10   3   -3.37   10.76
  -6  10   3    5.34    8.82
   6 -10  -3    3.56    8.86
  -6  10  -3    3.26   12.69
   6  10  -4    6.59   17.65
  -6 -10   4   12.04   16.40
   6 -10   4   15.00   10.98
  -6  10   4   24.54   10.30
   6 -10  -4    3.37    8.26
  -6  10  -4   11.74   12.20
   6  10  -5  -22.42   20.49
  -6 -10   5   -1.74   19.88
   6 -10   5   30.22   12.27
  -6  10   5    8.37    8.26
   6 -10  -5    9.47    8.29
  -6  10  -5   12.35   11.93
   6  10  -6   -8.75   17.80
  -6 -10   6   -9.70   22.31
   6 -10   6   -6.40    9.43
  -6  10   6   -9.32    7.69
   6 -10  -6    5.19    7.61
  -6  10  -6   -8.11   10.79
   6  10  -7    7.35   20.94
  -6 -10   7   33.56   24.09
   6 -10   7   13.48   10.00
  -6  10   7   14.77    9.01
   6 -10  -7   -0.61    8.29
  -6  10  -7    5.00    9.05
   6  10  -8  -17.84   22.08
  -6 -10   8   20.38   23.60
   6 -10   8    8.67   10.15
  -6  10   8    0.68    8.26
   6 -10  -8    2.16    8.45
  -6  10  -8    1.89    8.90
  -6 -10  -9   55.56   21.89
   6  10   9   70.03   21.66
  -6 -10   9   56.93   27.42
   6 -10   9   38.37   13.56
  -6  10   9   65.94   17.42
   6 -10  -9   31.85   11.70
  -6  10  -9   47.08   14.58
  -6  10  10   23.07    9.47
   6 -10 -10   12.69    8.52
  -6  10 -10   14.17    8.82
   6 -11   0    4.85    8.41
  -6  11   0    3.30    9.01
   6 -11   1   14.96    9.77
  -6  11   1   15.95    9.85
   6 -11  -1   30.94   11.17
  -6  11  -1    7.61    8.18
   6 -11   2   20.57   10.95
  -6  11   2   11.82    9.47
   6 -11  -2   14.81    7.69
  -6  11  -2   17.61    8.90
   6  11  -3   -6.70   15.19
  -6 -11   3   -4.77   15.79
   6 -11   3   12.46   10.76
  -6  11   3   17.65    9.73
   6 -11  -3   -4.96    8.26
  -6  11  -3   -6.33    8.60
   6  11  -4    9.01   18.82
  -6 -11   4   18.45   17.23
   6 -11   4    8.94   10.30
  -6  11   4  -11.55    8.56
   6 -11  -4   32.08   11.32
  -6  11  -4   -1.78    8.67
   6  11  -5   19.66   19.43
  -6 -11   5    9.51   20.41
   6 -11   5   -1.44    9.58
  -6  11   5   12.65    8.60
   6 -11  -5    6.97    7.99
  -6  11  -5    1.51    8.60
   6  11  -6   -3.37   19.01
  -6 -11   6   13.29   19.81
   6 -11   6   13.37   10.42
  -6  11   6    3.07    8.45
   6 -11  -6    7.42    8.52
  -6  11  -6    5.95    8.94
   6  11  -7  -17.31   20.94
  -6 -11   7   -2.58   22.54
   6 -11   7   -5.19    9.66
  -6  11   7   -1.40    8.14
   6 -11  -7   -9.58    7.99
  -6  11  -7    3.83    8.90
   6  11  -8   27.08   20.57
  -6 -11   8   20.07   22.31
   6 -11   8   34.96   13.67
  -6  11   8    7.99    9.92
   6 -11  -8   14.70   10.38
  -6  11  -8   23.18   11.48
   6 -11   9    6.21    9.36
  -6  11   9   10.19    8.71
   6 -11  -9    6.14    8.33
  -6  11  -9   -0.80    8.75
   6 -12   0   29.85   11.10
  -6  12   0    6.17    9.20
   6 -12   1   12.01    9.05
   6 -12  -1   45.30   13.45
  -6  12  -1   15.57    8.71
   6 -12   2   16.85    9.39
  -6  12   2   10.04    9.43
  -6  12  -2   14.51    8.29
  -6 -12   3   -4.77   18.63
   6 -12   3   -1.74    7.73
  -6  12   3    7.35    8.67
   6 -12  -3   26.74   10.53
  -6  12  -3   -3.60    7.08
   6  12  -4    0.57   18.98
  -6 -12   4  -15.04   18.90
   6 -12   4   12.20    9.05
  -6  12   4   -2.54    7.99
   6 -12  -4   -2.39    7.92
  -6  12  -4   -2.01    7.04
   6  12  -5    2.05   16.29
  -6 -12   5   13.82   20.60
   6 -12   5    0.00   10.49
  -6  12   5   -0.42    8.41
   6 -12  -5   36.17   12.16
  -6  12  -5   17.31    8.48
   6  12  -6   -8.41   19.01
  -6 -12   6  -43.75   24.92
   6 -12   6   14.66   10.87
  -6  12   6   -4.66    8.67
   6 -12  -6   -4.85    8.67
  -6  12  -6   -9.54    7.99
   6  12  -7  115.22   31.25
  -6 -12   7  101.62   31.28
   6 -12   7   96.20   23.82
  -6  12   7   79.73   20.19
   6 -12  -7   45.75   14.20
  -6  12  -7   74.84   19.43
   6  12  -8    5.53   19.43
  -6 -12   8  -10.57   21.78
   6 -12   8   -2.05   10.42
  -6  12   8    4.62    9.09
   6 -12  -8    7.20    8.94
  -6  12  -8    7.80    9.92
  -6  12   9    1.89    7.57
   6 -12  -9   10.00    8.07
  -6  12  -9   -3.60    8.18
   6 -13   0  123.93   28.25
  -6  13   0   96.01   22.99
   6 -13   1    1.36    8.11
  -6  13   1    0.45    8.52
   6 -13  -1   -0.27    7.99
  -6  13  -1    0.15    7.31
   6 -13   2  407.91   86.77
  -6  13   2  314.97   67.68
  -6  13  -2  227.06   49.31
   6 -13   3    5.34    8.94
  -6  13   3    6.02    9.17
   6 -13  -3  -15.91    8.98
  -6  13  -3   21.78    9.54
   6  13  -4   29.92   17.42
  -6 -13   4   60.37   23.60
   6 -13   4   42.61   13.10
  -6  13   4   42.31   13.45
   6 -13  -4   52.12   14.85
  -6  13  -4   62.04   16.02
   6  13  -5   28.10   20.07
  -6 -13   5  -16.63   21.70
   6 -13   5    2.39    8.07
  -6  13   5   23.97   10.79
   6 -13  -5    3.22    8.82
  -6  13  -5    2.95    7.04
   6  13  -6   60.90   23.22
  -6 -13   6   54.24   25.30
   6 -13   6   26.59   10.91
  -6  13   6   31.40   12.31
   6 -13  -6   25.41   11.40
  -6  13  -6   39.43   12.20
   6  13  -7   59.88   23.14
  -6 -13   7   13.48   22.54
   6 -13   7   23.29   11.48
  -6  13   7   35.41   13.22
   6 -13  -7   46.66   14.92
  -6  13  -7   37.19   12.08
   6 -13   8   -6.36    9.36
  -6  13   8   -2.16    8.26
   6 -13  -8   -3.37    7.95
  -6  13  -8   -5.42    7.20
   6 -14   0   -0.30    8.37
  -6  14   0   13.71    9.66
   6 -14   1  -11.17    8.67
  -6  14   1   11.06    9.32
   6 -14  -1    1.59    8.37
  -6  14  -1   11.97    8.79
   6 -14   2    5.72    8.94
  -6  14   2    4.09    9.32
  -6  14  -2   20.64    9.47
   6 -14   3   -3.11    8.86
  -6  14   3    4.28    9.05
   6 -14  -3   -0.95    8.90
  -6  14  -3   -1.78    7.95
   6 -14   4    1.29    8.45
  -6  14   4    3.41    8.86
   6 -14  -4    6.14    8.52
  -6  14  -4    8.75    7.88
   6  14  -5   10.57   16.93
  -6 -14   5   13.67   21.51
   6 -14   5    0.11    9.32
  -6  14   5   11.93   10.53
   6 -14  -5   20.07   10.95
  -6  14  -5    8.11    8.29
   6  14  -6   29.20   21.82
  -6 -14   6    9.20   20.57
   6 -14   6   14.85   10.04
  -6  14   6    6.89   10.30
   6 -14  -6   16.93   10.76
  -6  14  -6    1.40    8.03
   6 -14   7   19.35    9.36
  -6  14   7   -2.16    8.79
   6 -14  -7   20.38   10.42
  -6  14  -7   18.14    8.48
   6 -15   0   24.39   10.68
  -6  15   0   15.38    8.98
   6 -15   1   13.52    9.73
  -6  15   1    9.13    9.43
   6 -15  -1   13.41    9.13
  -6  15  -1   27.72   11.06
   6 -15   2   11.36    9.36
  -6  15   2   -2.23    9.13
  -6  15  -2    4.13    8.18
   6 -15   3    0.53    9.66
  -6  15   3  -13.22   10.11
   6 -15  -3   39.92   13.48
  -6  15  -3   12.99    9.09
   6 -15   4   16.63   10.76
  -6  15   4    0.91   10.19
   6 -15  -4   24.58   12.08
  -6  15  -4    8.26    8.98
  -6 -15   5   54.24   22.95
   6 -15   5   10.60    9.81
  -6  15   5   30.57   12.61
   6 -15  -5    0.68    9.89
  -6  15  -5   18.22    9.47
   6 -15   6   10.95    8.71
  -6  15   6    7.08    9.24
   6 -15  -6   -3.14    8.67
  -6  15  -6    3.60    7.46
   6 -16   0   25.94   11.67
  -6  16   0   38.59   13.18
   6 -16   1   24.43   11.97
  -6  16   1   41.59   14.81
   6 -16  -1   35.30   13.26
  -6  16  -1   34.16   12.35
   6 -16   2   29.81   12.35
  -6  16   2    1.36   10.79
  -6  16  -2   26.89   11.67
   6 -16   3   43.63   14.47
  -6  16   3   58.06   17.27
   6 -16  -3   50.45   15.72
  -6  16  -3   32.12   12.04
   6 -16   4    3.11    8.98
  -6  16   4   -3.94    9.73
   6 -16  -4   -4.96    9.51
  -6  16  -4  -10.04    8.22
   6 -16   5   21.97    9.89
  -6  16   5   13.33    9.73
   6 -16  -5   16.51    9.77
  -6  16  -5   -1.21    7.69
   6 -17   0   -1.21    9.24
  -6  17   0    5.79    9.01
   6 -17   1   -1.06    9.24
  -6  17   1    4.62   10.07
   6 -17  -1    1.14    9.01
  -6  17  -1    9.66    9.05
   6 -17   2   -3.71    8.75
  -6  17   2    4.55    9.73
  -6  17  -2   10.83    9.09
   6 -17   3   -4.85    8.79
  -6  17   3    5.30    9.20
   6 -17  -3    1.33    9.05
  -6  17  -3  -12.54    7.65
   6 -17   4   -5.64    8.67
  -6  17   4   11.06    9.96
   6 -17  -4   -3.03    8.90
  -6  17  -4    5.64    7.76
   6 -18   0   11.63    9.43
  -6  18   0   14.73    9.05
   6 -18   1    9.43    9.17
   6 -18  -1   19.43   10.49
   7   0   7   33.67   18.03
   7   0  -7  -11.63   18.52
  -7   0  -7   38.86   19.69
   7   0   8   84.01   25.75
  -7   0   8   30.30   23.71
   7   0  -8   35.15   20.83
  -7   0  -8   59.73   21.78
   7   0   9    7.31   20.64
  -7   0   9   88.48   30.26
   7   0  -9   41.44   21.29
  -7   0  -9   15.95   20.19
   7   0  10   -9.77   23.56
  -7   0  10   94.27   32.16
   7   0 -10   68.10   28.56
  -7   0 -10    3.79   19.32
   7   0  11   20.45   24.01
  -7   0  11   53.86   28.37
   7   0 -11   40.53   23.94
  -7   0 -11   18.75   20.79
   7   1  -6   18.56   22.54
  -7  -1  -6   36.17   18.52
   7   1   6   20.34   17.42
  -7  -1   6    4.32   20.11
   7   1  -7  -12.99   19.05
  -7  -1  -7   -7.20   16.89
   7   1   7   10.76   15.64
  -7  -1   7   -0.68   19.47
   7  -1   8   26.32   19.51
   7   1  -8   11.02   18.45
  -7  -1  -8    4.55   19.58
   7   1   8   54.39   21.51
  -7  -1   8  -14.24   20.00
  -7   1  -8   47.23   19.32
   7  -1   9    2.80   20.26
  -7   1   9    5.26   22.01
   7   1  -9  -11.63   20.15
  -7  -1  -9  -12.65   19.66
   7   1   9    3.22   21.97
  -7  -1   9   42.12   26.36
   7  -1  -9  -15.53   19.85
  -7   1  -9    9.47   19.01
   7  -1  10    4.01   21.32
  -7   1  10   92.11   31.47
   7   1 -10    9.96   22.95
  -7  -1 -10    4.24   22.01
   7   1  10   39.92   25.26
  -7  -1  10   -5.08   24.77
   7  -1 -10   -2.20   21.97
  -7   1 -10   57.53   23.60
   7  -1  11    7.42   22.42
  -7   1  11   31.06   24.20
   7   1 -11   37.38   21.78
  -7  -1 -11   19.54   20.98
   7   1  11   28.94   21.13
  -7  -1  11   28.71   28.78
   7  -1 -11   -3.75   21.55
  -7   1 -11  -12.20   20.53
   7   2  -4   96.73   27.84
   7   2  -5   17.73   22.50
   7   2   5   11.48   15.38
  -7  -2   5   23.14   23.52
   7   2  -6  -17.69   21.40
  -7  -2  -6   27.08   19.16
   7   2   6  -38.78   19.69
  -7  -2   6   20.94   22.01
   7   2  -7  -23.41   19.66
  -7  -2  -7   12.76   15.79
   7   2   7   -4.89   15.15
  -7  -2   7  -10.91   18.33
   7  -2   8   -5.83   20.64
   7   2  -8    3.14   18.79
  -7  -2  -8    9.32   18.10
   7   2   8   -6.06   18.41
  -7  -2   8   22.95   20.98
   7  -2   9   33.90   22.84
   7   2  -9    7.92   23.26
  -7  -2  -9   23.33   20.07
   7   2   9   13.07   22.38
  -7  -2   9   20.91   22.91
  -7   2  -9   14.66   21.17
   7  -2  10   23.37   23.56
   7   2 -10  -10.76   23.86
  -7  -2 -10   19.92   22.69
   7   2  10  -21.97   23.44
  -7  -2  10  -12.23   25.41
   7  -2 -10   45.98   22.61
  -7   2 -10   -7.80   20.72
   7  -2  11  -26.40   22.80
  -7   2  11    9.85   26.55
   7   2 -11    8.37   22.27
  -7  -2 -11    8.75   18.14
   7   2  11   24.66   21.78
  -7  -2  11    5.11   25.07
   7  -2 -11  -10.57   21.02
  -7   2 -11   45.03   23.18
   7   3  -3   -2.16   17.99
  -7  -3   3   29.77   20.76
  -7  -3   4   66.13   26.97
   7   3  -5   19.96   21.29
   7   3   5   29.88   19.58
  -7  -3   5   -5.26   22.23
   7   3  -6   -2.42   22.72
  -7  -3  -6   23.56   17.50
   7   3   6   55.87   19.77
  -7  -3   6  -35.41   23.44
   7   3  -7   37.19   19.77
  -7  -3  -7   27.99   18.07
   7   3   7   62.11   19.58
  -7  -3   7  -15.15   19.35
   7   3  -8   57.99   23.52
  -7  -3  -8   56.66   20.91
   7   3   8   57.27   21.25
  -7  -3   8   -3.33   22.69
   7  -3   9   10.87   20.49
   7   3  -9    8.82   21.29
  -7  -3  -9   19.43   20.11
   7   3   9   35.30   22.88
  -7  -3   9    7.01   23.41
  -7   3  -9   36.32   20.68
   7  -3  10   10.38   24.69
   7   3 -10  -16.51   23.90
  -7  -3 -10    6.97   21.06
   7   3  10   -8.94   20.30
  -7  -3  10   29.16   25.07
  -7   3 -10   29.24   22.12
   7  -3  11    2.08   22.80
   7   3 -11  -17.12   22.84
  -7  -3 -11   17.04   21.40
   7   3  11    7.04   22.38
  -7  -3  11   48.14   27.72
   7  -3 -11   -2.46   20.34
  -7   3 -11  -22.38   21.17
   7   4  -2   -7.50   19.13
  -7  -4   2   -5.57   19.35
   7   4  -3    8.60   20.68
  -7  -4   3   11.36   19.88
   7   4  -4   16.13   19.69
  -7  -4  -4  -32.35   16.51
   7   4   4    2.84   14.43
  -7  -4   4  -25.22   25.45
   7   4   5    4.28   14.70
  -7  -4   5  -34.92   23.33
   7   4  -6  -17.76   22.65
  -7  -4  -6    7.57   17.16
   7   4   6  -31.44   17.50
  -7  -4   6   20.76   21.36
   7   4  -7    0.45   17.01
  -7  -4  -7    2.08   15.19
   7   4   7  -12.50   15.53
  -7  -4   7   19.81   21.17
   7   4  -8   -4.85   20.00
  -7  -4  -8  -24.51   18.75
   7   4   8    2.08   15.87
  -7  -4   8    5.19   21.89
  -7   4   8   12.73    8.98
   7   4  -9   -8.18   21.32
  -7  -4  -9   -2.01   20.68
   7   4   9  -18.63   22.38
  -7  -4   9    6.93   24.13
  -7   4   9   -0.45    8.86
   7  -4  10   17.12   22.46
   7   4 -10  -53.18   25.72
  -7  -4 -10    9.47   23.48
   7   4  10    5.57   20.87
  -7  -4  10   67.83   28.78
  -7   4 -10   32.53   21.51
  -7   4  10   24.77   10.95
   7  -4 -10   15.83    8.52
  -7   4  11    0.00    8.52
   7  -4 -11    4.73    7.42
  -7  -5   0   21.17   14.01
   7   5  -1   57.46   20.11
  -7  -5   1   69.69   21.51
   7   5  -2   68.52   22.91
  -7  -5   2   41.55   21.36
   7   5  -3    5.11   22.50
  -7  -5  -3   47.15   14.09
   7   5   3   49.81   14.85
  -7  -5   3    7.65   21.40
   7   5  -4  -12.69   21.74
  -7  -5  -4   -3.56   13.60
   7   5   4  -19.35   13.18
  -7  -5   4    4.28   24.66
  -7   5   4    2.80   10.87
   7   5  -5   -7.65   18.90
   7   5   5   14.77   14.54
  -7  -5   5   -0.23   22.12
  -7   5   5   61.93   17.01
   7  -5  -5   15.38    9.36
  -7  -5  -6    7.42   16.25
   7   5   6   35.26   15.83
  -7  -5   6   29.50   21.36
  -7   5   6   36.97   13.45
   7  -5  -6    7.31    8.90
   7   5  -7   16.89   19.39
  -7  -5  -7   12.73   15.64
   7   5   7    1.29   16.82
  -7  -5   7   34.88   22.19
  -7   5   7    3.45    9.43
   7  -5  -7   24.62    9.92
   7   5  -8   82.76   26.21
  -7  -5  -8  129.46   32.08
   7   5   8  179.07   40.26
  -7  -5   8  180.02   43.52
  -7   5   8  135.52   30.49
   7  -5  -8  152.71   33.63
   7   5  -9    2.16   21.36
  -7  -5  -9   40.41   22.04
   7   5   9   15.57   20.19
  -7  -5   9   22.04   25.19
  -7   5   9    4.47    9.28
   7  -5  -9    2.84    7.95
   7   5 -10   43.78   25.83
  -7  -5 -10   -2.69   24.09
   7   5  10  -31.21   20.64
  -7  -5  10    4.55   25.15
  -7   5  10   12.46   10.49
   7  -5 -10    3.48    8.90
  -7   5  11   -9.51    8.75
   7  -5 -11   10.83    7.76
  -7  -6   0   13.48   13.98
  -7   6   0   17.12   14.66
   7   6  -1    9.92   15.30
  -7  -6  -1   19.73   10.19
   7   6   1   24.58   10.00
  -7  -6   1   36.02   17.61
  -7   6   1   17.31   14.92
   7  -6  -1   11.55   10.79
   7   6  -2   18.18   19.92
  -7  -6   2   -2.31   18.10
  -7   6   2   -0.19   10.45
   7   6  -3   14.17   20.94
  -7  -6  -3   24.39   10.79
   7   6   3   -3.45    9.39
  -7  -6   3   37.57   23.03
  -7   6   3    3.98   10.11
   7  -6  -3    1.97   10.38
   7   6  -4  -13.90   19.81
  -7  -6  -4    6.51   11.14
   7   6   4  -31.74   14.58
  -7  -6   4  -20.15   21.17
  -7   6   4   15.72    9.92
   7  -6  -4   -1.29    9.13
   7   6  -5    5.76   20.34
  -7  -6  -5  -10.49   13.71
   7   6   5    2.05   12.80
  -7  -6   5   -5.08   19.96
  -7   6   5    7.61   10.60
   7  -6  -5    3.71    8.98
   7   6  -6   17.31   17.12
  -7  -6  -6    0.45   14.20
   7   6   6   -4.89   15.00
  -7  -6   6   -2.73   18.90
  -7   6   6   -8.07   10.19
   7  -6  -6    5.68    8.56
  -7  -6  -7  -13.03   15.57
   7   6   7   -4.96   14.88
  -7  -6   7   -7.46   22.35
  -7   6   7    7.39    9.73
   7  -6  -7    9.20    8.52
   7   6  -8   -4.89   20.49
  -7  -6  -8    7.76   19.58
   7   6   8   -4.51   15.79
  -7  -6   8  -11.10   22.31
  -7   6   8    9.47    9.70
   7  -6  -8    8.11    8.29
   7   6  -9  -10.72   23.07
  -7  -6  -9   -4.85   20.26
   7   6   9  -18.98   19.32
  -7  -6   9  -10.30   24.47
  -7   6   9  -10.72    9.39
   7  -6  -9   14.28    8.71
   7   6 -10   37.16   24.58
  -7  -6 -10   10.15   19.39
   7   6  10   27.35   20.26
  -7  -6  10   16.59   24.24
  -7   6  10    4.89   10.49
   7  -6 -10  -12.08    8.94
  -7   6  11    4.92    8.45
   7  -6 -11   -0.61    7.65
   7   7   0    9.39   13.56
  -7  -7   0   -7.99   15.07
   7  -7   0    6.70   10.76
  -7   7   0    5.95   14.51
   7   7  -1   58.71   20.41
  -7  -7  -1   76.32   18.79
   7   7   1   55.15   14.77
  -7  -7   1   65.33   21.59
   7  -7   1   78.93   20.23
  -7   7   1   83.06   23.14
   7  -7  -1   62.72   17.57
  -7   7  -1   57.15   19.24
   7   7  -2   14.05   20.11
  -7  -7   2   14.28   18.52
   7  -7   2    0.38   11.40
  -7   7   2   10.45   10.91
  -7   7  -2   18.41   14.51
   7   7  -3   -9.85   20.68
  -7  -7   3   44.35   23.63
   7  -7   3   18.63   11.32
  -7   7   3   -2.39    9.70
   7  -7  -3   22.80   11.06
  -7   7  -3   23.33   13.56
   7   7  -4   -6.29   17.91
  -7  -7  -4   11.78   10.68
   7   7   4    5.19   10.57
  -7  -7   4   -7.42   18.82
  -7   7   4   -3.03    9.36
   7  -7  -4   12.95    9.85
  -7   7  -4    9.73   12.31
   7   7  -5  102.60   28.75
  -7  -7  -5   76.36   20.64
   7   7   5   50.68   16.06
  -7  -7   5   78.36   25.04
  -7   7   5   61.96   16.89
   7  -7  -5   70.49   18.37
   7   7  -6   39.54   21.48
  -7  -7  -6   -8.64   16.21
   7   7   6   14.20   13.79
  -7  -7   6   -9.17   19.51
  -7   7   6   -5.83   10.38
   7  -7  -6    0.42    8.48
   7   7  -7  -22.46   17.04
  -7  -7  -7    6.40   15.11
   7   7   7    9.01   16.32
  -7  -7   7   25.87   22.76
  -7   7   7  -11.48    9.77
   7  -7  -7    1.02    8.03
  -7  -7  -8  -10.04   19.24
   7   7   8    2.69   16.66
  -7  -7   8   41.81   25.34
  -7   7   8    7.65    9.89
   7  -7  -8    2.61    8.14
   7   7  -9   14.32   23.44
  -7  -7  -9  -10.00   18.71
   7   7   9    1.74   19.13
  -7  -7   9   30.60   25.07
  -7   7   9    7.23   10.38
   7  -7  -9   -2.76    8.64
   7   7 -10   15.79   21.82
  -7  -7 -10   13.41   18.82
   7   7  10    1.17   20.04
  -7  -7  10   21.63   24.62
  -7   7  10   25.26   11.85
   7  -7 -10   17.99    9.77
  -7   7  11   -7.12    8.60
   7  -7 -11    7.54    7.54
   7   8   0   -1.36   12.99
  -7  -8   0   24.66   14.39
   7  -8   0   20.57   11.10
  -7   8   0    6.14   13.79
   7   8  -1   60.22   19.96
  -7  -8   1   61.55   20.87
   7  -8   1   91.05   22.19
  -7   8   1   73.40   19.39
   7  -8  -1   70.79   18.41
  -7   8  -1   60.83   18.98
   7   8  -2    8.33   18.75
  -7  -8   2  -17.35   18.07
   7  -8   2   15.72   10.23
  -7   8   2   31.28   12.08
  -7   8  -2   -1.51   12.39
   7   8  -3  104.80   27.46
  -7  -8   3   94.99   27.31
   7  -8   3  163.51   36.85
  -7   8   3  126.50   29.20
   7  -8  -3  137.03   31.21
  -7   8  -3  102.68   25.79
   7   8  -4  163.89   38.14
  -7  -8   4  133.36   33.14
   7  -8   4  191.61   42.46
  -7   8   4  134.61   30.79
   7  -8  -4  147.14   33.25
  -7   8  -4  156.42   36.25
   7   8  -5   35.87   19.73
  -7  -8  -5   40.72   14.54
   7   8   5   48.40   14.39
  -7  -8   5   62.42   22.46
   7  -8   5   34.62   13.10
  -7   8   5   42.72   13.52
   7  -8  -5   28.44   11.44
  -7   8  -5   41.66   15.38
   7   8  -6    8.60   24.39
  -7  -8  -6   30.41   18.33
  -7  -8   6   23.63   22.16
   7  -8   6   -5.61    9.47
  -7   8   6    1.21    8.64
   7  -8  -6    5.79    8.29
  -7   8  -6    1.89   11.51
   7   8  -7  -17.23   20.91
  -7  -8  -7  -10.64   15.79
   7   8   7  -17.23   17.04
  -7  -8   7   19.13   23.79
   7  -8   7   -7.23    8.82
  -7   8   7   13.18   10.34
   7  -8  -7    2.23    8.41
  -7   8  -7   -6.36    8.29
  -7  -8  -8   -2.76   17.65
   7   8   8   -3.75   17.69
  -7  -8   8   27.95   24.51
  -7   8   8    7.23   10.23
   7  -8  -8    6.67    8.79
  -7   8  -8   -3.45    8.75
  -7  -8  -9   22.01   19.62
   7   8   9    5.00   18.10
  -7  -8   9   -9.81   24.77
  -7   8   9    2.35   10.79
   7  -8  -9   11.48    9.62
  -7   8  -9   41.81   13.41
  -7   8  10   65.94   17.88
   7  -8 -10   79.46   19.54
  -7  -9   0  -27.61   13.26
   7  -9   0    6.93    9.54
  -7   9   0   -5.95    9.58
   7   9  -1   12.46   14.88
  -7  -9   1    4.77   14.47
   7  -9   1   -5.26    9.43
  -7   9   1    2.23    9.66
   7  -9  -1   -1.78    9.20
  -7   9  -1   12.31   13.10
   7   9  -2   -4.09   15.60
  -7  -9   2  -26.25   18.22
   7  -9   2   -6.21    9.24
  -7   9   2   -0.95    9.81
  -7   9  -2    8.26   13.10
   7   9  -3   15.49   18.90
  -7  -9   3  -25.49   19.54
   7  -9   3   12.54   10.98
  -7   9   3    2.61   10.04
   7  -9  -3   -6.36    9.73
  -7   9  -3  -24.32   13.45
   7   9  -4    4.01   18.03
  -7  -9   4  -26.44   17.84
   7  -9   4   -6.82   10.42
  -7   9   4    9.66    9.89
   7  -9  -4  -10.87    9.62
  -7   9  -4  -17.12   12.73
   7   9  -5   -6.93   17.95
  -7  -9   5    9.66   18.82
   7  -9   5   10.87   10.30
  -7   9   5    6.86    9.58
   7  -9  -5  -10.23    9.13
  -7   9  -5    1.67   11.59
   7   9  -6   16.32   19.05
  -7  -9  -6    7.42   12.35
  -7  -9   6   32.80   24.47
   7  -9   6  -15.42    9.73
  -7   9   6    7.35    8.82
   7  -9  -6    6.33    8.90
  -7   9  -6   -4.81   10.95
   7   9  -7    0.42   20.94
  -7  -9  -7   11.85   16.82
   7   9   7  -22.65   16.59
  -7  -9   7  -27.08   24.28
   7  -9   7    7.16    9.66
  -7   9   7   -0.11    9.17
   7  -9  -7   -7.84    8.79
  -7   9  -7   -0.87    8.60
   7   9  -8    3.48   22.84
  -7  -9  -8   -1.59   18.07
   7   9   8   12.46   17.23
  -7  -9   8  -32.04   22.80
   7  -9   8    0.45    9.54
  -7   9   8   20.30   11.32
   7  -9  -8   -5.11    8.48
  -7   9  -8    2.27    8.86
  -7  -9  -9  -22.61   19.24
   7   9   9    1.59   17.69
  -7  -9   9    1.97   23.71
   7  -9   9    5.00   10.42
  -7   9   9   17.69   10.34
   7  -9  -9    8.03    9.77
  -7   9  -9    6.86   10.30
   7  -9  10    2.73    8.64
  -7   9  10    6.51    7.39
   7  -9 -10   -2.73    8.11
  -7   9 -10  -10.49    8.29
   7 -10   0    1.86    9.36
  -7  10   0   -5.91    9.58
   7  10  -1   21.97   13.71
  -7 -10   1   -1.51   14.66
   7 -10   1  -10.79    9.92
  -7  10   1    9.92   10.57
   7 -10  -1   -3.18    9.70
  -7  10  -1   25.72   14.88
   7  10  -2    5.38   14.32
  -7 -10   2  -10.00   15.91
   7 -10   2    4.05    9.70
  -7  10   2   -9.43   10.64
  -7  10  -2    0.80   13.26
   7  10  -3   52.76   20.34
  -7 -10   3   29.85   18.03
   7 -10   3   39.69   14.17
  -7  10   3   39.81   13.45
   7 -10  -3   46.25   14.51
  -7  10  -3   27.50   11.85
   7  10  -4   30.30   19.39
  -7 -10   4    1.89   17.31
  -7  10   4    9.73    9.89
   7 -10  -4   -6.25    9.32
   7  10  -5   -1.51   21.17
  -7 -10   5   25.53   19.35
   7 -10   5    3.98   10.07
  -7  10   5    2.76    9.01
   7 -10  -5   -5.38    8.86
  -7  10  -5   -6.02    8.71
   7  10  -6    8.67   18.86
  -7 -10   6   11.85   21.21
   7 -10   6    8.71   10.34
  -7  10   6   24.69   10.76
   7 -10  -6   21.66   10.83
  -7  10  -6   15.68    9.85
   7  10  -7   21.17   22.46
  -7 -10   7   30.64   25.60
   7 -10   7   23.75   11.70
  -7  10   7   25.00   10.34
   7 -10  -7   12.12    9.28
  -7  10  -7   38.75   12.80
   7  10  -8   15.00   20.41
  -7 -10  -8   10.49   17.46
   7  10   8   17.16   15.64
  -7 -10   8   24.96   23.94
   7 -10   8   16.55   11.32
  -7  10   8    2.80    9.13
   7 -10  -8    9.66    9.43
  -7  10  -8    5.45   10.00
   7  10  -9   20.57   22.19
  -7 -10  -9    4.28   16.70
   7  10   9  -24.92   17.31
  -7 -10   9   15.83   25.00
   7 -10   9    8.48   10.30
  -7  10   9   -4.62    8.18
   7 -10  -9    0.04    8.26
  -7  10  -9   12.76    9.58
   7 -11   0  -12.39    9.81
  -7  11   0  -18.86   10.45
   7 -11   1    3.07    9.51
  -7  11   1   12.39   10.38
   7 -11  -1   10.64   10.26
  -7  11  -1   -3.33   10.19
   7  11  -2   78.36   21.36
  -7 -11   2   42.57   16.55
   7 -11   2    1.89    9.36
  -7  11   2   -0.27    9.81
  -7  11  -2   14.39   10.23
   7  11  -3   19.96   17.12
  -7 -11   3    9.05   15.57
   7 -11   3   -4.39   10.30
  -7  11   3   -1.14    8.86
   7 -11  -3    9.51    9.73
  -7  11  -3    1.40    9.39
   7  11  -4   -3.22   18.75
  -7 -11   4    0.38   18.45
   7 -11   4    3.71   10.34
  -7  11   4    6.29    8.18
   7 -11  -4  -16.89    9.43
  -7  11  -4   -7.20    8.86
   7  11  -5    0.45   16.97
  -7 -11   5   32.84   21.66
   7 -11   5   -1.44   10.26
  -7  11   5   -2.65    8.11
   7 -11  -5   13.71    9.05
  -7  11  -5   11.93    9.66
   7  11  -6   -3.45   18.37
  -7 -11   6  -16.59   22.65
   7 -11   6   13.10   10.91
  -7  11   6   -0.83    8.56
   7 -11  -6   -4.17    8.37
  -7  11  -6    3.52    9.36
   7  11  -7   23.48   20.19
  -7 -11   7    3.11   22.95
   7 -11   7    5.72   10.68
  -7  11   7    1.02    8.90
   7 -11  -7   -5.83    8.67
  -7  11  -7   -4.36    9.13
   7  11  -8   14.51   18.41
  -7 -11   8   18.41   22.84
   7 -11   8   14.32   11.59
  -7  11   8    1.25    9.43
   7 -11  -8   10.53    9.47
  -7  11  -8   -2.35   10.00
   7 -11   9   -4.77    9.17
  -7  11   9   -7.31    7.61
   7 -11  -9  -10.19    8.11
  -7  11  -9   19.39    9.73
   7 -12   0  -10.15    9.24
  -7  12   0   -7.12    8.60
   7 -12   1   18.90   10.45
  -7  12   1   32.19   11.93
   7 -12  -1   17.20   10.15
  -7  12  -1   27.50   11.85
   7 -12   2   18.18   10.34
  -7  12   2   18.67   10.87
  -7  12  -2   24.32   11.21
   7  12  -3  -12.01   16.51
  -7 -12   3   25.07   19.96
   7 -12   3   10.07    9.62
  -7  12   3    3.75    8.52
   7 -12  -3   23.18    9.92
  -7  12  -3   18.48   10.23
   7  12  -4  143.36   33.75
  -7 -12   4   91.54   27.46
   7 -12   4   69.92   19.20
  -7  12   4   54.31   15.34
   7 -12  -4   50.15   14.62
  -7  12  -4  106.50   25.49
   7  12  -5   47.50   19.96
  -7 -12   5   -6.82   20.45
   7 -12   5   -8.67   10.68
  -7  12   5    6.14    9.13
   7 -12  -5  -11.63    8.67
  -7  12  -5    3.52    9.28
   7  12  -6   -3.86   19.85
  -7 -12   6  -11.59   24.13
   7 -12   6  -15.26   10.79
  -7  12   6    3.64    9.13
   7 -12  -6   -6.06    8.71
  -7  12  -6  -10.42    9.54
   7  12  -7  -19.13   19.43
  -7 -12   7  -17.20   23.67
   7 -12   7   -2.42   11.59
  -7  12   7   -7.04   10.11
   7 -12  -7    0.08    9.92
  -7  12  -7    8.29   10.68
   7 -12   8    2.31   10.11
  -7  12   8   10.15    8.98
   7 -12  -8    9.70    8.98
  -7  12  -8   18.52   10.42
   7 -13   0   -5.15    7.95
  -7  13   0   16.70    9.51
   7 -13   1  169.11   37.53
  -7  13   1  188.77   41.74
   7 -13  -1  172.71   38.37
  -7  13  -1  162.86   36.28
   7 -13   2   45.60   14.13
  -7  13   2   45.00   14.24
  -7  13  -2   43.86   13.10
  -7 -13   3   42.69   20.68
   7 -13   3   12.01   10.42
  -7  13   3   33.75   12.04
   7 -13  -3   21.59   10.15
  -7  13  -3   -1.10    7.65
   7  13  -4   42.57   19.32
  -7 -13   4   24.39   20.07
   7 -13   4   66.13   18.56
  -7  13   4   63.97   17.38
   7 -13  -4   76.66   19.54
  -7  13  -4   38.06   12.95
   7  13  -5   22.23   18.10
  -7 -13   5   20.45   22.84
   7 -13   5   41.70   14.77
  -7  13   5   49.09   14.70
   7 -13  -5   32.38   11.85
  -7  13  -5   33.90   12.69
   7  13  -6   37.31   20.72
  -7 -13   6   42.84   22.91
   7 -13   6   19.05   13.37
  -7  13   6   15.72   10.91
   7 -13  -6   14.70   11.02
  -7  13  -6    3.98   10.95
   7  13  -7   17.12   21.21
  -7 -13   7   13.94   24.28
   7 -13   7    1.25   10.79
  -7  13   7   11.63    9.58
   7 -13  -7  -17.35    9.54
  -7  13  -7    6.06    9.81
  -7  13   8   17.38    9.47
   7 -13  -8   30.07   11.17
  -7  13  -8   11.25    9.36
   7 -14   0   -1.48    8.52
  -7  14   0   -6.36    9.13
   7 -14   1   -1.55    8.48
  -7  14   1   21.02   10.72
   7 -14  -1    2.84    8.90
  -7  14  -1   -3.11    8.18
   7 -14   2    3.56    8.94
  -7  14   2   12.01    9.92
  -7  14  -2    4.17    7.84
   7 -14   3   27.16   10.72
  -7  14   3   29.77   11.67
   7 -14  -3    9.51    9.39
  -7  14  -3   26.02   10.07
   7  14  -4   -2.05   16.66
  -7 -14   4  -10.11   20.49
   7 -14   4   -4.85    9.28
  -7  14   4    0.38    9.54
   7 -14  -4   -3.14    9.47
  -7  14  -4   -0.30    7.95
   7  14  -5    2.23   18.10
  -7 -14   5   10.23   19.77
   7 -14   5   34.13   13.63
  -7  14   5   16.51   11.14
   7 -14  -5   14.01   11.25
  -7  14  -5    2.88    8.79
   7  14  -6   13.90   17.84
  -7 -14   6   10.60   21.10
   7 -14   6   -8.79   11.10
  -7  14   6   10.57   10.23
   7 -14  -6    1.82    9.24
  -7  14  -6    9.47    7.99
   7 -14   7   18.26   10.68
  -7  14   7  -12.88    8.75
   7 -14  -7   -5.95    8.37
  -7  14  -7    5.53    7.23
   7 -15   0    8.82    8.79
  -7  15   0    2.99    8.14
   7 -15   1   20.19   10.49
  -7  15   1   23.86   11.10
   7 -15  -1    8.64    9.77
  -7  15  -1   15.95    9.51
   7 -15   2   30.22   11.89
  -7  15   2   14.39   10.79
  -7  15  -2   12.42    9.24
   7 -15   3   15.07   10.42
  -7  15   3   15.00   11.29
   7 -15  -3   24.58   12.08
  -7  15  -3    5.11    9.05
   7 -15   4   -7.84    9.85
  -7  15   4   -1.82   10.19
   7 -15  -4    6.36   10.60
  -7  15  -4    6.78    8.82
   7  15  -5   33.14   19.92
  -7 -15   5  -29.73   20.98
   7 -15   5    8.18    9.13
  -7  15   5    7.01   10.00
   7 -15  -5   -3.98    9.32
  -7  15  -5   -2.01    7.73
   7 -15   6   11.67    8.56
  -7  15   6   -0.80    8.64
   7 -15  -6   16.10   10.07
  -7  15  -6   11.02    7.39
   7 -16   0  -24.69   11.25
  -7  16   0   -9.28    9.77
   7 -16   1   12.73   10.72
  -7  16   1    6.74   11.25
   7 -16  -1    8.75   10.87
  -7  16  -1   32.91   12.65
   7 -16   2   32.42   12.12
  -7  16   2   -8.22   10.57
  -7  16  -2    1.48    9.20
   7 -16   3   40.72   13.98
  -7  16   3   29.66   12.39
   7 -16  -3   29.62   12.12
  -7  16  -3   18.94    9.77
   7 -16   4    8.48    9.36
  -7  16   4   10.15   10.00
   7 -16  -4   19.01   10.57
  -7  16  -4   -0.15    7.84
   7 -16   5   17.50    9.47
  -7  16   5    2.12    9.01
   7 -16  -5    9.36    9.17
  -7  16  -5   10.91    7.80
   7 -17   0    2.08    8.79
  -7  17   0   -0.87    8.14
   7 -17   1    5.34    9.47
  -7  17   1    9.43    9.62
   7 -17  -1   19.51   10.34
  -7  17  -1   19.77    9.54
   7 -17   2    1.51    8.71
  -7  17   2   -5.57    9.13
  -7  17  -2    9.17    8.60
   7 -17   3    3.22    8.33
  -7  17   3    6.17    9.09
   7 -17  -3    7.54    9.17
  -7  17  -3    3.71    7.57
   8   0   8  670.01  134.23
   8   0  -8  713.94  143.24
  -8   0  -8  615.47  123.74
   8   0   9   -7.20   19.96
  -8   0   9   -0.38   24.16
   8   0  -9    3.79   20.76
  -8   0  -9   -7.92   20.11
   8   0  10  118.02   33.78
  -8   0  10   45.75   24.92
   8   0 -10   86.13   28.90
  -8   0 -10   46.66   24.24
   8   0 -11   12.99   22.23
   8   1  -7  192.03   42.08
  -8  -1  -7  178.66   39.66
   8   1   7  155.70   35.19
  -8  -1   7  177.63   41.36
   8  -1   8   -2.73   18.86
   8   1  -8   32.95   19.54
  -8  -1  -8    1.21   18.10
   8   1   8   -7.99   17.95
  -8  -1   8   35.79   21.66
   8  -1   9   37.69   23.18
   8   1  -9   52.27   25.41
  -8  -1  -9   12.76   18.14
   8   1   9   24.43   22.54
  -8  -1   9   35.94   24.28
  -8   1  -9   43.75   22.35
   8  -1  10   -1.89   22.84
  -8   1  10  -36.81   23.86
   8   1 -10   36.13   23.75
  -8  -1 -10  -18.26   22.16
   8   1  10   17.65   20.98
  -8  -1  10   25.57   24.88
   8  -1 -10    8.48   20.83
  -8   1 -10   11.48   19.51
   8   1  11   15.87   23.44
   8  -1 -11    3.75   22.88
   8   2  -5   55.56   22.91
   8   2  -6   32.50   22.01
   8   2   6   43.90   16.97
  -8  -2   6   40.22   23.41
   8   2  -7   36.85   17.50
   8   2   7   20.64   15.53
  -8  -2   7   16.13   20.00
   8   2  -8   81.96   25.87
  -8  -2  -8  100.33   27.04
   8   2   8   62.57   22.38
  -8  -2   8   67.30   26.40
   8  -2   9   -0.34   20.30
   8   2  -9   47.80   23.14
  -8  -2  -9    5.64   20.07
   8   2   9   15.64   19.96
  -8  -2   9  -12.61   24.20
   8  -2  10  -19.92   23.22
   8   2 -10  -35.79   23.26
   8   2  10   66.85   24.73
  -8  -2  10   -6.82   24.58
  -8   2 -10    9.36   21.36
   8   3  -4    5.68   20.87
  -8  -3   4  -36.02   23.67
  -8  -3   5   52.57   24.09
   8   3  -6   64.31   24.16
  -8  -3  -6   48.21   19.88
   8   3   6   55.64   19.09
  -8  -3   6   65.33   25.26
   8   3  -7   46.89   18.94
  -8  -3  -7   65.86   21.06
   8   3   7   63.36   19.85
  -8  -3   7  109.57   30.64
   8   3  -8   17.88   20.04
  -8  -3  -8   17.42   19.54
   8   3   8   15.00   18.29
  -8  -3   8   20.91   22.38
   8   3  -9   11.67   21.10
  -8  -3  -9    7.27   20.60
   8   3   9   33.06   23.75
  -8  -3   9   32.84   25.60
   8  -3  10  -18.03   20.38
   8   3 -10   38.90   27.42
  -8  -3 -10   58.14   26.13
   8   3  10   13.82   21.06
  -8  -3  10  -24.81   23.60
  -8   3 -10   27.08   22.54
   8   4  -3    7.16   23.29
  -8  -4   3   34.69   23.48
   8   4  -4   21.17   24.05
  -8  -4   4   58.21   28.63
   8   4  -5  -15.83   20.11
   8   4   5    4.32   13.67
  -8  -4   5   15.45   20.49
  -8  -4  -6   24.92   16.02
   8   4   6    5.49   14.39
  -8  -4   6  -13.45   19.85
   8   4  -7   21.63   19.16
  -8  -4  -7    7.65   15.30
   8   4   7   10.60   17.42
  -8  -4   7  -21.63   20.87
   8   4  -8   32.42   20.53
  -8  -4  -8  -12.88   17.99
   8   4   8   19.32   19.09
  -8  -4   8   30.19   23.41
   8   4  -9    1.44   21.63
  -8  -4  -9   24.39   21.36
   8   4   9   24.13   20.49
  -8  -4   9  -28.10   25.68
   8   4 -10    7.01   23.14
  -8  -4 -10    7.08   23.14
   8   4  10   26.85   20.26
  -8  -4  10   50.34   28.14
   8   5  -1   43.63   16.78
  -8  -5   1   25.83   16.40
   8   5  -2   11.14   19.62
  -8  -5   2    2.08   18.79
   8   5  -3  445.03   90.82
  -8  -5   3  453.74   92.91
   8   5  -4   -6.06   17.84
  -8  -5  -4  -11.82   11.63
   8   5   4  -12.57   12.80
  -8  -5   4   21.82   21.29
   8   5  -5  317.13   66.93
   8   5   5  330.57   66.81
  -8  -5   5  310.08   65.22
   8   5  -6   59.27   22.69
  -8  -5  -6  101.96   25.26
   8   5   6   71.70   21.74
  -8  -5   6   95.56   28.41
  -8  -5  -7 1054.44  208.99
   8   5   7 1232.83  243.84
  -8  -5   7 1047.24  208.80
   8   5  -8    5.95   21.06
  -8  -5  -8   -1.06   20.04
   8   5   8  -14.39   16.78
  -8  -5   8    9.96   22.35
  -8   5   8   25.98   10.98
   8   5  -9  182.56   44.12
  -8  -5  -9  179.87   41.97
   8   5   9  202.67   45.60
  -8  -5   9  206.72   49.28
  -8   5   9  172.52   38.06
   8  -5  -9  154.83   34.69
   8   5 -10   -1.33   23.03
  -8  -5 -10   16.10   20.07
   8   5  10   -3.90   19.01
  -8  -5  10    8.41   22.84
  -8   5  10   10.15   10.87
   8  -5 -10   12.84    9.36
  -8   5  11   19.96    9.58
   8  -5 -11   -6.48    7.23
   8   6   0   50.22   16.48
  -8  -6   0   58.90   18.94
   8   6  -1  -10.04   16.66
  -8  -6   1   22.95   17.35
   8   6  -2   26.47   20.11
  -8  -6   2   12.08   17.31
   8   6  -3  -10.64   20.19
  -8  -6   3    8.56   21.93
   8   6  -4    7.42   17.69
  -8  -6  -4   11.17   10.76
   8   6   4  -10.23   10.49
  -8  -6   4    7.04   19.09
  -8   6   4    2.12    9.20
   8   6  -5   -8.79   19.43
  -8  -6  -5   -7.23   13.14
   8   6   5  -13.79   12.31
  -8  -6   5    6.29   19.09
  -8   6   5    1.97    9.13
   8  -6  -5  -12.95    9.51
   8   6  -6  -14.62   19.62
  -8  -6  -6   10.11   16.29
   8   6   6   23.26   14.32
  -8  -6   6   10.95   19.35
  -8   6   6  -13.82   10.57
   8  -6  -6    0.83    8.60
   8   6  -7   17.91   19.16
  -8  -6  -7  -13.79   15.87
   8   6   7   -9.77   16.32
  -8  -6   7    0.87   22.23
  -8   6   7    8.56    9.85
   8  -6  -7   -5.19    7.99
  -8  -6  -8   74.77   24.92
   8   6   8   77.23   23.37
  -8  -6   8   70.22   28.41
  -8   6   8   45.03   14.66
   8  -6  -8   51.66   14.58
   8   6  -9   39.43   25.91
  -8  -6  -9    6.82   19.51
   8   6   9   14.81   19.51
  -8  -6   9   23.52   24.66
  -8   6   9   13.10   10.72
   8  -6  -9   -1.36    8.82
   8   6 -10   22.99   22.88
  -8  -6 -10    1.93   19.81
   8   6  10    4.58   20.26
  -8  -6  10   52.04   26.47
  -8   6  10   21.40   11.32
   8  -6 -10   29.96   11.06
   8   7   0   16.82   13.79
  -8  -7   0    2.31   14.62
   8  -7   0    4.01    9.58
  -8   7   0    5.04   13.56
   8   7  -1   51.74   18.33
  -8  -7  -1   32.42   12.42
   8   7   1   42.53   12.80
  -8  -7   1   18.26   16.70
  -8   7   1   34.01   12.95
   8  -7  -1   40.94   13.33
  -8   7  -1   -2.58   13.26
   8   7  -2    4.51   17.57
  -8  -7   2   36.40   19.28
  -8   7   2  -20.30   10.60
   8   7  -3   -8.03   17.16
  -8  -7  -3    5.45    6.78
   8   7   3    4.01    6.78
  -8  -7   3   -3.22   19.16
  -8   7   3   11.44   10.26
   8  -7  -3   11.06    9.89
   8   7  -4   17.73   19.16
  -8  -7  -4    7.23   10.38
   8   7   4    6.10    9.24
  -8  -7   4   -2.46   18.60
  -8   7   4   -4.09    9.89
   8  -7  -4    3.75    9.58
   8   7  -5   48.75   20.79
  -8  -7  -5   67.72   17.88
   8   7   5   62.30   16.44
  -8  -7   5   42.27   20.19
  -8   7   5   16.21   10.45
   8  -7  -5   51.70   15.11
   8   7  -6  -23.79   23.44
   8   7   6   10.64   12.88
  -8  -7   6   14.01   21.44
  -8   7   6   -2.80    8.94
   8  -7  -6   -8.03    8.79
   8   7  -7   35.00   22.57
  -8  -7  -7   19.69   15.91
   8   7   7    9.62   17.54
  -8  -7   7   40.22   25.68
  -8   7   7   19.32   11.17
   8  -7  -7    4.17    8.75
   8   7  -8   -3.52   18.33
  -8  -7  -8    1.06   17.54
   8   7   8    9.01   17.80
  -8  -7   8   24.58   23.79
  -8   7   8   -5.64   10.23
   8  -7  -8    6.63    8.67
  -8  -7  -9   17.04   19.81
   8   7   9  -10.26   17.73
  -8  -7   9    5.42   25.45
  -8   7   9   20.68   12.20
   8  -7  -9   17.38   10.07
  -8   7  10   14.81   10.60
   8  -7 -10   10.07    8.98
   8   8   0  337.69   68.02
  -8  -8   0  227.55   47.04
   8  -8   0  454.50   96.43
  -8   8   0  453.36   96.32
   8   8  -1   10.42   14.62
  -8  -8   1   41.06   16.51
   8  -8   1    2.08    9.66
  -8   8   1   -1.33    9.70
   8  -8  -1   17.54   10.30
  -8   8  -1   10.23   13.48
   8   8  -2   14.85   15.30
  -8  -8   2   70.30   22.80
   8  -8   2    5.91    9.70
  -8   8   2   27.38   11.82
  -8   8  -2    0.45   13.45
   8   8  -3   49.62   20.94
  -8  -8   3  112.72   29.32
   8  -8   3   82.57   21.25
  -8   8   3   68.89   18.41
   8  -8  -3   76.73   19.73
  -8   8  -3   49.16   17.54
   8   8  -4  132.45   32.65
  -8  -8  -4   85.03   19.20
   8   8   4   73.89   16.89
  -8  -8   4  106.05   27.99
   8  -8   4   58.86   16.97
  -8   8   4   99.31   24.16
   8  -8  -4  102.30   24.51
  -8   8  -4   65.26   19.13
   8   8  -5   83.82   25.04
  -8  -8  -5  115.63   25.79
   8   8   5  106.09   23.90
  -8  -8   5  122.72   31.10
  -8   8   5  106.43   25.26
   8  -8  -5  100.90   24.05
  -8   8  -5  101.66   25.38
   8   8  -6   51.02   21.40
   8   8   6   63.44   17.50
  -8  -8   6   69.80   27.65
  -8   8   6   83.25   20.57
   8  -8  -6   64.88   17.04
   8   8  -7    0.49   21.13
  -8  -8  -7   48.63   19.28
   8   8   7   20.49   16.17
  -8  -8   7    2.27   24.73
  -8   8   7   13.79    9.62
   8  -8  -7   19.05    9.85
   8   8  -8   68.86   26.17
  -8  -8  -8   74.16   23.37
   8   8   8   60.45   22.19
  -8  -8   8   53.48   24.47
  -8   8   8   44.84   14.62
   8  -8  -8   25.79   10.53
   8   8  -9   -9.39   18.90
  -8  -8  -9  -13.90   18.82
   8   8   9    5.38   18.33
  -8  -8   9    2.54   23.90
  -8   8   9   21.63   12.69
   8  -8  -9   10.60   10.19
  -8   8  10   -2.27    9.73
   8  -8 -10    0.08    7.92
   8   9   0   14.73   13.37
  -8  -9   0   14.28   12.04
   8  -9   0    5.49    9.66
  -8   9   0   -2.95   10.00
   8   9  -1   27.16   15.87
  -8  -9  -1   -4.24   10.42
  -8  -9   1   13.71   14.96
   8  -9   1   15.00   10.34
  -8   9   1   36.85   13.48
   8  -9  -1   24.77   11.59
  -8   9  -1    1.55   13.22
   8   9  -2  -14.39   15.23
  -8  -9   2   18.71   16.63
   8  -9   2    7.39   10.15
  -8   9   2   -4.43   10.07
  -8   9  -2  -18.45   13.71
   8   9  -3   35.45   19.01
  -8  -9   3   59.05   20.64
   8  -9   3   42.12   14.62
  -8   9   3   17.16   11.02
   8  -9  -3   29.43   12.12
  -8   9  -3   12.95   13.48
   8   9  -4   19.43   18.26
  -8  -9   4   20.19   17.46
   8  -9   4  -11.82   10.42
  -8   9   4  -19.13   10.30
   8  -9  -4   -7.20    9.54
  -8   9  -4    8.41    9.51
   8   9  -5   18.14   21.97
  -8  -9  -5    9.39   11.44
  -8  -9   5   27.04   19.39
   8  -9   5    1.55   10.15
   8  -9  -5  -31.17   11.63
  -8   9  -5   10.45    9.70
   8   9  -6   -0.11   18.48
   8   9   6  -33.67   13.90
  -8  -9   6  -20.87   22.08
   8  -9   6   11.36   10.30
  -8   9   6  -13.48   10.07
   8  -9  -6    8.48   10.15
  -8   9  -6    6.93    8.98
   8   9  -7    2.95   22.23
  -8  -9  -7   18.52   16.02
   8   9   7   16.89   16.10
  -8  -9   7   28.10   24.85
   8  -9   7   13.60   10.64
  -8   9   7   23.94   11.14
   8  -9  -7    8.14    9.43
  -8   9  -7    1.06    9.13
   8   9  -8   15.23   21.25
  -8  -9  -8  -13.33   17.38
   8   9   8   29.20   17.54
  -8  -9   8   15.83   23.52
   8  -9   8    1.14   10.53
  -8   9   8  -11.74    9.92
   8  -9  -8  -12.39    9.58
  -8   9  -8   -4.58    9.51
   8   9  -9  -16.78   21.32
  -8  -9  -9    6.70   16.32
   8   9   9    7.16   16.36
  -8  -9   9   15.00   22.04
  -8   9   9   13.56   11.36
   8  -9  -9    8.18    9.51
  -8   9  -9    5.64    9.58
  -8   9  10    5.30    9.73
   8  -9 -10    6.36    8.29
  -8   9 -10    3.71    7.99
   8  10   0   12.84   11.02
  -8 -10   0    7.73   11.21
   8 -10   0   23.18   11.36
  -8  10   0   15.07   11.40
   8  10  -1   33.63   14.66
  -8 -10   1   53.25   18.18
   8 -10   1   25.49   11.70
  -8  10   1   26.17   12.04
   8 -10  -1   15.00   10.60
  -8  10  -1   23.79   11.85
   8  10  -2   22.38   15.95
  -8 -10   2   10.83   14.96
   8 -10   2   24.96   11.40
  -8  10   2   38.75   13.79
  -8  10  -2   19.62   11.14
   8  10  -3  -13.33   18.10
  -8 -10   3   -4.96   16.32
   8 -10   3   14.28   11.36
  -8  10   3    9.92    9.92
   8 -10  -3    0.80    9.54
  -8  10  -3    9.47    9.81
   8  10  -4  276.11   58.67
  -8 -10   4  235.28   51.24
   8 -10   4  263.95   57.27
  -8  10   4  264.94   57.42
   8 -10  -4  269.29   58.25
  -8  10  -4  219.86   48.18
   8  10  -5   42.08   22.35
  -8 -10   5   28.67   20.41
   8 -10   5   51.93   15.57
  -8  10   5   44.65   13.94
   8 -10  -5   44.24   13.82
  -8  10  -5   20.15   10.64
   8  10  -6  280.20   60.03
  -8 -10   6  264.94   57.99
   8 -10   6  195.21   43.29
  -8  10   6  167.45   37.53
   8 -10  -6  254.60   55.34
  -8  10  -6  267.62   57.87
   8  10  -7   58.86   24.05
  -8 -10  -7   15.26   14.39
   8  10   7   29.47   16.36
  -8 -10   7   12.08   23.63
   8 -10   7   -1.48   10.00
  -8  10   7    9.66    9.81
   8 -10  -7    7.08    9.17
  -8  10  -7    0.11    9.09
   8  10  -8   49.88   22.01
  -8 -10  -8   81.92   23.86
   8  10   8   34.47   16.55
  -8 -10   8  115.29   34.43
   8 -10   8   93.55   23.60
  -8  10   8   47.00   15.68
   8 -10  -8   82.34   21.10
  -8  10  -8   70.90   19.16
   8 -10   9    0.04    9.62
  -8  10   9    3.71    8.86
   8 -10  -9   12.23    9.20
  -8  10  -9    7.35    9.32
   8 -11   0   10.91    9.89
  -8  11   0    7.61   10.19
   8  11  -1    0.57   13.14
  -8 -11   1   -0.49   14.51
   8 -11   1   12.04    9.73
  -8  11   1   16.29   10.83
   8 -11  -1   18.48   10.57
  -8  11  -1    6.59   10.42
   8  11  -2   12.73   16.40
  -8 -11   2  -11.67   15.15
   8 -11   2   -4.62    9.51
  -8  11   2  -13.37    9.92
  -8  11  -2    1.02    9.62
   8  11  -3    9.66   16.32
  -8 -11   3    4.39   18.03
   8 -11   3   -0.23    9.05
  -8  11   3    5.61    9.70
   8 -11  -3    1.29    9.47
  -8  11  -3   17.16   10.34
   8  11  -4    1.74   16.02
  -8 -11   4   -9.43   19.51
   8 -11   4   17.54   10.95
  -8  11   4   -2.20    9.47
   8 -11  -4  -11.85    9.39
  -8  11  -4   -0.68    9.01
   8  11  -5   -5.30   16.55
  -8 -11   5   20.60   20.30
   8 -11   5   12.73   11.10
  -8  11   5    4.32    9.81
   8 -11  -5    2.42    9.62
  -8  11  -5   10.07    9.89
   8  11  -6   27.57   23.37
  -8 -11   6  -23.41   23.03
   8 -11   6    4.55   10.19
  -8  11   6    3.48    9.24
   8 -11  -6    3.41    9.28
  -8  11  -6    8.75    9.43
   8  11  -7   30.45   21.97
  -8 -11   7  -17.23   24.13
   8 -11   7    7.46   11.48
  -8  11   7    6.36   10.91
   8 -11  -7    2.65   10.42
  -8  11  -7  -11.48   10.11
   8  11  -8    9.51   20.68
  -8 -11  -8   -7.20   15.72
  -8 -11   8   42.31   24.24
   8 -11   8    8.45   10.72
  -8  11   8    5.11    9.24
   8 -11  -8    9.92   10.04
  -8  11  -8   -0.76    9.51
  -8  11   9    5.79    8.03
   8 -11  -9    5.76    8.45
  -8  11  -9    0.61    8.48
   8 -12   0  112.94   26.47
  -8  12   0  151.35   34.31
   8 -12   1  -13.90    9.58
  -8  12   1   -4.05    9.32
   8 -12  -1   16.70    9.89
  -8  12  -1   -3.75   10.19
   8  12  -2  -42.72   17.61
  -8 -12   2    6.89   17.91
   8 -12   2   -3.75    9.39
  -8  12   2   10.23    9.89
  -8  12  -2    5.23    9.77
   8  12  -3    7.69   14.47
  -8 -12   3   -1.82   18.18
   8 -12   3    2.35    9.70
  -8  12   3  -10.83   10.07
   8 -12  -3   13.63   10.34
  -8  12  -3   13.48   10.38
   8  12  -4   22.50   17.31
  -8 -12   4  -32.35   21.32
   8 -12   4   -2.23   10.30
  -8  12   4    4.96    9.85
   8 -12  -4    5.64   10.04
  -8  12  -4  -16.82    9.77
   8  12  -5   -2.95   18.29
  -8 -12   5   23.79   23.37
   8 -12   5    3.18   10.91
  -8  12   5   10.98   10.19
   8 -12  -5   -2.69   10.19
  -8  12  -5    8.07    9.73
   8  12  -6   -1.10   18.63
  -8 -12   6   49.84   25.45
   8 -12   6   36.44   14.28
  -8  12   6   26.40   11.85
   8 -12  -6   23.90   12.35
  -8  12  -6   -2.76   10.23
   8  12  -7   20.53   21.36
  -8 -12   7    4.62   22.27
   8 -12   7    4.32   11.36
  -8  12   7   16.70   10.53
   8 -12  -7   -7.01    9.54
  -8  12  -7   -5.00   10.23
   8 -12   8   20.98   11.21
  -8  12   8   15.00    8.90
   8 -12  -8   13.67    8.56
  -8  12  -8   16.51    9.73
   8 -13   0   27.46   12.01
  -8  13   0   61.36   17.57
   8 -13   1   10.95    9.96
  -8  13   1    0.61   10.04
   8 -13  -1    3.98    9.85
  -8  13  -1   22.38   11.70
  -8 -13   2  -13.52   19.13
   8 -13   2   12.84   10.19
  -8  13   2    2.88    9.32
  -8  13  -2    7.12   10.60
   8  13  -3  116.54   28.63
  -8 -13   3  146.54   35.45
   8 -13   3  153.28   34.96
  -8  13   3  215.62   47.46
   8 -13  -3  192.22   42.84
  -8  13  -3  185.06   41.32
   8  13  -4   -0.87   17.42
  -8 -13   4   24.81   20.04
   8 -13   4    7.31   10.83
  -8  13   4    8.29    9.32
   8 -13  -4  -13.75    9.13
  -8  13  -4   -2.95    9.09
   8  13  -5   11.36   16.51
  -8 -13   5   17.57   22.88
   8 -13   5    0.04   12.08
  -8  13   5   14.85   10.60
   8 -13  -5    5.79    9.92
  -8  13  -5   -0.98   10.95
   8  13  -6   62.72   21.93
  -8 -13   6   81.66   27.84
   8 -13   6   36.13   15.11
  -8  13   6   67.95   18.75
   8 -13  -6   60.64   17.50
  -8  13  -6   55.41   16.74
   8 -13   7    2.16   10.76
  -8  13   7   16.21    9.89
   8 -13  -7   17.08    9.92
  -8  13  -7   17.01   10.19
   8 -14   0   12.92   10.45
  -8  14   0    5.11    8.22
   8 -14   1   -6.36    9.96
  -8  14   1   -9.39    9.28
   8 -14  -1  -14.05    9.05
  -8  14  -1    4.58    8.18
   8 -14   2   89.16   22.16
  -8  14   2   68.55   18.37
  -8  14  -2   98.40   23.71
   8  14  -3   -8.71   16.36
  -8 -14   3  -29.28   20.23
   8 -14   3    1.63   10.60
  -8  14   3   -1.55    9.58
   8 -14  -3   -5.08    9.36
  -8  14  -3   -6.51   10.64
   8  14  -4  -17.65   16.25
  -8 -14   4   42.65   21.44
   8 -14   4    9.39   12.42
  -8  14   4   21.29   11.48
   8 -14  -4    1.67   10.15
  -8  14  -4    5.34   10.45
   8  14  -5   43.56   20.41
  -8 -14   5   11.02   21.06
   8 -14   5    0.45   11.97
  -8  14   5    8.29   10.87
   8 -14  -5   24.69   11.63
  -8  14  -5    6.17   10.64
   8 -14   6   28.86   12.73
  -8  14   6    6.97    9.36
   8 -14  -6   36.89   12.42
  -8  14  -6   22.61   11.29
   8 -15   0   -8.03    9.51
  -8  15   0    3.98    9.01
   8 -15   1   78.97   20.30
  -8  15   1  145.17   33.63
   8 -15  -1  115.67   27.46
  -8  15  -1  122.98   28.75
   8 -15   2   11.51   10.57
  -8  15   2   -4.36   10.72
  -8  15  -2   -1.74    9.39
   8 -15   3   27.38   14.05
  -8  15   3   56.70   17.23
   8 -15  -3   30.98   13.18
  -8  15  -3   29.69   12.08
   8  15  -4    5.68   16.59
  -8 -15   4    2.42   18.75
   8 -15   4   27.99   12.39
  -8  15   4  -10.07    9.96
   8 -15  -4   -4.62    9.70
  -8  15  -4    6.59    8.14
   8 -15   5   30.75   13.10
  -8  15   5   20.11   10.60
   8 -15  -5    4.96    9.09
  -8  15  -5   -2.01    8.45
   8 -16   0   12.16   10.34
  -8  16   0   23.97   11.32
   8 -16   1   14.43   10.45
  -8  16   1   12.65   10.68
   8 -16  -1   16.93   10.57
  -8  16  -1   10.26    9.36
   8 -16   2   51.51   15.30
  -8  16   2   16.21   11.25
  -8  16  -2   22.69   10.53
   8 -16   3   -7.04    9.01
  -8  16   3   -3.30    9.32
   8 -16  -3    0.38    9.01
  -8  16  -3   -6.67    7.88
   8 -16   4   55.30   15.68
  -8  16   4   42.53   13.82
   8 -16  -4   33.56   12.39
  -8  16  -4   26.40   10.19
   8 -17   0   20.23    9.77
  -8  17   0   -8.67    8.14
   8 -17   1   -3.07    8.22
  -8  17   1   -3.75    9.36
   8 -17  -1   -0.76    8.52
  -8  17  -1   -1.40    8.45
   8 -17   2    9.32    9.43
   9   0   9   22.35   22.61
   9   0  -9   41.09   22.16
  -9   0  -9   34.66   21.66
   9   0  10   13.60   20.76
  -9   0  10  -21.36   23.03
   9   0 -10   30.19   21.63
  -9   0 -10   37.69   22.46
   9   1  -8  -23.41   18.67
  -9  -1  -8   -9.81   17.65
   9   1   8    5.68   20.15
  -9  -1   8  -11.06   22.12
   9  -1   9  -29.28   23.56
   9   1  -9   34.47   23.07
  -9  -1  -9  -17.23   20.91
   9   1   9    4.73   18.75
  -9  -1   9   81.39   29.96
   9  -1  10   15.34   22.23
   9   1 -10    7.01   22.46
  -9  -1 -10    3.22   18.63
   9   1  10   13.94   19.35
  -9  -1  10   -5.87   23.48
  -9   1 -10  -44.69   24.05
   9   2  -6   59.08   22.65
   9   2  -7   -7.04   17.27
   9   2   7   17.69   15.60
  -9  -2   7   27.91   21.29
   9   2  -8    6.89   19.54
  -9  -2  -8  -11.48   18.26
   9   2   8   -3.86   18.10
  -9  -2   8   -6.89   20.45
   9   2  -9   -6.74   21.48
  -9  -2  -9   11.67   20.72
   9   2   9  -27.57   21.44
  -9  -2   9   42.19   26.10
   9  -2  10   23.97   22.91
   9   2 -10    6.10   23.86
  -9  -2 -10  -14.17   19.39
   9   2  10   10.68   20.79
  -9  -2  10    6.55   21.51
   9   3  -5  107.34   28.71
  -9  -3   5  108.10   30.03
  -9  -3   6  -13.45   20.87
   9   3  -7   83.51   25.98
  -9  -3  -7   98.74   25.75
   9   3   7   88.36   24.09
  -9  -3   7   62.61   24.47
   9   3  -8   -1.67   20.34
  -9  -3  -8  -12.69   17.04
   9   3   8  -37.04   19.69
  -9  -3   8   27.42   22.88
   9   3  -9   77.61   27.80
  -9  -3  -9   31.78   21.40
   9   3   9   41.59   20.98
  -9  -3   9   14.54   23.48
   9   3 -10   -0.34   20.38
  -9  -3 -10    8.82   21.78
   9   3  10  -14.47   19.32
  -9  -3  10  -18.37   23.75
  -9  -4   4   29.20   20.15
   9   4  -5  -13.22   20.23
  -9  -4   5   -4.55   17.91
   9   4  -6   18.98   18.71
  -9  -4  -6   10.83   14.05
   9   4   6   -1.40   14.77
  -9  -4   6  -21.29   19.13
  -9  -4  -7    8.29   17.04
   9   4   7   11.36   15.83
  -9  -4   7  -15.91   22.12
   9   4  -8   13.18   23.07
  -9  -4  -8   -6.51   20.04
   9   4   8   39.50   18.75
  -9  -4   8   20.30   23.22
   9   4  -9  -23.90   21.74
  -9  -4  -9   23.86   20.19
   9   4   9  -12.61   19.62
  -9  -4   9    7.12   23.82
   9   4 -10  -10.23   21.66
  -9  -4 -10   17.12   20.07
   9   4  10   -0.27   19.13
  -9  -4  10   57.84   25.53
   9   5  -2    3.75   17.80
  -9  -5   2  -39.77   20.19
   9   5  -3   14.13   18.82
  -9  -5   3  -16.10   20.64
   9   5  -4   40.98   19.43
  -9  -5   4   47.61   21.55
   9   5  -5  125.06   32.23
  -9  -5  -5   40.94   14.01
   9   5   5   68.63   18.14
  -9  -5   5   35.79   19.20
   9   5  -6   -9.39   20.38
  -9  -5  -6   -2.08   14.54
   9   5   6   15.91   13.98
  -9  -5   6   14.62   21.78
   9   5  -7   24.01   21.40
  -9  -5  -7   15.15   16.32
   9   5   7   32.53   17.99
  -9  -5   7   17.31   23.26
  -9  -5  -8   12.54   20.07
   9   5   8   26.51   18.63
  -9  -5   8   22.57   25.11
   9   5  -9   28.90   24.58
  -9  -5  -9   44.69   21.74
   9   5   9   32.04   20.26
  -9  -5   9   -7.57   22.95
   9   5 -10   -4.43   21.70
  -9  -5 -10  -36.55   22.19
   9   5  10    7.50   20.57
  -9  -5  10    3.30   23.07
   9   6  -1  -10.79   15.30
  -9  -6   1  -17.42   16.02
   9   6  -2   -3.60   16.82
  -9  -6   2  -23.18   17.95
   9   6  -3    4.96   17.65
  -9  -6   3   -9.47   18.71
   9   6  -4  -44.62   20.00
   9   6   4   -3.03    8.98
   9   6  -5    2.20   17.91
  -9  -6  -5   -2.58   11.93
   9   6   5   23.29   11.85
  -9  -6   5  -26.97   18.14
   9   6  -6  -32.16   21.06
  -9  -6  -6   -7.95   15.11
   9   6   6   -1.25   12.12
  -9  -6   6   -2.80   21.74
   9   6  -7   -5.72   20.94
  -9  -6  -7   -6.10   15.72
   9   6   7  -13.60   18.45
  -9  -6   7   34.62   25.19
  -9   6   7    4.47   10.30
   9   6  -8   23.29   21.40
  -9  -6  -8   -2.54   18.41
   9   6   8   38.67   19.62
  -9  -6   8    9.43   22.95
  -9   6   8   37.27   13.22
  -9  -6  -9  -14.35   20.34
   9   6   9   35.19   19.54
  -9  -6   9   -8.45   25.07
  -9   6   9    5.42   11.40
   9  -6  -9    1.44    9.39
  -9   6  10   10.45    9.96
   9  -6 -10    8.71    8.52
   9   7   0  -22.04   12.54
  -9  -7   0    2.84   12.95
   9   7  -1   54.65   18.14
  -9  -7   1   40.68   16.44
   9   7  -2    3.26   14.81
  -9  -7   2  -31.97   18.56
   9   7  -3   44.01   19.73
  -9  -7   3   56.89   21.55
  -9   7   3   91.13   22.50
   9   7  -4   16.02   18.33
  -9  -7  -4   -5.87    9.05
   9   7   4   16.44    9.09
  -9  -7   4   31.81   18.03
  -9   7   4   22.57   11.36
   9  -7  -4   11.02   10.07
   9   7  -5  136.24   33.25
  -9  -7  -5  159.83   33.90
   9   7   5  134.76   29.16
  -9  -7   5   80.98   24.96
  -9   7   5  170.40   38.06
   9  -7  -5  136.05   30.98
   9   7  -6  -21.66   18.67
   9   7   6   -4.20   11.74
  -9  -7   6   26.70   24.05
  -9   7   6  -12.54    8.82
   9  -7  -6   -5.72    8.11
   9   7  -7   20.94   21.97
  -9  -7  -7   35.34   17.84
   9   7   7   -5.00   15.34
  -9  -7   7    3.41   24.73
  -9   7   7   27.46   11.44
   9  -7  -7   26.66   10.83
   9   7  -8    7.88   21.32
  -9  -7  -8   15.15   17.65
   9   7   8   53.06   21.25
  -9  -7   8   24.62   21.93
  -9   7   8   -0.19   10.23
   9  -7  -8    7.95    8.64
   9   7  -9    2.61   19.58
  -9  -7  -9   21.74   19.39
   9   7   9   -2.73   18.26
  -9  -7   9   34.20   24.51
  -9   7   9    6.59   11.78
   9  -7  -9    3.71    9.73
  -9   7  10    4.05    9.54
   9  -7 -10    7.01    8.48
   9   8   0   -7.50   14.28
  -9  -8   0  -15.23   12.27
   9   8  -1  -26.66   15.64
  -9  -8  -1  -11.97    9.85
  -9  -8   1  -18.60   14.54
  -9   8   1   -0.34   10.30
   9  -8  -1   -9.70    9.54
  -9   8  -1   27.46   14.77
   9   8  -2   11.67   15.42
  -9  -8  -2    9.36    5.68
   9   8   2    9.92    6.02
  -9  -8   2   17.38   17.12
  -9   8   2   20.41   11.63
   9   8  -3  -28.22   17.80
  -9  -8   3    9.13   15.68
  -9   8   3   12.31   10.49
   9  -8  -3   19.28   11.17
  -9   8   4  651.07  137.64
   9  -8  -4  836.28  176.19
   9   8  -5   -8.82   21.59
  -9  -8  -5   10.60   11.85
   9   8   5   -7.88   11.10
  -9  -8   5    7.73   18.37
  -9   8   5  -11.44    9.85
   9  -8  -5   -8.79    9.51
   9   8  -6   31.17   20.34
  -9  -8  -6   40.11   14.13
   9   8   6   30.64   15.07
  -9  -8   6   62.61   25.83
  -9   8   6   62.80   17.04
   9  -8  -6   53.71   15.34
   9   8  -7    7.39   22.42
  -9  -8  -7   21.70   15.98
   9   8   7   23.18   15.72
  -9  -8   7  -21.85   24.05
  -9   8   7   11.17    9.81
   9  -8  -7   10.34    9.54
   9   8  -8  156.92   38.82
  -9  -8  -8   71.47   22.95
   9   8   8   75.30   23.14
  -9  -8   8  138.36   37.08
  -9   8   8   80.79   20.53
   9  -8  -8   30.26   12.12
   9   8  -9  -22.23   21.21
  -9  -8  -9   -4.58   15.95
   9   8   9    9.66   16.55
  -9  -8   9   47.91   23.56
  -9   8   9    1.74   11.40
   9  -8  -9    5.79    9.28
  -9   8  10   18.79   10.98
   9  -8 -10   23.79   10.23
   9   9   0   -2.88   12.31
  -9  -9   0   -2.88   11.97
   9  -9   0    1.40    9.66
  -9   9   0   12.12   10.79
  -9  -9  -1    3.94    9.70
   9   9   1    1.63    9.05
  -9  -9   1   11.97   13.60
   9  -9   1   15.57   10.95
  -9   9   1   23.26   11.93
   9  -9  -1   13.90   10.68
  -9   9  -1   13.98   11.25
   9   9  -2  -12.04   15.26
  -9  -9   2  -20.00   15.57
   9  -9   2    3.37    9.85
  -9   9   2   10.30   10.38
  -9   9  -2    4.47   10.07
   9   9  -3   -8.11   16.13
  -9  -9   3    0.42   16.32
   9  -9   3   17.46   11.44
  -9   9  -3    4.77   10.11
   9   9  -4   -9.81   17.95
  -9  -9  -4   42.46   13.52
  -9  -9   4  -12.35   19.05
   9  -9   4   -2.61   10.19
  -9   9   4    2.58    9.77
   9  -9  -4   21.44   10.68
   9   9  -5  -19.09   22.54
  -9  -9  -5  -16.55   11.48
   9   9   5   10.91   11.10
  -9  -9   5  -15.38   17.91
  -9   9   5    2.61    9.43
   9  -9  -5    7.65    9.28
  -9   9  -5    4.20    9.20
   9   9  -6   30.38   19.88
  -9  -9  -6   54.01   17.88
   9   9   6   38.03   15.26
  -9  -9   6   25.07   23.07
  -9   9   6    0.68    9.36
   9  -9  -6  -12.16    9.58
  -9   9  -6  -11.59    8.86
   9   9  -7  -45.45   22.19
  -9  -9  -7    9.89   15.30
   9   9   7    1.14   16.10
  -9  -9   7   -9.13   23.26
  -9   9   7   -3.14    9.32
   9  -9  -7   -3.86    8.45
   9   9  -8   14.32   18.94
  -9  -9  -8   -6.25   15.98
   9   9   8   23.94   16.21
  -9  -9   8  -11.17   24.01
  -9   9   8    8.71   11.25
   9  -9  -8    4.73   10.26
  -9   9   9  -11.06    9.09
   9  -9  -9    1.63    8.71
   9  10   0    6.10   12.08
  -9 -10   0    9.32   11.55
   9 -10   0   10.76   10.04
  -9  10   0   -2.50   10.07
   9  10  -1   -2.50   12.80
  -9 -10  -1  -18.98   10.95
  -9 -10   1  -19.09   15.68
   9 -10   1   -1.78    9.51
  -9  10   1    1.17    9.89
   9 -10  -1   -3.52    9.51
  -9  10  -1   -6.93   10.26
   9  10  -2   19.51   16.17
  -9 -10   2   18.41   16.02
   9 -10   2    9.09    9.89
  -9  10   2    5.04   10.04
  -9  10  -2    3.67   10.15
   9  10  -3   -7.23   15.30
  -9 -10   3   15.83   16.97
   9 -10   3  -19.96    9.85
  -9  10   3   -1.40   10.15
   9 -10  -3    4.39    9.54
  -9  10  -3   -1.14    9.70
   9  10  -4   59.01   22.84
  -9 -10   4   38.33   21.59
   9 -10   4   47.80   15.04
  -9  10   4   22.35   10.91
   9 -10  -4   18.14   10.34
   9  10  -5   32.04   18.07
  -9 -10   5    5.42   20.38
   9 -10   5   -8.07   10.45
  -9  10   5    4.70    9.89
   9 -10  -5   -2.80    9.51
  -9  10  -5   -6.59    9.36
   9  10  -6  -18.56   22.04
  -9 -10  -6   -2.27   14.17
   9  10   6   10.60   12.73
  -9 -10   6   53.86   24.35
   9 -10   6    9.36   10.68
  -9  10   6    4.89    9.81
   9 -10  -6   -1.33    9.77
  -9  10  -6   23.82   11.14
   9  10  -7    6.67   21.17
  -9 -10  -7   -7.35   14.62
   9  10   7   12.04   14.20
  -9 -10   7   32.88   24.92
   9 -10   7    6.63   10.95
  -9  10   7  -11.89   10.53
   9 -10  -7   15.26   10.64
  -9  10  -7   12.50   10.34
   9  10  -8   40.15   22.35
  -9 -10  -8   48.06   18.90
   9  10   8   46.17   18.14
  -9 -10   8   20.72   23.03
   9 -10   8   42.57   14.62
  -9  10   8   62.65   17.69
   9 -10  -8   52.99   15.49
  -9  10  -8   47.15   14.88
  -9  10   9   13.90    9.32
   9 -10  -9   -1.06    7.99
  -9  10  -9    3.26    8.60
   9  11   0   -9.62   12.04
  -9 -11   0   -2.42   12.31
   9 -11   0    3.60    9.36
  -9  11   0   -5.23    9.81
   9  11  -1   -1.55   13.90
  -9 -11   1    2.39   15.15
   9 -11   1    2.76    9.47
  -9  11   1    3.86    9.89
   9 -11  -1    1.17    9.51
  -9  11  -1    6.78   10.72
   9  11  -2   -1.36   14.24
  -9 -11   2   -5.91   16.97
   9 -11   2   19.81   10.42
  -9  11   2   11.51   10.11
  -9  11  -2    4.01    9.85
   9  11  -3   -4.36   14.88
  -9 -11   3  -21.70   17.84
   9 -11   3    4.09    9.17
  -9  11   3   -2.61    9.36
   9 -11  -3   -2.88    9.39
  -9  11  -3   -0.87    9.66
   9  11  -4   13.71   16.29
  -9 -11   4    7.20   19.81
   9 -11   4   19.51   11.74
  -9  11   4   13.33   10.68
   9 -11  -4    4.85   10.00
   9  11  -5    6.14   18.10
  -9 -11   5   18.52   21.97
   9 -11   5   17.04   11.70
  -9  11   5   12.20   10.98
   9 -11  -5    9.58   10.38
  -9  11  -5   39.43   13.29
   9  11  -6   21.70   20.07
  -9 -11   6    3.33   22.42
   9 -11   6  -10.15   11.44
  -9  11   6  -10.79   10.72
   9 -11  -6    0.80   10.53
  -9  11  -6   12.95   10.23
   9  11  -7    2.73   20.57
  -9 -11  -7    3.03   12.65
  -9 -11   7  -18.14   21.82
   9 -11   7    9.28   12.01
  -9  11   7    1.44   11.44
   9 -11  -7    0.30   10.64
  -9  11  -7   -7.16   10.64
   9 -11   8    0.45    9.92
  -9  11   8    5.08    9.58
   9 -11  -8  -11.02    9.17
  -9  11  -8   -0.23    9.36
   9 -12   0    2.20    9.66
  -9  12   0   -3.48    9.89
   9  12  -1   -6.14   12.80
  -9 -12   1   -8.11   16.21
   9 -12   1   22.61   11.10
  -9  12   1  -21.85   10.68
   9 -12  -1   -4.24    9.39
  -9  12  -1   -4.81   10.30
   9  12  -2   68.17   20.11
  -9 -12   2   82.15   23.60
   9 -12   2   54.99   15.98
  -9  12   2   62.08   17.61
  -9  12  -2   54.05   16.25
   9  12  -3  -22.08   16.59
  -9 -12   3  -32.42   19.85
   9 -12   3  -15.11   10.19
  -9  12   3    2.46   10.26
   9 -12  -3    2.16   10.23
  -9  12  -3  -15.83   10.49
   9  12  -4  293.76   61.62
  -9 -12   4  302.62   63.90
   9 -12   4  289.44   62.80
  -9  12   4  264.86   57.68
   9 -12  -4  262.93   57.19
   9  12  -5  -13.90   18.18
  -9 -12   5   13.10   23.75
   9 -12   5   10.07   11.78
  -9  12   5   11.25   10.68
   9 -12  -5   16.06   11.29
  -9  12  -5    2.92   10.49
   9  12  -6   43.29   20.30
  -9 -12   6   54.16   25.79
   9 -12   6   62.87   19.09
  -9  12   6   46.47   16.13
   9 -12  -6   50.41   16.74
  -9  12  -6   78.10   20.87
   9  12  -7   -1.55   21.89
  -9 -12   7   -5.04   22.31
   9 -12   7   -1.82   10.60
  -9  12   7   10.26   10.38
   9 -12  -7   25.30   11.74
  -9  12  -7   12.54   10.19
  -9  12   8    6.48    9.51
   9 -12  -8    2.50    9.47
  -9  12  -8    2.46    8.79
   9 -13   0    4.92    9.92
  -9  13   0   -1.40   10.57
  -9 -13   1   30.00   18.18
   9 -13   1  129.76   30.34
  -9  13   1  114.19   27.35
   9 -13  -1  126.84   29.66
  -9  13  -1  143.55   33.25
   9  13  -2   -1.29   15.26
  -9 -13   2   13.10   18.14
   9 -13   2   21.25   11.40
  -9  13   2    8.37   10.91
  -9  13  -2    8.41   10.83
   9  13  -3  495.03   99.80
  -9 -13   3  551.84  111.50
   9 -13   3  606.38  128.36
  -9  13   3  467.76   99.65
   9 -13  -3  399.96   85.52
  -9  13  -3  472.30  100.56
   9  13  -4   11.89   16.32
  -9 -13   4   35.49   20.68
   9 -13   4   12.95   12.27
  -9  13   4   12.80   11.89
   9 -13  -4  -14.77   11.32
   9  13  -5  251.94   53.74
  -9 -13   5  287.43   62.34
   9 -13   5  258.16   57.00
  -9  13   5  274.10   60.15
   9 -13  -5  303.83   66.17
  -9  13  -5  270.05   59.12
   9  13  -6   26.40   18.79
  -9 -13   6  -24.66   20.19
   9 -13   6    3.67   11.36
  -9  13   6   14.58   11.06
   9 -13  -6    8.48   10.76
  -9  13  -6    5.08   10.30
   9 -13   7   11.48   11.14
  -9  13   7   23.07   10.53
   9 -13  -7   26.13   11.97
  -9  13  -7   22.23   10.98
   9 -14   0    1.67   10.19
  -9  14   0   14.47   11.36
   9 -14   1    2.84   10.26
  -9  14   1   -4.70   11.02
   9 -14  -1    2.27   10.42
  -9  14  -1    5.34   11.25
   9  14  -2    9.17   14.73
  -9 -14   2    8.22   17.27
   9 -14   2    3.71   10.91
  -9  14   2    0.49   11.06
  -9  14  -2   -5.83   11.36
   9  14  -3    8.98   17.16
  -9 -14   3   -7.16   19.09
   9 -14   3    0.15   10.95
  -9  14   3    0.57   11.25
   9 -14  -3    7.31   11.67
  -9  14  -3   -9.54   11.44
   9  14  -4   -2.35   15.68
  -9 -14   4    5.23   18.60
   9 -14   4   11.63   12.04
  -9  14   4  -13.94   11.32
   9 -14  -4    9.20   12.01
   9  14  -5   21.78   19.01
  -9 -14   5   -6.06   22.57
   9 -14   5   -6.44   11.40
  -9  14   5   -0.64    9.77
   9 -14  -5    8.22   11.06
  -9  14  -5   -8.26   10.15
   9 -14   6   10.26   10.60
  -9  14   6    8.90    8.94
   9 -14  -6   -9.66   10.07
  -9  14  -6   -4.85    8.98
   9 -15   0   10.95   12.16
  -9  15   0    2.88   12.27
   9 -15   1   16.89   12.27
  -9  15   1  -11.67   11.40
   9 -15  -1   -6.97   11.36
  -9  15  -1   11.55   13.07
   9 -15   2  -10.60   11.36
  -9  15   2   14.88   11.21
  -9  15  -2   10.23   12.39
   9  15  -3   49.46   19.58
  -9 -15   3   52.08   20.34
   9 -15   3   26.51   12.42
  -9  15   3   47.19   15.04
   9 -15  -3   47.31   15.04
  -9  15  -3   47.80   15.98
   9 -15   4   -0.49    9.92
  -9  15   4    0.27    9.28
   9 -15  -4   -7.39    8.79
   9 -15   5   12.61   11.82
  -9  15   5    7.84    9.47
   9 -15  -5    4.43    8.60
  -9  15  -5    9.92   10.07
   9 -16   0   -7.04    9.70
  -9  16   0   -0.49    8.56
   9 -16   1    2.76    9.66
  -9  16   1    9.39    9.70
   9 -16  -1   -4.09    9.01
  -9  16  -1    2.16    8.41
   9 -16   2   66.21   18.22
  -9  16   2   43.25   14.28
  -9  16  -2   57.15   15.72
   9 -16   3    9.73    9.89
  -9  16   3   -4.36    9.39
   9 -16  -3    7.73    9.05
  -9  16  -3    2.05    9.09
  10   0  10   55.41   23.07
  10   0 -10   87.87   27.50
 -10   0 -10   63.97   23.97
  10   1  -9    8.52   21.29
 -10  -1  -9   34.88   23.07
  10   1   9   46.96   22.65
 -10  -1   9   53.90   25.75
  10  -1  10   16.74   20.60
  10   1 -10  -22.01   22.95
 -10  -1 -10  -16.48   17.80
  10   1  10  -20.91   18.82
 -10  -1  10   -6.93   22.27
  10   2  -7   41.85   20.30
  10   2  -8   25.22   21.06
  10   2   8   20.41   19.32
 -10  -2   8   25.49   21.59
  10   2  -9  -20.94   20.94
 -10  -2  -9   -5.61   20.04
  10   2   9   42.65   20.41
 -10  -2   9    2.54   23.26
  10   2 -10   26.02   20.83
 -10  -2 -10   10.19   20.15
  10   2  10  -19.01   20.49
 -10  -2  10   26.55   23.52
  10   3  -6  -10.23   16.10
 -10  -3   6   -6.55   17.54
  10   3   7    0.27   14.20
 -10  -3   7  -35.87   22.46
  10   3  -8   -8.29   21.25
 -10  -3  -8   18.45   18.82
  10   3   8   12.76   17.27
 -10  -3   8   11.63   20.94
  10   3  -9   36.21   21.59
 -10  -3  -9   -3.60   20.68
  10   3   9   -0.80   18.63
 -10  -3   9   46.70   24.85
  10   3 -10  -22.01   21.66
 -10  -3 -10   -2.76   19.16
  10   3  10    2.76   18.52
 -10  -3  10    9.32   22.19
  10   4  -5    2.23   17.46
 -10  -4   5  -41.40   18.22
  10   4  -6  -11.51   18.33
 -10  -4   6   13.79   22.16
  10   4  -7  -32.84   21.55
 -10  -4  -7  -11.97   15.49
  10   4   7    0.30   14.96
 -10  -4   7   -4.20   22.12
 -10  -4  -8   33.37   20.91
  10   4   8  -16.78   17.69
 -10  -4   8   14.43   25.60
  10   4  -9    4.01   21.25
 -10  -4  -9    3.79   19.35
  10   4   9    8.90   18.86
 -10  -4   9  -17.42   23.26
  10   5  -3   17.88   18.22
 -10  -5   3   41.32   18.37
  10   5  -4   36.78   19.01
 -10  -5   4   -2.23   17.27
  10   5  -5   12.08   19.05
 -10  -5   5  -32.12   17.99
  10   5  -6   20.26   19.81
 -10  -5  -6    6.40   12.95
  10   5   6    3.56   12.23
 -10  -5   6   -5.61   22.16
  10   5  -7   31.51   21.66
 -10  -5  -7   31.32   17.31
  10   5   7    6.21   16.36
 -10  -5   7  -11.74   24.13
  10   5  -8   28.97   21.51
 -10  -5  -8  -20.57   18.56
  10   5   8    3.60   16.89
 -10  -5   8   61.51   26.21
 -10  -5  -9  322.73   67.38
  10   5   9  318.87   66.21
 -10  -5   9  318.07   69.46
  10   6  -2   -6.14   15.15
 -10  -6   2   26.29   18.52
  10   6  -3   -3.07   17.76
 -10  -6   3   14.09   18.26
  10   6  -4  -35.26   18.41
 -10  -6   4  -16.93   16.21
  10   6  -5   23.26   19.32
  10   6   5    6.93   11.14
 -10  -6   5  -14.17   19.01
  10   6  -6   20.60   20.26
  10   6   6    9.09   11.89
 -10  -6   6   52.46   25.19
  10   6  -7   -7.01   20.91
 -10  -6  -7   19.85   17.61
  10   6   7   10.00   15.95
 -10  -6   7   17.12   24.35
  10   6  -8   16.44   21.85
 -10  -6  -8   33.63   19.85
  10   6   8   44.05   19.47
 -10  -6   8  -11.32   21.17
  10   6  -9   30.00   20.38
 -10  -6  -9   11.32   18.67
  10   6   9    6.51   17.80
 -10  -6   9   -9.85   23.86
 -10   6  10   -1.89    9.28
  10   7   0    3.98   13.75
  10   7  -1  -26.40   14.81
 -10  -7   1   -7.16   14.20
  10   7  -2   -0.83   14.51
 -10  -7   2   20.64   16.10
  10   7  -3    0.95   17.04
 -10  -7   3   21.13   16.85
  10   7  -4  -19.20   18.63
 -10  -7   4  -16.85   17.12
  10   7  -5  -15.00   23.37
 -10  -7  -5   -1.70   11.63
  10   7   5    8.14   10.95
 -10  -7   5    2.16   19.39
  10   7  -6    5.95   18.86
  10   7   6  -14.09   13.48
 -10  -7   6   -9.62   21.29
 -10   7   6  -26.25   10.79
  10   7  -7    4.24   22.12
 -10  -7  -7  -11.44   15.30
  10   7   7   -8.75   15.45
 -10  -7   7  -34.50   24.73
 -10   7   7   -1.74    9.43
  10   7  -8   30.07   21.66
 -10  -7  -8   11.44   17.88
  10   7   8   12.57   16.89
 -10  -7   8   28.03   23.86
 -10   7   8  -12.61   10.60
  10  -7  -8  -12.31    9.62
  10   7  -9  -30.94   21.89
 -10  -7  -9  -14.51   15.91
  10   7   9   22.35   17.46
 -10  -7   9   19.51   22.35
 -10   7   9    4.24   11.14
  10  -7  -9   -5.19    9.09
  10   8   0   37.04   14.09
 -10  -8   0   -7.88   12.04
  10   8  -1   25.60   14.24
 -10  -8  -1   15.60    9.81
  10   8   1  -12.73    9.01
 -10  -8   1    8.11   13.33
  10   8  -2    5.45   14.77
 -10  -8   2  -17.80   15.60
 -10   8   2    5.04    9.70
  10   8  -3   16.51   16.29
 -10  -8   3  -10.34   16.32
 -10   8   3  -16.21   10.95
  10   8  -4   52.31   21.29
  10   8   4   58.67   13.94
 -10  -8   4   17.31   19.35
 -10   8   4   20.57   10.91
  10  -8  -4   26.74   11.40
  10   8  -5    5.11   21.85
 -10  -8  -5   16.36   11.63
  10   8   5   -1.55   11.06
 -10  -8   5    6.02   17.57
 -10   8   5    3.03    9.54
  10  -8  -5   -6.51    9.17
  10   8  -6  102.38   28.78
 -10  -8  -6   60.83   18.75
  10   8   6   27.95   14.54
 -10  -8   6   65.86   26.74
 -10   8   6   72.04   18.94
  10  -8  -6   69.16   18.33
  10   8  -7   37.99   22.12
 -10  -8  -7   -4.36   15.00
  10   8   7  -22.08   16.89
 -10   8   7    9.24    9.92
  10  -8  -7    1.25    8.90
  10   8  -8   25.57   19.96
 -10  -8  -8   56.89   20.57
  10   8   8   10.76   16.29
 -10  -8   8   34.62   25.41
 -10   8   8   50.75   16.13
  10  -8  -8    2.27   10.45
 -10   8   9   10.60    9.47
  10  -8  -9    4.51    8.64
  10   9   0   -8.26   11.74
 -10  -9   0   -0.68   11.32
  10  -9   0    2.73   10.04
 -10   9   0    9.47   11.06
  10   9  -1  -13.03   13.60
 -10  -9  -1   15.53    9.96
  10   9   1   -2.31    8.64
 -10  -9   1   15.19   14.85
  10  -9   1  -24.47   10.30
 -10   9   1   -1.78   10.19
  10  -9  -1   -6.55    9.24
 -10   9  -1   13.22   10.49
  10   9  -2  -26.36   16.21
 -10  -9  -2    4.09    6.44
  10   9   2   -2.73    5.83
 -10  -9   2    6.93   14.88
 -10   9   2    2.31   10.19
 -10   9  -2    3.67    9.77
  10   9  -3   15.87   15.64
 -10  -9   3    3.45   16.48
 -10   9   3   -9.96    9.89
  10  -9  -3    4.81    9.85
  10   9  -4  -26.89   18.79
 -10  -9  -4   -4.17    7.01
  10   9   4    8.67    7.31
 -10  -9   4  -17.65   20.87
 -10   9   4  -12.69    9.66
  10  -9  -4   -2.84    9.39
  10   9  -5    0.80   16.66
 -10  -9  -5   16.63   11.74
  10   9   5   10.72    9.92
 -10  -9   5   21.97   21.10
 -10   9   5   14.13   10.57
  10  -9  -5   12.04   10.49
  10   9  -6   15.79   22.54
 -10  -9  -6   24.20   15.91
  10   9   6   -1.48   13.37
 -10  -9   6   -4.05   20.83
 -10   9   6    4.85    9.96
  10  -9  -6   20.60   11.02
  10   9  -7   25.72   21.44
 -10  -9  -7   -9.01   15.49
  10   9   7   20.76   14.62
 -10  -9   7   59.88   27.35
 -10   9   7   12.54   10.87
  10  -9  -7    2.65    9.43
  10   9  -8  -18.94   19.62
 -10  -9  -8   17.42   16.13
  10   9   8   20.94   15.87
 -10  -9   8   14.54   23.14
 -10   9   8    3.56   10.30
  10  -9  -8    1.21    9.39
 -10   9   9   23.03   10.42
  10  -9  -9   16.40    9.51
  10  10   0  432.15   86.47
 -10 -10   0  391.25   78.55
  10 -10   0  385.19   82.38
 -10  10   0  334.21   71.96
  10  10  -1    6.29   14.20
 -10 -10  -1    5.23   10.95
  10  10   1   -7.16    9.47
 -10 -10   1    2.76   15.26
  10 -10   1   -7.08    9.32
 -10  10   1   -0.76   10.00
  10 -10  -1   -2.61    9.43
 -10  10  -1    4.62   10.19
  10  10  -2   21.02   15.60
 -10 -10  -2  -21.48    8.94
 -10 -10   2    8.94   16.93
  10 -10   2    0.53    9.17
 -10  10   2   13.37   10.72
 -10  10  -2    4.51   10.15
  10  10  -3  -15.15   15.91
 -10 -10   3   -3.37   19.13
  10 -10   3   -6.51    9.36
 -10  10   3   -1.67    9.51
  10 -10  -3   10.45    9.89
 -10  10  -3   10.11   10.11
  10  10  -4   -8.52   14.77
 -10 -10   4   17.69   19.73
  10 -10   4  -21.36   12.20
 -10  10   4   19.66   10.98
  10 -10  -4    6.59    9.92
  10  10  -5   -2.05   18.03
 -10 -10  -5  -18.14   11.70
  10  10   5    1.82    9.39
 -10 -10   5  -30.83   21.17
  10 -10   5  -31.25   12.57
 -10  10   5    4.55   10.15
  10 -10  -5   11.44   10.26
 -10  10  -5   -4.77    9.85
  10  10  -6   19.96   20.38
 -10 -10  -6   30.22   15.34
  10  10   6   43.94   14.77
 -10 -10   6    9.66   22.91
 -10  10   6   27.12   12.57
  10 -10  -6   42.50   14.17
 -10  10  -6   15.68   10.60
  10  10  -7   22.76   20.76
  10  10   7   -0.34   13.29
 -10 -10   7   11.14   21.36
 -10  10   7   -6.82   11.59
  10 -10  -7    5.91   10.72
 -10  10  -7   -2.50   10.83
 -10  10   8   41.28   13.94
  10 -10  -8   46.55   14.32
  10  11   0    5.53   11.74
 -10 -11   0   -4.36   13.18
  10 -11   0   -0.30    9.20
 -10  11   0   -3.64   10.15
  10  11  -1  -12.04   15.60
 -10 -11  -1  -13.10   11.78
  10  11   1   12.31    9.96
 -10 -11   1   24.66   17.20
  10 -11   1   -3.37    9.32
 -10  11   1   10.45   10.45
  10 -11  -1   20.45   10.98
 -10  11  -1   -0.64   10.00
  10  11  -2    7.01   14.05
 -10 -11   2   -5.30   17.12
  10 -11   2   10.26   10.26
 -10  11   2  -13.14   10.42
 -10  11  -2   -8.48   10.26
  10  11  -3   -4.17   16.63
 -10 -11   3   -2.58   18.86
  10 -11   3   12.16   10.26
 -10  11   3    6.02   10.68
  10 -11  -3   11.44   10.76
 -10  11  -3   -5.15   10.23
  10  11  -4   16.17   17.95
 -10 -11   4   12.16   19.01
  10 -11   4  -15.23   11.63
 -10  11   4   14.05   11.02
  10 -11  -4    7.69   10.26
  10  11  -5  -19.43   18.90
 -10 -11   5   14.32   22.01
  10 -11   5   10.26   11.40
 -10  11   5    8.82   10.60
  10 -11  -5    5.68   10.34
 -10  11  -5   -3.11    9.92
  10  11  -6  -21.10   19.20
 -10 -11  -6   -9.32   13.10
 -10 -11   6   -9.36   22.42
  10 -11   6   10.11   12.73
 -10  11   6   17.88   12.08
  10 -11  -6    5.68   11.74
 -10  11  -6   10.19   11.55
  10  11  -7  -28.25   22.23
  10  11   7    8.64   14.09
 -10 -11   7  -11.40   21.17
  10 -11   7    3.60   11.02
 -10  11   7    1.78   10.15
  10 -11  -7    3.56    9.89
 -10  11  -7    3.45    9.96
 -10  11   8   -6.97    9.13
  10 -11  -8   -0.11    8.52
 -10  11  -8   -7.76    8.98
  10  12   0    1.48   13.03
 -10 -12   0   -1.67   14.51
  10 -12   0    7.99   10.26
 -10  12   0   -2.65   10.57
  10  12  -1   -1.02   13.90
 -10 -12   1   37.91   18.63
  10 -12   1    3.56   10.04
 -10  12   1   -0.19   10.60
  10 -12  -1  -17.95   10.45
 -10  12  -1   11.78   11.02
  10  12  -2   27.04   16.44
 -10 -12   2   23.86   18.79
  10 -12   2   14.96   11.06
 -10  12   2   21.10   12.04
 -10  12  -2   24.73   12.31
  10  12  -3    5.79   16.66
 -10 -12   3   29.05   20.15
  10 -12   3   -1.59    9.96
 -10  12   3   -4.13   10.07
  10 -12  -3    3.14   10.07
 -10  12  -3   -4.96   10.26
  10  12  -4  -16.29   16.89
 -10 -12   4    6.17   20.57
  10 -12   4    0.00   11.48
 -10  12   4   13.94   11.17
  10 -12  -4   -1.17   10.45
  10  12  -5    7.01   17.88
 -10 -12   5  -13.56   23.67
  10 -12   5   -9.73   12.76
 -10  12   5    6.86   11.78
  10 -12  -5   10.23   11.82
 -10  12  -5   26.63   12.92
  10  12  -6  -10.79   18.33
 -10 -12   6   29.09   20.83
  10 -12   6    8.71   11.78
 -10  12   6    1.29   10.64
  10 -12  -6    2.99   10.64
 -10  12  -6   11.48   10.91
  10 -12   7   14.85   11.14
 -10  12   7   14.88   10.49
  10 -12  -7   27.65   11.78
 -10  12  -7   -3.64    9.13
 -10 -13   0   37.00   15.98
  10 -13   0   31.81   12.92
 -10  13   0   36.51   14.09
  10  13  -1   11.85   13.86
 -10 -13   1   -6.86   16.29
  10 -13   1  -14.05   10.19
 -10  13   1   12.42   10.83
  10 -13  -1    0.91   10.00
 -10  13  -1   15.00   11.55
  10  13  -2   48.90   18.71
 -10 -13   2   36.28   18.60
  10 -13   2    5.53   10.23
 -10  13   2   21.44   12.12
 -10  13  -2  -18.90   11.21
  10  13  -3   22.54   16.36
 -10 -13   3   17.95   19.35
  10 -13   3   13.10   11.29
 -10  13   3   -2.20   11.36
  10 -13  -3   -1.51   11.10
 -10  13  -3   10.00   11.67
  10  13  -4   -2.99   16.74
 -10 -13   4   41.55   20.60
  10 -13   4   -4.47   11.10
 -10  13   4    2.61   12.04
  10 -13  -4   14.32   12.12
  10  13  -5   41.47   20.30
 -10 -13   5   41.85   23.90
  10 -13   5   53.48   17.61
 -10  13   5   32.80   13.94
  10 -13  -5   32.65   13.60
 -10  13  -5   15.72   12.39
  10 -13   6   10.83   11.10
 -10  13   6   13.94   10.83
  10 -13  -6    3.37   10.11
 -10  13  -6    3.37    9.47
  10 -14   0   -5.87   10.72
 -10  14   0    7.16   12.04
 -10 -14   1   -8.64   15.95
  10 -14   1  -13.07   11.29
 -10  14   1    6.14   12.01
  10 -14  -1   -8.48   11.40
 -10  14  -1    0.76   11.97
  10  14  -2   21.59   15.26
 -10 -14   2   14.13   17.57
  10 -14   2   26.63   13.56
 -10  14   2   88.67   23.90
 -10  14  -2   23.22   14.05
  10  14  -3   -9.36   16.74
 -10 -14   3  -15.00   16.02
  10 -14   3   -0.19   11.21
 -10  14   3  -10.45   11.78
  10 -14  -3   -7.35   11.74
 -10  14  -3   20.53   12.50
  10  14  -4   -1.48   15.76
 -10 -14   4    2.92   18.37
  10 -14   4  -14.96   10.79
 -10  14   4   -9.43   10.72
  10 -14  -4   13.86   11.14
  10 -14   5    9.66   11.29
 -10  14   5    7.54   10.30
  10 -14  -5   -5.87    9.92
 -10  14  -5    2.23    9.20
  10 -15   0    4.17   10.68
 -10  15   0   14.01   11.97
  10 -15   1   -9.39   10.83
 -10  15   1   -8.60   11.17
  10 -15  -1   -2.76   10.30
 -10  15  -1   14.51   11.89
  10  15  -2  -10.87   14.24
 -10 -15   2   -0.68   16.93
  10 -15   2    7.16   10.60
 -10  15   2    3.18   10.98
 -10  15  -2    2.88   11.36
  10 -15   3   -8.14    9.92
 -10  15   3   -4.96   10.60
  10 -15  -3    6.74   10.53
 -10  15  -3   22.16   11.55
  10 -15   4   -7.61   10.15
 -10  15   4   -1.78    9.89
  10 -15  -4   -3.52    9.70
  10 -16   0   73.70   19.62
 -10  16   0   69.54   19.32
  10 -16   1    6.25   10.00
 -10  16   1    7.54   10.45
  10 -16  -1    8.90   10.53
 -10  16  -1   -2.39   10.26
 -10  16  -2    7.61   11.25
  11   2  -8   32.38   22.65
  11   2  -9    4.47   19.47
  11   2   9   -7.69   18.45
 -11  -2   9   -8.79   22.72
  11   3  -7   10.07   20.49
 -11  -3   7   11.36   20.23
  11   3  -9   17.38   18.86
 -11  -3  -9   34.39   19.85
  11   3   9   11.06   18.67
 -11  -3   9   16.48   23.37
  11   4  -5  -36.17   19.73
  11   4  -6   -2.69   18.22
 -11  -4   6  -24.01   21.78
  11   4  -7  -14.51   20.53
 -11  -4   7   -5.61   22.69
  11   4  -8  -11.14   20.60
 -11  -4  -8  -26.47   18.63
  11   4   8    3.26   16.10
 -11  -4   8  -45.98   23.82
 -11  -4  -9  -29.35   18.71
  11   4   9   16.78   17.73
 -11  -4   9   23.10   23.41
  11   5  -4   -5.91   16.85
 -11  -5   4   12.12   15.34
  11   5  -5  -22.80   19.05
 -11  -5   5   -9.51   18.37
  11   5  -6  -20.11   18.45
 -11  -5   6   12.01   20.91
  11   5  -7   91.96   29.05
 -11  -5  -7   39.66   17.88
  11   5   7   47.65   19.28
 -11  -5   7   70.41   27.91
  11   5  -8   73.40   26.10
 -11  -5  -8   35.07   18.94
  11   5   8   61.74   20.91
 -11  -5   8   -1.51   21.59
  11   5  -9   -6.48   20.53
 -11  -5  -9    6.97   18.75
  11   5   9   18.98   17.69
 -11  -5   9    0.08   23.48
  11   6  -3  -21.55   16.97
 -11  -6   3    5.61   15.57
  11   6  -4   30.64   19.85
 -11  -6   4  -18.07   18.22
  11   6  -5   24.54   21.59
 -11  -6   5   29.77   20.07
  11   6  -6    3.79   18.33
  11   6   6    0.61   12.92
 -11  -6   6   -8.07   19.92
  11   6  -7   12.31   20.91
 -11  -6  -7   19.85   16.59
  11   6   7  -19.24   16.93
 -11  -6   7  -13.75   24.09
  11   6  -8   10.19   19.85
 -11  -6  -8    9.20   17.35
  11   6   8  -41.13   17.35
 -11  -6   8   35.11   24.43
 -11  -6   9   21.06   26.29
  11   7  -1    2.73   12.46
  11   7  -2  -15.11   14.70
 -11  -7   2  -19.85   15.19
  11   7  -3   -7.42   15.68
 -11  -7   3   -3.52   17.23
  11   7  -4   11.17   18.07
 -11  -7   4   11.67   18.63
  11   7  -5    1.25   17.23
 -11  -7   5   25.11   19.62
  11   7  -6    7.57   19.05
  11   7   6   23.97   13.79
 -11  -7   6  -17.91   23.07
  11   7  -7    1.02   19.69
 -11  -7  -7    4.70   15.45
  11   7   7  -14.05   15.68
 -11  -7   7    2.31   22.95
  11   7  -8   12.31   19.35
 -11  -7  -8   36.44   18.07
  11   7   8   -7.23   15.23
 -11  -7   8   31.32   24.13
  11   8   0   -8.52   11.89
 -11  -8   0    8.26   11.32
  11   8  -1  -21.32   13.60
 -11  -8   1   -0.95   14.85
  11   8  -2   40.34   17.76
 -11  -8   2   29.81   16.63
  11   8  -3    3.22   15.49
 -11  -8   3  -16.78   17.42
  11   8  -4  -21.02   16.29
 -11  -8   4   38.41   22.35
  11   8  -5   24.32   17.69
 -11  -8  -5    7.61   10.83
  11   8   5   34.43   12.39
 -11  -8   5    8.29   20.72
  11   8  -6   33.44   22.99
 -11  -8  -6   51.55   18.71
  11   8   6   72.34   19.77
 -11  -8   6   39.39   22.88
 -11   8   6   38.14   13.37
  11   8  -7   11.67   20.41
 -11  -8  -7   24.62   15.57
  11   8   7    3.67   14.24
 -11  -8   7    3.90   24.20
 -11   8   7    7.73   10.76
  11   8  -8   17.57   21.21
 -11  -8  -8   48.82   19.32
  11   8   8    9.47   15.60
 -11  -8   8   12.73   23.52
 -11   8   8    4.58   10.26
  11  -8  -8   14.17   10.23
 -11   8   9   -9.20    9.05
  11  -8  -9   -1.55    8.33
  11   9   0   -4.36   12.39
 -11  -9   0   14.54   12.92
  11   9  -1   14.96   14.85
 -11  -9  -1   -7.84   10.64
  11   9   1   -4.24    9.66
 -11  -9   1   -7.65   15.19
  11   9  -2  -25.11   15.38
  11   9   2    5.68    6.78
 -11  -9   2   14.58   17.35
 -11   9   2   14.70   10.57
  11   9  -3   14.39   16.06
 -11  -9   3  -19.69   19.20
 -11   9   3   -3.03    9.58
  11  -9  -3   13.71   10.11
  11   9  -4    4.70   14.73
 -11  -9  -4    2.46    6.82
  11   9   4   15.45    7.35
 -11  -9   4   44.43   21.82
 -11   9   4    2.05   10.26
  11  -9  -4   -0.08    9.62
  11   9  -5  -22.01   18.63
 -11  -9  -5    3.26   11.32
  11   9   5   10.95    9.85
 -11  -9   5   20.41   20.83
 -11   9   5   10.91   10.42
  11  -9  -5  -16.32   10.23
  11   9  -6   38.82   21.85
 -11  -9  -6   14.43   13.86
  11   9   6    1.21   11.78
 -11  -9   6   30.19   23.07
 -11   9   6   25.94   12.80
  11  -9  -6   56.62   16.66
  11   9  -7   14.32   20.79
  11   9   7    0.57   14.17
 -11  -9   7   43.06   22.80
 -11   9   7    8.11   11.59
  11  -9  -7    5.87   10.98
 -11   9   8    4.09    9.62
  11  -9  -8   -2.16    8.67
  11  10   0   -4.17   12.04
 -11 -10   0  -19.96   13.37
  11 -10   0   12.61    9.81
 -11  10   0   -6.70    9.92
  11  10  -1   11.02   15.34
 -11 -10  -1   12.01   11.02
  11  10   1    2.01    9.62
 -11 -10   1   15.49   16.85
  11 -10   1    6.48    9.70
 -11  10   1   14.13   11.10
  11 -10  -1    8.18    9.73
 -11  10  -1   -0.04   10.42
  11  10  -2   -4.96   13.63
 -11 -10  -2   -9.28    7.76
 -11 -10   2   25.49   18.75
 -11  10   2    2.12   10.23
  11 -10  -2    7.12    9.24
 -11  10  -2   -3.94    9.96
  11  10  -3  -12.39   16.10
 -11 -10   3    7.69   19.09
 -11  10   3    6.59   10.42
  11 -10  -3   21.82   11.29
 -11  10  -3    3.45    9.81
  11  10  -4    3.83   17.57
 -11 -10  -4   16.29    7.69
  11  10   4    7.80    6.17
 -11 -10   4   23.60   19.28
 -11  10   4   18.67   11.51
  11 -10  -4   29.66   12.50
  11  10  -5   -2.84   18.33
 -11 -10  -5   26.51   11.44
  11  10   5    0.45    9.13
 -11 -10   5   -7.27   21.78
 -11  10   5    5.19   10.42
  11 -10  -5   26.36   11.74
  11  10  -6   79.73   25.60
 -11 -10  -6   77.34   20.30
  11  10   6   59.35   17.04
 -11 -10   6   34.09   23.26
 -11  10   6   63.74   19.24
  11 -10  -6   95.98   24.32
  11  10  -7    0.19   20.98
  11  10   7    8.60   12.57
 -11 -10   7   -4.39   20.76
 -11  10   7   -4.73   10.42
  11 -10  -7   -5.98    9.81
 -11  10   8  -11.02    9.28
  11 -10  -8   -1.14    8.67
  11  11   0   -9.13   12.57
 -11 -11   0   15.76   14.39
  11 -11   0   -9.58    9.70
 -11  11   0  -12.46   10.38
  11  11  -1  -15.04   13.60
 -11 -11  -1   10.79   12.08
  11  11   1    9.24   11.02
 -11 -11   1  -33.10   17.69
  11 -11   1   -0.49   10.19
 -11  11   1   -0.57   10.57
  11 -11  -1    8.82   10.60
 -11  11  -1   12.42   11.48
  11  11  -2   -5.45   15.11
 -11 -11  -2  -22.27   10.26
  11  11   2   -2.27    6.48
 -11 -11   2  -13.26   18.41
  11 -11   2   12.35   10.60
 -11  11   2   15.68   11.32
  11 -11  -2    1.63    9.36
 -11  11  -2    0.76   10.30
  11  11  -3   -0.15   17.20
 -11 -11   3   25.22   19.47
  11 -11   3  -11.93   10.07
 -11  11   3  -15.91   10.30
  11 -11  -3  -21.93   10.72
 -11  11  -3   -4.92   10.34
  11  11  -4   16.10   17.84
 -11 -11   4   27.80   21.78
  11 -11   4    8.94   10.68
 -11  11   4   14.39   11.21
  11 -11  -4    5.08   10.42
  11  11  -5   37.12   20.11
 -11 -11  -5  -16.78    9.66
 -11 -11   5  -28.71   23.60
  11 -11   5   -1.02   12.31
 -11  11   5    9.09   11.63
  11 -11  -5    4.05   11.29
 -11  11  -5  -19.20   12.31
  11  11  -6   14.92   18.48
 -11 -11  -6   -3.71   11.21
  11  11   6   -0.80   10.49
 -11 -11   6  -13.75   19.77
 -11  11   6    5.19   11.55
  11 -11  -6  -13.71   11.10
 -11  11  -6   -7.69   10.30
 -11  11   7   21.74   11.14
  11 -11  -7   -4.73    9.24
 -11  11  -7    5.23    9.43
  11  12   0  121.01   27.91
  11 -12   0   -8.14    9.85
 -11  12   0   10.42   10.60
  11  12  -1   31.28   15.76
 -11 -12  -1   11.29   13.10
  11  12   1    8.71   11.48
 -11 -12   1   19.09   17.57
  11 -12   1   27.99   12.01
 -11  12   1   -9.43   10.15
  11 -12  -1   21.93   11.25
 -11  12  -1   21.40   11.82
  11  12  -2    6.48   16.17
 -11 -12   2    2.95   17.91
  11 -12   2   22.23   11.40
 -11  12   2  -10.00   10.53
  11 -12  -2    6.25    9.43
 -11  12  -2   17.91   11.36
  11  12  -3   -9.32   15.34
 -11 -12   3    5.68   18.98
  11 -12   3   -2.95   11.02
 -11  12   3   -6.33   11.10
  11 -12  -3   20.60   12.01
 -11  12  -3   -0.68   11.06
  11  12  -4   31.02   18.45
 -11 -12   4   20.19   21.48
  11 -12   4   38.75   14.96
 -11  12   4   31.70   14.58
  11 -12  -4   28.22   13.79
  11  12  -5   17.80   17.57
 -11 -12   5    7.54   20.45
  11 -12   5    6.06   12.69
 -11  12   5    7.92   11.59
  11 -12  -5   34.09   13.82
 -11  12  -5    5.15   11.06
  11 -12   6   11.40   11.55
 -11  12   6   -2.23   10.30
  11 -12  -6   -5.19   10.23
 -11  12  -6    7.65   10.19
  11  13   0   14.39   12.80
 -11 -13   0   21.10   14.92
  11 -13   0   -0.76   10.38
 -11  13   0   15.26   12.27
  11  13  -1  118.21   27.65
 -11 -13  -1  116.31   26.13
 -11 -13   1  121.77   29.24
  11 -13   1  164.11   37.50
 -11  13   1  202.40   45.49
  11 -13  -1  180.25   40.79
 -11  13  -1  128.96   31.17
  11  13  -2    8.60   15.64
 -11 -13   2   10.49   18.07
  11 -13   2    6.14   11.40
 -11  13   2  -22.80   12.46
  11 -13  -2   -1.86   10.57
 -11  13  -2   -1.17   11.67
  11  13  -3   -6.17   14.81
 -11 -13   3   25.75   18.52
  11 -13   3    2.69   11.74
 -11  13   3   -0.08   12.95
  11 -13  -3   -8.26   12.12
 -11  13  -3    5.68   12.95
  11  13  -4    6.86   17.31
 -11 -13   4   13.41   19.35
  11 -13   4   -2.92   10.87
 -11  13   4  -11.82   11.40
  11 -13  -4   30.15   13.26
  11 -13   5   -7.61   11.17
 -11  13   5    9.66   10.87
  11 -13  -5    8.71   10.45
 -11  13  -5    2.88   10.00
 -11 -14   0   -1.14   14.05
  11 -14   0  -10.23   11.25
 -11  14   0    9.17   12.31
  11  14  -1   -7.99   12.50
 -11 -14   1   12.92   15.83
  11 -14   1    3.03   10.79
 -11  14   1   -2.69   12.01
  11 -14  -1    4.05   11.17
 -11  14  -1   -1.48   11.70
  11  14  -2   17.99   14.88
 -11 -14   2   17.42   16.66
  11 -14   2   10.04   11.29
 -11  14   2   -3.94   11.44
  11 -14  -2   -5.45    9.77
 -11  14  -2   -1.78   11.85
  11  14  -3  -21.36   16.44
  11 -14   3   -1.78   10.11
 -11  14   3   12.42   11.55
  11 -14  -3   -1.63   10.34
 -11  14  -3    5.42   10.95
  11 -14   4   -5.68    9.81
 -11  14   4    7.76   10.68
  11 -14  -4   -0.38    9.96
  11 -15   0    4.36   10.15
 -11  15   0   -9.24   10.45
  11 -15   1   -1.97    9.89
 -11  15   1    8.33   10.79
  11 -15  -1    0.95   10.04
 -11  15  -1   -4.24   10.60
  11 -15   2   -5.38    9.43
 -11  15   2   15.26   11.32
  11 -15  -2   -2.31    9.96
 -11  15  -2  -11.06   10.45
  12   2  -9   -0.57   18.79
  12   3  -8   10.76   20.38
 -12  -3   8   38.82   23.97
  12   3   9  -14.01   17.95
 -12  -3   9   -8.67   20.79
  12   4  -6    2.27   17.35
  12   4  -7   37.72   22.65
 -12  -4   7    7.61   23.14
  12   4  -8   25.53   20.15
 -12  -4   8   22.69   21.51
  12   5  -5  -16.32   18.22
 -12  -5   5  -14.51   21.13
  12   5  -6   39.09   20.15
 -12  -5   6   40.72   21.51
  12   5  -7  163.96   39.39
 -12  -5   7  182.37   43.48
  12   5  -8   22.88   18.86
 -12  -5  -8   41.32   18.26
  12   5   8   24.01   15.72
 -12  -5   8   -5.53   22.38
  12   6  -4   -5.91   16.85
 -12  -6   4   11.40   18.10
  12   6  -5  -19.43   16.59
 -12  -6   5   12.95   19.88
  12   6  -6    9.92   18.37
 -12  -6   6   19.09   23.37
  12   6  -7   22.69   18.94
  12   6   7   12.42   15.38
 -12  -6   7    7.12   22.99
  12   6  -8   18.60   19.35
 -12  -6  -8  -19.66   16.02
  12   6   8   18.14   15.60
 -12  -6   8   20.72   22.42
  12   7  -2  -13.56   16.21
  12   7  -3   27.84   17.04
 -12  -7   3  -26.89   18.18
  12   7  -4   30.49   16.85
 -12  -7   4    8.03   20.15
  12   7  -5    9.73   16.66
 -12  -7   5  -10.53   20.87
  12   7  -6   40.07   23.79
  12   7   6   20.04   12.84
 -12  -7   6   -4.20   23.26
  12   7  -7  -10.15   20.60
 -12  -7  -7    9.36   13.90
  12   7   7  -10.30   14.47
 -12  -7   7   32.53   24.43
  12   7  -8   41.17   22.95
 -12  -7  -8   19.05   18.90
  12   7   8    7.84   15.95
 -12  -7   8   23.52   25.19
  12   8  -1   83.32   22.54
 -12  -8   1   86.13   23.86
  12   8  -2  112.19   27.23
 -12  -8   2   77.80   24.51
  12   8  -3   59.01   20.41
 -12  -8   3   74.54   23.26
  12   8  -4   49.58   18.98
 -12  -8   4  104.23   28.94
  12   8  -5  109.16   29.01
 -12  -8   5   32.72   22.65
  12   8  -6   -7.20   18.98
 -12  -8  -6   -2.88   14.24
  12   8   6   31.66   13.67
 -12  -8   6   -6.86   21.89
  12   8  -7   33.06   22.42
 -12  -8  -7    7.69   13.07
  12   8   7   36.32   16.02
 -12  -8   7   10.34   20.64
  12   9   0    4.17   11.67
 -12  -9   0  -10.38   12.57
  12   9  -1   -2.73   15.42
  12   9   1  -11.40    9.32
 -12  -9   1   -3.07   16.13
  12   9  -2   19.47   14.51
 -12  -9   2    0.98   16.55
  12   9  -3  -23.10   17.01
 -12  -9   3   13.79   19.43
  12   9  -4   -5.19   17.35
 -12  -9   4    0.23   18.98
  12   9  -5    7.01   18.26
 -12  -9  -5   12.57    9.85
  12   9   5   14.35   10.11
 -12  -9   5   -8.79   21.97
 -12   9   5   13.82   11.10
  12   9  -6   38.22   20.41
 -12  -9  -6   17.31   13.56
  12   9   6   28.60   13.26
 -12  -9   6   -8.82   22.46
 -12   9   6    4.13   11.51
  12   9  -7   26.21   22.88
  12   9   7    2.20   12.54
 -12  -9   7   36.25   22.54
 -12   9   7   -6.55   10.19
  12  -9  -7  -11.63    9.05
 -12   9   8   -0.95    8.82
  12  10   0  -15.87   12.20
 -12 -10   0    1.25   13.48
  12  10  -1   49.65   16.63
 -12 -10  -1   -0.61   11.63
  12  10   1    2.76   10.76
 -12 -10   1    2.39   16.74
 -12  10   1    7.16   10.68
  12  10  -2   85.45   23.56
 -12 -10   2   56.55   21.74
 -12  10   2   67.99   18.82
  12  10  -3    5.04   17.38
 -12 -10   3   19.05   19.01
 -12  10   3    7.50   10.64
  12 -10  -3    5.08   10.19
  12  10  -4   45.26   20.45
  12  10   4   37.12    9.24
 -12 -10   4   21.51   22.46
 -12  10   4   27.57   12.46
  12 -10  -4   37.72   13.71
  12  10  -5  111.20   29.35
 -12 -10  -5   95.60   21.10
  12  10   5   84.23   18.86
 -12 -10   5   66.02   27.46
 -12  10   5   57.46   17.84
  12 -10  -5   49.35   16.51
  12  10  -6    5.91   18.14
 -12 -10  -6   15.83   11.59
  12  10   6   21.40   11.67
 -12 -10   6    5.95   19.85
 -12  10   6   17.35   11.70
  12 -10  -6   -7.46   10.60
 -12  10   7    8.75   10.30
  12 -10  -7   13.33    9.89
  12  11   0    7.08   13.79
 -12 -11   0  -11.85   14.62
  12 -11   0   -3.48    9.54
 -12  11   0    3.90   10.42
  12  11  -1    0.30   14.66
 -12 -11  -1    5.45   12.20
  12  11   1   13.71   10.95
 -12 -11   1   -8.82   17.12
  12 -11   1   -6.67    9.96
 -12  11   1   -5.76   10.60
  12 -11  -1  -11.89   10.04
 -12  11  -1   -2.84   10.98
  12  11  -2   14.20   16.36
 -12 -11  -2   11.82    9.92
  12  11   2   20.26    9.13
 -12 -11   2  -12.01   18.67
  12 -11   2   -3.33    9.96
 -12  11   2   -1.67   10.64
  12 -11  -2   22.69   11.89
 -12  11  -2    6.55   10.76
  12  11  -3   -1.40   14.73
 -12 -11   3   12.88   19.39
 -12  11   3    0.49   11.51
  12 -11  -3    6.67   11.10
 -12  11  -3   10.79   11.02
  12  11  -4   -1.17   17.20
 -12 -11   4  -29.09   21.93
 -12  11   4    5.76   12.16
  12 -11  -4   -0.04   11.51
  12  11  -5   17.91   17.73
 -12 -11  -5    3.22    8.41
  12  11   5   12.04    8.03
 -12 -11   5  -34.58   20.87
 -12  11   5    2.99   11.36
  12 -11  -5   -4.24   11.32
 -12  11   6    2.88   10.23
  12 -11  -6   10.53   10.15
  12  12   0   28.25   14.13
 -12 -12   0   60.68   18.86
  12 -12   0   61.43   17.95
 -12  12   0   36.36   14.62
  12  12  -1   87.83   22.69
 -12 -12  -1   84.35   20.34
  12  12   1   83.59   19.58
 -12 -12   1   89.31   24.01
  12 -12   1   84.39   22.01
 -12  12   1   79.05   21.85
  12 -12  -1   94.31   24.24
 -12  12  -1   91.32   23.82
  12  12  -2   23.33   15.98
 -12 -12  -2    8.37    9.73
  12  12   2   -3.90    8.26
 -12 -12   2  -18.94   17.99
  12 -12   2    1.97   10.95
 -12  12   2   14.47   12.42
  12 -12  -2   26.10   12.95
 -12  12  -2    8.37   12.69
  12  12  -3   87.42   23.48
 -12 -12   3   59.12   21.85
  12 -12   3   15.19   12.69
 -12  12   3   18.37   13.26
  12 -12  -3   67.23   19.92
 -12  12  -3   72.19   20.83
  12  12  -4  -10.98   17.04
 -12 -12   4   -0.49   18.75
  12 -12   4   -5.26   10.87
 -12  12   4   14.28   11.82
  12 -12  -4    7.57   11.29
  12 -12   5   36.44   14.05
 -12  12   5   38.44   14.20
  12 -12  -5   11.40   11.36
 -12  12  -5   46.66   15.11
  12  13   0  729.09  144.68
 -12 -13   0  695.01  138.13
  12 -13   0  855.97  180.97
 -12  13   0  691.98  146.88
  12  13  -1   16.78   13.07
 -12 -13  -1   15.42   12.50
  12  13   1   14.20   11.14
 -12 -13   1   10.72   14.92
  12 -13   1    9.73   12.08
 -12  13   1   30.03   14.54
  12 -13  -1   36.47   14.88
 -12  13  -1   31.13   14.54
  12  13  -2   22.27   15.64
 -12 -13  -2   10.83   10.49
 -12 -13   2   44.05   18.22
  12 -13   2    4.28   11.29
 -12  13   2   22.08   13.29
  12 -13  -2   37.61   14.81
 -12  13  -2    8.64   12.01
  12  13  -3   46.43   17.20
 -12 -13   3   27.04   18.75
  12 -13   3   61.24   17.88
 -12  13   3   48.71   16.44
  12 -13  -3   41.47   14.85
 -12  13  -3   28.52   13.45
  12 -13   4   -4.92    9.73
 -12  13   4  -14.54   10.49
  12 -13  -4   -8.37   10.15
  12 -14   0   11.14   10.64
 -12  14   0    6.25   11.29
  12 -14   1   -4.17   10.19
 -12  14   1   14.35   11.63
  12 -14  -1   11.55   10.72
 -12  14  -1   -4.66   10.72
  12 -14   2  -11.02    9.96
 -12  14   2   17.95   11.67
  12 -14  -2    3.71   10.72
 -12  14  -2    9.36   11.06
  12 -14   3    2.42    9.85
 -12  14   3   -2.88   10.68
  12 -14  -3   -1.29   10.38
 -12  14  -3    9.13   10.76
  13   4  -7   58.97   22.54
  13   4  -8   27.65   19.32
 -13  -4   8  -10.83   21.13
  13   5  -6  555.25  112.30
  13   5  -7  -29.09   19.32
 -13  -5   7  -36.93   24.39
  13   5  -8   10.87   20.34
 -13  -5   8   18.56   21.70
  13   6  -5   32.31   18.75
 -13  -6   5   14.43   21.51
  13   6  -6   12.20   20.38
 -13  -6   6   23.41   23.10
  13   7  -3   -6.29   15.11
  13   7  -4   62.27   21.06
 -13  -7   4  123.93   31.51
  13   7  -5   30.60   19.05
 -13  -7   5   14.51   20.76
  13   7  -6   17.84   18.37
 -13  -7   6  -20.11   22.23
  13   7  -7   -2.65   20.26
  13   7   7  -14.58   14.17
 -13  -7   7   25.79   22.57
  13   8  -2   30.72   15.72
 -13  -8   2   41.74   18.48
  13   8  -3  153.89   35.53
 -13  -8   3  132.83   33.37
  13   8  -4   53.82   20.76
 -13  -8   4   -5.72   18.79
  13   8  -5   33.22   18.71
 -13  -8   5   14.92   23.29
  13   8  -6   27.69   19.09
 -13  -8   6   57.38   24.05
  13   9   0   26.70   13.18
  13   9  -1  -13.98   13.60
 -13  -9   1   19.47   16.82
  13   9  -2    6.25   16.06
 -13  -9   2    7.31   17.84
  13   9  -3    0.80   17.65
 -13  -9   3   12.27   18.94
  13   9  -4    6.78   17.65
 -13  -9   4   30.15   21.74
  13   9  -5   83.93   25.15
 -13  -9   5   15.07   23.44
  13   9  -6    6.10   18.71
 -13  -9  -6    3.75   11.06
  13   9   6   18.86   11.44
 -13  -9   6   22.72   20.34
  13  10   0    4.05   13.98
 -13 -10   0   50.98   17.91
  13  10  -1    3.64   14.81
 -13 -10  -1  -12.27   11.93
  13  10   1   -1.55   10.64
 -13 -10   1    3.86   16.74
  13  10  -2  -19.09   16.10
 -13 -10   2   22.88   19.01
  13  10  -3  286.15   59.39
 -13 -10   3  342.69   71.24
  13  10  -4   19.81   17.65
 -13 -10   4   26.47   21.13
 -13  10   4   45.98   16.10
  13  10  -5   69.31   23.07
  13  10   5   51.36   13.07
 -13 -10   5   18.18   20.98
 -13  10   5   50.11   16.93
 -13  10   6  -18.14   10.53
  13  11   0   10.49   13.22
 -13 -11   0   24.32   14.70
 -13  11   0    1.93   11.70
  13  11  -1    4.73   13.60
 -13 -11  -1   15.68   11.55
  13  11   1   17.61   10.98
 -13 -11   1   19.54   15.45
 -13  11   1    5.08   11.51
  13  11  -2   38.14   17.57
 -13 -11  -2   19.88   10.00
  13  11   2   38.90   11.32
 -13 -11   2   40.30   19.51
 -13  11   2   34.50   14.39
  13 -11  -2   26.44   13.18
  13  11  -3   14.85   14.51
  13  11   3    1.17    5.26
 -13 -11   3   27.91   19.05
 -13  11   3  -16.78   12.31
  13 -11  -3    3.41   11.55
  13  11  -4   13.07   17.16
 -13 -11   4  -24.88   19.39
 -13  11   4   18.18   12.42
  13 -11  -4   20.00   12.01
 -13  11   5    7.27   10.68
  13 -11  -5    7.16   10.79
  13  12   0   19.43   13.14
 -13 -12   0   30.45   15.11
  13 -12   0    3.83   11.51
 -13  12   0   -3.11   12.04
  13  12  -1   58.71   17.84
 -13 -12  -1   74.31   19.13
  13  12   1   67.00   17.80
 -13 -12   1   49.69   18.14
  13 -12   1   47.31   16.02
 -13  12   1   58.86   18.63
  13 -12  -1   46.93   16.36
 -13  12  -1   53.18   17.54
  13  12  -2    7.88   14.62
 -13 -12  -2   -1.10    8.98
  13  12   2   21.82    9.43
 -13 -12   2  -10.49   16.17
  13 -12   2   11.36   11.63
 -13  12   2   15.38   12.20
  13 -12  -2    2.05   11.06
 -13  12  -2   -4.85   11.74
  13  12  -3   15.91   14.47
 -13 -12  -3    5.45    6.10
 -13 -12   3   15.23   18.45
 -13  12   3   15.79   12.35
  13 -12  -3   -6.51   10.83
 -13  12  -3   11.02   11.78
 -13  12   4   19.01   11.74
  13 -12  -4   -4.01   10.57
  13  13   0    3.79   13.26
 -13 -13   0   -6.59   15.26
  13 -13   0    0.64   10.53
 -13  13   0    0.76   11.67
  13 -13   1    5.38   10.30
 -13  13   1   41.28   15.00
  13 -13  -1   25.53   12.46
 -13  13  -1   12.84   11.44
  13 -13   2   30.41   12.80
 -13  13   2   32.91   13.75
  13 -13  -2   57.61   17.31
 -13  13  -2   44.96   15.57
  13 -13   3   12.61   10.91
 -13  13   3    0.15   11.17
  13 -13  -3   -5.15   10.60
 -13  13  -3   10.26   11.06
  14   5  -7   12.73   19.73
  14   6  -5   10.04   15.42
  14   6  -6   26.97   18.71
 -14  -6   6   10.91   20.72
  14   7  -4   20.15   17.27
  14   7  -5   38.48   17.57
 -14  -7   5   34.35   23.79
  14   7  -6   -7.46   16.70
 -14  -7   6   51.02   23.14
  14   8  -3  140.21   32.50
 -14  -8   3  121.01   31.13
  14   8  -4  -20.94   16.32
 -14  -8   4    3.48   19.43
  14   8  -5   83.82   24.54
 -14  -8   5  113.78   31.93
  14   9  -1    2.92   12.88
  14   9  -2    8.75   14.96
 -14  -9   2  -13.56   16.48
  14   9  -3   27.27   16.97
 -14  -9   3    7.80   19.13
  14   9  -4   58.10   20.60
 -14  -9   4   22.95   19.43
  14   9  -5  -11.10   17.50
 -14  -9   5  -36.21   21.63
  14  10   0   26.70   13.56
 -14 -10   0    9.09   13.82
  14  10  -1    3.22   13.37
 -14 -10   1   -1.44   15.19
  14  10  -2   -0.53   15.23
 -14 -10   2   37.84   19.73
  14  10  -3   30.00   15.45
 -14 -10   3   39.39   19.51
  14  10  -4   -0.15   16.36
 -14 -10   4   24.28   19.77
  14  11   0   -7.95   12.42
 -14 -11   0   22.31   14.77
  14  11  -1    1.70   12.95
 -14 -11  -1   -2.05   11.70
  14  11   1    8.45   11.48
 -14 -11   1   18.90   15.26
  14  11  -2    4.01   14.58
  14  11   2    9.13    8.37
 -14 -11   2   -8.64   16.13
  14  11  -3   21.48   15.79
 -14 -11   3  -14.77   18.98
 -14  11   4   -7.99   10.26
 -14  12   0   25.19   12.73
 -14  12   1   -8.45   11.02
 -14  12  -1    4.17   10.68
 -14  12   2   -0.04   10.79
  14 -12  -2   -5.42   10.19
 -14  12   3   21.29   12.01
  14 -12  -3   17.73   11.14
  15   7  -5   -6.06   17.12
  15   8  -4    5.00   16.17
 -15  -8   4    1.21   17.16
  15   9  -2    0.80   14.43
  15   9  -3   14.09   15.53
 -15  -9   3  -10.57   16.25
  15  10  -1    6.74   13.52
 -15 -10   1  -26.40   14.88
  15  10  -2    7.65   13.75
 -15 -10   2   11.36   15.68
   0   0   0    0.00    0.00

_computing_structure_solution     'SHELXT 2014/5 (Sheldrick, 2014)'
;
_shelx_hkl_checksum              30608
loop_
_space_group_symop_operation_xyz
'x, y, z'
'-x+1/2, -y, z+1/2'
'-x, y+1/2, -z'
'x+1/2, -y+1/2, -z+1/2'
'-x, -y, -z'
'x-1/2, y, -z-1/2'
'x, -y-1/2, z'
'-x-1/2, y-1/2, z-1/2'
loop_
_atom_site_label
_atom_site_type_symbol
_atom_site_fract_x
_atom_site_fract_y
_atom_site_fract_z
_atom_site_U_iso_or_equiv
_atom_site_adp_type
_atom_site_occupancy
_atom_site_site_symmetry_order
_atom_site_calc_flag
_atom_site_refinement_flags_posn
_atom_site_refinement_flags_adp
_atom_site_refinement_flags_occupancy
_atom_site_disorder_assembly
_atom_site_disorder_group
Si1 Si 0.4239(6) 1.0559(5) 0.6643(7) 0.015(3) Uiso 1 1 d D . . . .
Si2 Si 0.3079(7) 1.0295(4) 0.8110(7) 0.018(4) Uiso 1 1 d D . . . .
Si3 Si 0.2797(6) 1.0622(4) 1.0313(7) 0.010(4) Uiso 1 1 d D . . . .
Si4 Si 0.1224(6) 1.0643(4) 1.0276(7) 0.010(4) Uiso 1 1 d D . . . .
Si5 Si 0.0727(7) 1.0276(4) 0.8156(7) 0.009(4) Uiso 1 1 d D . . . .
Si6 Si 0.1867(6) 1.0590(4) 0.6719(7) 0.011(3) Uiso 1 1 d D . . . .
Si7 Si 0.4232(7) 0.8285(4) 0.6750(7) 0.014(4) Uiso 1 1 d D . . . .
Si8 Si 0.3087(7) 0.8706(4) 0.8154(7) 0.014(3) Uiso 1 1 d D . . . .
Si9 Si 0.2738(6) 0.8269(4) 1.0309(7) 0.009(3) Uiso 1 1 d D . . . .
Si10 Si 0.1189(6) 0.8272(4) 1.0301(7) 0.013(4) Uiso 1 1 d D . . . .
Si11 Si 0.0704(7) 0.8692(4) 0.8151(7) 0.011(4) Uiso 1 1 d D . . . .
Si12 Si 0.1873(7) 0.8268(4) 0.6816(7) 0.022(4) Uiso 1 1 d D . . . .
O1 O 0.3719(11) 1.0552(14) 0.7537(16) 0.069(9) Uiso 1 1 d D . . . .
O2 O 0.3095(15) 1.0610(10) 0.9206(9) 0.050(7) Uiso 1 1 d D . . . .
O3 O 0.2011(7) 1.0616(11) 1.0303(18) 0.060(8) Uiso 1 1 d D . . . .
O4 O 0.0971(14) 1.0637(9) 0.9150(10) 0.034(6) Uiso 1 1 d D . . . .
O5 O 0.1162(9) 1.0548(11) 0.7245(14) 0.047(7) Uiso 1 1 d D . . . .
O6 O 0.2430(10) 1.0535(12) 0.7546(16) 0.056(7) Uiso 1 1 d D . . . .
O7 O 0.3759(10) 0.8460(11) 0.7664(16) 0.055(8) Uiso 1 1 d D . . . .
O8 O 0.3091(14) 0.8455(11) 0.9282(9) 0.052(7) Uiso 1 1 d D . . . .
O9 O 0.1964(6) 0.8435(9) 1.0267(16) 0.042(6) Uiso 1 1 d D . . . .
O10 O 0.0911(17) 0.8375(12) 0.9195(12) 0.062(8) Uiso 1 1 d D . . . .
O11 O 0.1165(10) 0.8435(13) 0.7266(17) 0.065(9) Uiso 1 1 d D . . . .
O12 O 0.2434(11) 0.8502(12) 0.757(2) 0.063(9) Uiso 1 1 d D . . . .
O13 O 0.3086(17) 0.9501(5) 0.8201(16) 0.050(7) Uiso 1 1 d D . . . .
O14 O 0.0807(16) 0.9483(5) 0.8260(17) 0.054(7) Uiso 1 1 d D . . . .
O15 O 0.4199(12) 1.1254(7) 0.6057(14) 0.040(6) Uiso 1 1 d D . . . .
O16 O 0.4072(15) 0.9977(9) 0.5873(14) 0.045(7) Uiso 1 1 d D . . . .
O17 O 0.4010(16) 0.8668(8) 0.5757(12) 0.046(7) Uiso 1 1 d D . . . .
O18 O 0.1919(15) 1.1300(7) 0.6172(14) 0.047(7) Uiso 1 1 d D . . . .
O19 O 0.1912(15) 1.0007(8) 0.5903(14) 0.048(6) Uiso 1 1 d D . . . .
O20 O 0.1959(15) 0.8697(7) 0.5819(11) 0.035(6) Uiso 1 1 d D . . . .
O21 O -0.0024(7) 1.0477(9) 0.7955(14) 0.033(6) Uiso 1 1 d D . . . .
O22 O -0.0045(7) 0.8508(10) 0.7924(17) 0.050(7) Uiso 1 1 d D . . . .
O23 O 0.423(2) 0.750000 0.6516(18) 0.022(8) Uiso 1 2 d DS . P . .
O24 O 0.194(2) 0.750000 0.6509(18) 0.026(8) Uiso 1 2 d DS . P . .
O25 O 0.284(2) 0.750000 1.0598(19) 0.033(9) Uiso 1 2 d DS . P . .
O26 O 0.111(2) 0.750000 1.0583(19) 0.033(9) Uiso 1 2 d DS . P . .
loop_
_atom_type_symbol
_atom_type_description
_atom_type_scat_dispersion_real
_atom_type_scat_dispersion_imag
_atom_type_scat_source
O O 0.0000 0.0000 'International Tables Vol C Tables 4.2.6.8 and 6.1.1.4'
Si Si 0.0000 0.0000 'International Tables Vol C Tables 4.2.6.8 and 6.1.1.4'
loop_
_geom_angle_atom_site_label_1
_geom_angle_atom_site_label_2
_geom_angle_atom_site_label_3
_geom_angle
_geom_angle_site_symmetry_1
_geom_angle_site_symmetry_3
O16 Si1 O15 108.0(13) . .
O16 Si1 O1 109.6(16) . .
O15 Si1 O1 109.9(16) . .
O16 Si1 O21 110.1(14) . 6_657
O15 Si1 O21 107.6(12) . 6_657
O1 Si1 O21 111.6(13) . 6_657
O13 Si2 O2 108.8(12) . .
O13 Si2 O6 110.1(17) . .
O2 Si2 O6 109.4(15) . .
O13 Si2 O1 110.5(18) . .
O2 Si2 O1 107.3(13) . .
O6 Si2 O1 110.6(16) . .
O19 Si3 O20 110.2(13) 2_575 2_575
O19 Si3 O2 107.7(13) 2_575 .
O20 Si3 O2 106.6(11) 2_575 .
O19 Si3 O3 111.7(15) 2_575 .
O20 Si3 O3 108.7(15) 2_575 .
O2 Si3 O3 111.8(16) . .
O4 Si4 O17 107.0(12) . 2_575
O4 Si4 O16 110.2(13) . 2_575
O17 Si4 O16 110.9(14) 2_575 2_575
O4 Si4 O3 110.2(15) . .
O17 Si4 O3 108.6(15) 2_575 .
O16 Si4 O3 109.9(15) 2_575 .
O4 Si5 O14 110.2(12) . .
O4 Si5 O5 108.0(14) . .
O14 Si5 O5 110.3(14) . .
O4 Si5 O21 108.9(14) . .
O14 Si5 O21 111.1(15) . .
O5 Si5 O21 108.3(11) . .
O6 Si6 O19 112.4(15) . .
O6 Si6 O18 109.2(16) . .
O19 Si6 O18 109.4(13) . .
O6 Si6 O5 109.6(14) . .
O19 Si6 O5 108.2(15) . .
O18 Si6 O5 107.9(12) . .
O7 Si7 O22 106.7(13) . 6_657
O7 Si7 O17 111.1(15) . .
O22 Si7 O17 110.7(16) 6_657 .
O7 Si7 O23 111.2(16) . .
O22 Si7 O23 109.4(18) 6_657 .
O17 Si7 O23 107.8(12) . .
O8 Si8 O13 106.2(13) . .
O8 Si8 O12 112.9(16) . .
O13 Si8 O12 105.9(16) . .
O8 Si8 O7 106.7(13) . .
O13 Si8 O7 108.9(16) . .
O12 Si8 O7 115.8(16) . .
O8 Si9 O25 111.9(16) . .
O8 Si9 O18 107.5(14) . 2_575
O25 Si9 O18 106.5(11) . 2_575
O8 Si9 O9 111.3(15) . .
O25 Si9 O9 109.6(17) . .
O18 Si9 O9 109.9(14) 2_575 .
O15 Si10 O26 112.1(13) 2_575 .
O15 Si10 O10 109.6(16) 2_575 .
O26 Si10 O10 107.9(15) . .
O15 Si10 O9 112.5(13) 2_575 .
O26 Si10 O9 107.3(18) . .
O10 Si10 O9 107.2(16) . .
O10 Si11 O11 111.5(17) . .
O10 Si11 O22 109.1(17) . .
O11 Si11 O22 110.3(13) . .
O10 Si11 O14 106.2(13) . .
O11 Si11 O14 108.0(15) . .
O22 Si11 O14 111.7(15) . .
O12 Si12 O24 112.6(19) . .
O12 Si12 O20 106.9(15) . .
O24 Si12 O20 107.1(11) . .
O12 Si12 O11 110.3(17) . .
O24 Si12 O11 112.0(19) . .
O20 Si12 O11 107.6(15) . .
Si1 O1 Si2 154.6(19) . .
Si2 O2 Si3 148.0(17) . .
Si3 O3 Si4 177.5(17) . .
Si4 O4 Si5 153.4(14) . .
Si5 O5 Si6 148.0(16) . .
Si2 O6 Si6 160.6(18) . .
Si7 O7 Si8 154.2(19) . .
Si8 O8 Si9 153(2) . .
Si9 O9 Si10 156.2(14) . .
Si11 O10 Si10 163.3(19) . .
Si11 O11 Si12 151.4(19) . .
Si8 O12 Si12 169(2) . .
Si2 O13 Si8 173.3(16) . .
Si5 O14 Si11 163(2) . .
Si10 O15 Si1 148.5(16) 2_574 .
Si1 O16 Si4 167(2) . 2_574
Si4 O17 Si7 146.6(14) 2_574 .
Si9 O18 Si6 146.7(16) 2_574 .
Si3 O19 Si6 159(2) 2_574 .
Si12 O20 Si3 147.7(14) . 2_574
Si1 O21 Si5 149.5(14) 6_557 .
Si7 O22 Si11 153.1(17) 6_557 .
Si7 O23 Si7 157.4(18) 7_575 .
Si12 O24 Si12 148.5(18) . 7_575
Si9 O25 Si9 148(2) 7_575 .
Si10 O26 Si10 150(2) . 7_575
loop_
_geom_bond_atom_site_label_1
_geom_bond_atom_site_label_2
_geom_bond_distance
_geom_bond_site_symmetry_2
Si1 O16 1.602(9) .
Si1 O15 1.608(9) .
Si1 O1 1.609(9) .
Si1 O21 1.614(9) 6_657
Si2 O13 1.603(9) .
Si2 O2 1.607(9) .
Si2 O6 1.607(9) .
Si2 O1 1.610(10) .
Si3 O19 1.609(9) 2_575
Si3 O20 1.610(9) 2_575
Si3 O2 1.612(10) .
Si3 O3 1.612(9) .
Si4 O4 1.603(9) .
Si4 O17 1.604(9) 2_575
Si4 O16 1.604(9) 2_575
Si4 O3 1.616(9) .
Si5 O4 1.604(9) .
Si5 O14 1.612(9) .
Si5 O5 1.613(9) .
Si5 O21 1.615(10) .
Si6 O6 1.608(9) .
Si6 O19 1.611(9) .
Si6 O18 1.613(9) .
Si6 O5 1.613(10) .
Si7 O7 1.607(9) .
Si7 O22 1.609(10) 6_657
Si7 O17 1.610(9) .
Si7 O23 1.613(8) .
Si8 O8 1.600(9) .
Si8 O13 1.603(9) .
Si8 O12 1.606(9) .
Si8 O7 1.607(10) .
Si9 O8 1.605(10) .
Si9 O25 1.612(8) .
Si9 O18 1.612(10) 2_575
Si9 O9 1.623(9) .
Si10 O15 1.608(9) 2_575
Si10 O26 1.609(8) .
Si10 O10 1.609(9) .
Si10 O9 1.623(10) .
Si11 O10 1.602(9) .
Si11 O11 1.607(10) .
Si11 O22 1.611(10) .
Si11 O14 1.613(9) .
Si12 O12 1.606(9) .
Si12 O24 1.607(8) .
Si12 O20 1.608(9) .
Si12 O11 1.608(10) .
