#------------------------------------------------------------------------------
#$Date: 2019-07-12 07:21:08 +0300 (Fri, 12 Jul 2019) $
#$Revision: 216970 $
#$URL: file:///home/coder/svn-repositories/cod/cif/1/55/20/1552089.cif $
#------------------------------------------------------------------------------
#
# This file is available in the Crystallography Open Database (COD),
# http://www.crystallography.net/. The original data for this entry
# were provided by IUCr Journals, http://journals.iucr.org/.
#
# The file may be used within the scientific community so long as
# proper attribution is given to the journal article from which the
# data were obtained.
#
data_1552089
loop_
_publ_author_name
'Wang, Bin'
'Zou, Xiaodong'
'Smeets, Stef'
_publ_section_title
;
 Automated serial rotation electron diffraction combined with cluster
 analysis: an efficient multi-crystal workflow for structure determination
;
_journal_issue                   5
_journal_name_full               IUCrJ
_journal_page_first
;
;
_journal_paper_doi               10.1107/S2052252519007681
_journal_volume                  6
_journal_year                    2019
_chemical_formula_moiety         'O192 Si96'
_chemical_formula_sum            'O192 Si96'
_chemical_formula_weight         5768.06
_chemical_name_common            ZSM-5
_chemical_name_systematic        Si-MFI
_space_group_crystal_system      orthorhombic
_space_group_IT_number           62
_space_group_name_Hall           '-P 2ac 2n'
_space_group_name_H-M_alt        'P n m a'
_symmetry_space_group_name_Hall  '-P 2ac 2n'
_symmetry_space_group_name_H-M   'P n m a'
_audit_creation_method           SHELXL-2014/7
_cell_angle_alpha                90
_cell_angle_beta                 90
_cell_angle_gamma                90
_cell_formula_units_Z            1
_cell_length_a                   20.390
_cell_length_b                   20.080
_cell_length_c                   13.570
_cell_measurement_reflns_used    4488
_cell_measurement_temperature    293(2)
_cell_measurement_theta_max      1.80
_cell_measurement_theta_min      0.072
_cell_volume                     5555.981
_computing_cell_refinement       'XDS-20180126 (Kabsch, 2018)'
_computing_data_collection       'Instamatic-1.0.0 (Smeets et al., 2018)'
_computing_data_reduction        'XDS-20180126 (Kabsch, 2018)'
_computing_structure_refinement  'SHELXL-2014/7 (Sheldrick, 2014)'
_computing_structure_solution    'SHELXT-2014/5 (Sheldrick, 2013)'
_diffrn_ambient_temperature      293(2)
_diffrn_measured_fraction_theta_full 0.796
_diffrn_measured_fraction_theta_max 0.734
_diffrn_measurement_device_type  'JEOL JEM-2100 LAB6'
_diffrn_measurement_method       'Continuous rotation electron diffraction'
_diffrn_radiation_type           electron
_diffrn_radiation_wavelength     0.0251
_diffrn_reflns_av_R_equivalents  0.2084
_diffrn_reflns_av_unetI/netI     0.2288
_diffrn_reflns_Laue_measured_fraction_full 0.796
_diffrn_reflns_Laue_measured_fraction_max 0.734
_diffrn_reflns_limit_h_max       25
_diffrn_reflns_limit_h_min       -25
_diffrn_reflns_limit_k_max       24
_diffrn_reflns_limit_k_min       -23
_diffrn_reflns_limit_l_max       15
_diffrn_reflns_limit_l_min       -16
_diffrn_reflns_number            20597
_diffrn_reflns_point_group_measured_fraction_full 0.796
_diffrn_reflns_point_group_measured_fraction_max 0.734
_diffrn_reflns_theta_full        0.863
_diffrn_reflns_theta_max         0.912
_diffrn_reflns_theta_min         0.079
_diffrn_source                   'electron microscope'
_exptl_absorpt_coefficient_mu    0.000
_exptl_crystal_density_diffrn    1.724
_exptl_crystal_description       cuboid
_exptl_crystal_F_000             939
_refine_diff_density_max         0.248
_refine_diff_density_min         -0.279
_refine_diff_density_rms         0.064
_refine_ls_extinction_coef       941(59)
_refine_ls_extinction_expression Fc^*^=kFc[1+0.001xFc^2^\l^3^/sin(2\q)]^-1/4^
_refine_ls_extinction_method     'SHELXL-2014/7 (Sheldrick 2014'
_refine_ls_goodness_of_fit_ref   1.075
_refine_ls_hydrogen_treatment    undef
_refine_ls_matrix_type           full
_refine_ls_number_parameters     332
_refine_ls_number_reflns         4488
_refine_ls_number_restraints     0
_refine_ls_restrained_S_all      1.075
_refine_ls_R_factor_all          0.2273
_refine_ls_R_factor_gt           0.1960
_refine_ls_shift/su_max          0.056
_refine_ls_shift/su_mean         0.003
_refine_ls_structure_factor_coef Fsqd
_refine_ls_weighting_details
'w=1/[\s^2^(Fo^2^)+(0.1679P)^2^+3.4109P] where P=(Fo^2^+2Fc^2^)/3'
_refine_ls_weighting_scheme      calc
_refine_ls_wR_factor_gt          0.4460
_refine_ls_wR_factor_ref         0.4735
_reflns_Friedel_coverage         0.000
_reflns_number_gt                3029
_reflns_number_total             4488
_reflns_threshold_expression     'I > 2\s(I)'
_cod_data_source_file            fc5033.cif
_cod_data_source_block           zsm5_mixed_phase
_cod_original_cell_volume        5556.0
_cod_database_code               1552089
_shelx_shelxl_version_number     2014/7
_shelx_space_group_comment
;
The symmetry employed for this shelxl refinement is uniquely defined
by the following loop, which should always be used as a source of
symmetry information in preference to the above space-group names.
They are only intended as comments.
;
_shelx_res_file
;

    shelx_a7_UCToLit.res created by SHELXL-2014/7


TITL shelx_a.res in Pnma
REM Old TITL 16

REM SHELXT solution in Pnma
REM R1 0.317,  Rweak 0.103,  Alpha 0.162,  Orientation as input
REM Formula found by SHELXT:  Si O2

CELL  0.02510  20.3900  20.0800  13.5700   90.000   90.000   90.000
ZERR    1.000   0.0000   0.0000   0.0000    0.000    0.000    0.000
LATT  1
SYMM 1/2-X, -Y, 1/2+Z
SYMM -X, 1/2+Y, -Z
SYMM 1/2+X, 1/2-Y, 1/2-Z
SFAC SI  2.1293 57.7748  2.5333 16.4756         =
         0.8349  2.8796  0.3216  0.3860  0.0000 =
         0.0000  0.0000  0.0000  1.1100 28.0860
SFAC O   0.4548 23.7803  0.9173  7.6220         =
         0.4719  2.1440  0.1384  0.2959  0.0000 =
         0.0000  0.0000  0.0000  0.7300 15.9990
UNIT 96 192
L.S. 10
BOND $H
LIST 6
FMAP 2
PLAN 20
ACTA
WGHT    0.167900    3.410900
EXTI  940.999512
FVAR       1.15842
SI1   1    0.428476    0.527918    0.687700    11.00000    0.01780    0.01709 =
         0.01936    0.00114    0.00681    0.00093
SI2   1    0.430562    0.369719    0.684113    11.00000    0.02072    0.01904 =
         0.02658    0.00291    0.00118   -0.00069
SI3   1    0.380189    0.326647    0.472496    11.00000    0.02578    0.01536 =
         0.03009    0.00225   -0.00728   -0.00394
SI4   1    0.193191    0.528859    0.691112    11.00000    0.02525    0.01648 =
         0.03977    0.00321    0.00977   -0.00369
SI5   1    0.224884    0.327291    0.471824    11.00000    0.02439    0.01586 =
         0.02865   -0.00047   -0.00278    0.00218
SI6   1    0.314125    0.327615    0.821676    11.00000    0.02302    0.02134 =
         0.03443    0.00654    0.00497    0.00219
SI7   1    0.577410    0.327753    0.673370    11.00000    0.01932    0.01686 =
         0.03473    0.00051    0.00207   -0.00003
SI8   1    0.280402    0.437687    0.971329    11.00000    0.02234    0.01734 =
         0.03296   -0.00272    0.00473   -0.00129
SI9   1    0.122549    0.435705    0.975238    11.00000    0.02301    0.01815 =
         0.02447   -0.00266    0.00227    0.00278
SI10  1    0.193208    0.371089    0.687635    11.00000    0.03006    0.01704 =
         0.02742    0.00215    0.00490    0.00049
SI11  1    0.577616    0.556741    0.662163    11.00000    0.01692    0.02052 =
         0.03459    0.00524    0.00191   -0.00034
SI12  1    0.314602    0.559174    0.829835    11.00000    0.02067    0.02422 =
         0.03188   -0.00655    0.01235   -0.00381
O1    2    0.301956    0.345615    0.471578    11.00000    0.02293    0.03949 =
         0.10245    0.00564    0.00330    0.00335
O2    2    0.202375    0.440672    0.973289    11.00000    0.02055    0.08561 =
         0.09035   -0.00988    0.00140    0.00196
O3    2    0.421258    0.448112    0.675041    11.00000    0.06622    0.02284 =
         0.06768    0.00634    0.02450   -0.00169
O4    2    0.310815    0.250000    0.850003    10.50000    0.06655    0.02667 =
         0.02821    0.00000    0.01785    0.00000
O5    2    0.214592    0.250000    0.447393    10.50000    0.04869    0.01326 =
         0.09051    0.00000   -0.02692    0.00000
O6    2    0.503698    0.549123    0.706151    11.00000    0.02084    0.05153 =
         0.04479   -0.00586    0.00303   -0.00574
O7    2    0.385705    0.554116    0.777904    11.00000    0.02262    0.05991 =
         0.04438   -0.01747    0.01216   -0.00101
O8    2    0.576423    0.250000    0.639014    10.50000    0.09804    0.01601 =
         0.05641    0.00000    0.01995    0.00000
O9    2    0.192111    0.342794    0.577672    11.00000    0.04432    0.06070 =
         0.05035   -0.00335    0.00581   -0.00192
O10   2    0.629772    0.554216    0.747981    11.00000    0.03254    0.09976 =
         0.02875   -0.01423   -0.01985    0.00778
O11   2    0.259050    0.553071    0.749997    11.00000    0.04221    0.07681 =
         0.04023   -0.01265   -0.00221   -0.00785
O12   2    0.504455    0.349774    0.709877    11.00000    0.03057    0.07341 =
         0.03700   -0.00399    0.00477    0.01541
O13   2    0.391899    0.250000    0.439908    10.50000    0.08007    0.02428 =
         0.02517    0.00000   -0.00369    0.00000
O14   2    0.259159    0.346808    0.744530    11.00000    0.04047    0.08337 =
         0.06223    0.02071   -0.01314    0.02175
O15   2    0.384475    0.342946    0.774007    11.00000    0.02830    0.04803 =
         0.06709    0.00369    0.01640   -0.01390
O16   2    0.098760    0.436752    1.085963    11.00000    0.07132    0.03183 =
         0.02783   -0.00087    0.02498    0.00468
O17   2    0.309675    0.500922    0.912638    11.00000    0.08189    0.03229 =
         0.06218   -0.00222    0.02014   -0.00715
O18   2    0.581194    0.626122    0.604451    11.00000    0.06089    0.02721 =
         0.05049    0.00467    0.02449    0.00595
O19   2    0.193177    0.449151    0.685143    11.00000    0.14646    0.02039 =
         0.08893    0.01736   -0.00552    0.00735
O20   2    0.187968    0.369241    0.387603    11.00000    0.05537    0.02763 =
         0.03580   -0.00231   -0.01996    0.01071
O21   2    0.628320    0.342801    0.760183    11.00000    0.03488    0.07848 =
         0.04720   -0.00221   -0.01475   -0.00940
O22   2    0.410432    0.335592    0.581566    11.00000    0.07045    0.05991 =
         0.04492   -0.02457   -0.03055    0.00799
O23   2    0.193675    0.562246    0.586508    11.00000    0.05267    0.04688 =
         0.03456    0.00637    0.00178    0.00676
O24   2    0.590349    0.497598    0.585829    11.00000    0.08582    0.03051 =
         0.05747   -0.00542    0.00962    0.00843
O25   2    0.596155    0.366969    0.572861    11.00000    0.05759    0.02782 =
         0.05046    0.01184    0.01153   -0.00520
O26   2    0.303501    0.369272    0.921180    11.00000    0.09603    0.02894 =
         0.06172   -0.02445    0.01086    0.01137
HKLF 4

REM  shelx_a.res in Pnma
REM R1 =  0.1960 for    3029 Fo > 4sig(Fo)  and  0.2273 for all    4488 data
REM    332 parameters refined using      0 restraints

END

WGHT      0.1813      2.8124

REM Highest difference peak  0.248,  deepest hole -0.279,  1-sigma level  0.064
Q1    1   0.0798  0.5591  0.5011  11.00000  0.05    0.25
Q2    1   0.3070  0.2500  0.4809  10.50000  0.05    0.24
Q3    1   0.1939  0.4596  0.9600  11.00000  0.05    0.24
Q4    1   0.2983  0.3132  0.4214  11.00000  0.05    0.22
Q5    1   0.3982  0.2500  0.1972  10.50000  0.05    0.21
Q6    1   0.3179  0.3076  0.5175  11.00000  0.05    0.20
Q7    1   0.1919  0.4178  1.0149  11.00000  0.05    0.20
Q8    1   0.0809  0.3111  0.5217  11.00000  0.05    0.20
Q9    1   0.0831  0.2500  0.5843  10.50000  0.05    0.20
Q10   1   0.3155  0.3246  0.7971  11.00000  0.05    0.20
Q11   1   0.2053  0.2500  0.9579  10.50000  0.05    0.19
Q12   1   0.3182  0.2500  0.1788  10.50000  0.05    0.19
Q13   1   0.1976  0.3353  1.0157  11.00000  0.05    0.19
Q14   1   0.5404  0.2500  0.4868  10.50000  0.05    0.19
Q15   1   0.5319  0.3113  0.5335  11.00000  0.05    0.19
Q16   1   0.3803  0.5442  0.8838  11.00000  0.05    0.18
Q17   1   0.5258  0.2869  0.4405  11.00000  0.05    0.17
Q18   1   0.0726  0.2500  1.1876  10.50000  0.05    0.17
Q19   1   0.2268  0.2500  0.8626  10.50000  0.05    0.16
Q20   1   0.6787  0.5011  0.6576  11.00000  0.05    0.16
;
_shelx_res_checksum              91938
_shelx_hkl_file
;
   0  -2   2 1359.32  677.12
   0  -2   2 1014.88  435.44
   0  -2   3  277.27  120.38
   0  -2   3    2.19    6.90
   0   2  -3  273.70  118.65
   0   2  -4   61.49   22.37
   0  -3   0   26.98   12.64
   0  -3   0    9.73    5.23
   0  -3   0  154.13   56.75
   0   3   1 1732.55  627.36
   0  -3  -1 1832.77  663.87
   0  -3   3 1762.50  877.67
   0  -3   3 1436.49  616.41
   0  -3   4   -3.92    8.62
   0  -3   4    7.59    6.92
   0   3  -4    3.06    5.78
   0  -3   5 3670.14 1573.57
   0  -3   5 3475.46 1135.37
   0   3  -5 1844.29  790.93
   0   3  -5 3149.46 1029.05
   0   3  -6    5.58    8.73
   0  -4   0 1213.01  300.55
   0  -4   0 2090.80  767.20
   0  -4   0 2862.62 1036.77
   0   4   0 1339.73  491.65
   0   4   0 2408.74  872.49
   0  -4  -1    0.20    7.88
   0  -4  -1    3.88    8.34
   0  -4   3    4.19   12.65
   0  -4   4 1774.01  761.09
   0   4  -4 2053.95  880.67
   0  -4   5    9.22    9.85
   0  -4   5    3.86    5.37
   0   4  -5   -0.86    7.98
   0  -4   6   76.71   35.30
   0  -4   6  121.53   40.63
   0   4  -6   87.06   40.08
   0   4  -6  146.42   48.64
   0  -4   7    6.81   11.35
   0  -4   7    4.64    5.37
   0   4  -7    9.28   12.71
   0   4  -8    6.79    7.97
   0  -5   0   18.33   12.22
   0  -5   0   23.63   15.13
   0   5   1 8001.51 2935.19
   0  -5  -1 7529.20 2762.40
   0   5  -4   -0.04   10.16
   0  -5   5 1828.16  784.14
   0   5  -5 1897.27  813.74
   0  -5   6   15.10   11.78
   0   5  -6    4.94    9.23
   0  -5   7  152.05   66.69
   0  -5   7  178.09   59.13
   0   5  -7  193.99   84.38
   0   5  -7  212.08   69.89
   0  -5   8    3.15    5.56
   0   5  -8   -1.67   15.87
   0   5  -8    3.21    5.77
   0  -5   9 3970.80 1702.59
   0  -5   9 4795.60 1566.66
   0   5  -9 4175.85 1790.14
   0   5 -10   -2.60    6.58
   0  -6   0 2658.72  975.59
   0  -6   0 4385.51 1588.55
   0   6   0 2919.06 1071.09
   0   6   0 4398.17 1593.16
   0   6   1   16.20   10.19
   0  -6  -1    4.11    7.72
   0  -6  -1   22.34   12.90
   0   6   2  862.70  312.64
   0  -6  -2  630.47  232.01
   0  -6  -2  930.90  337.41
   0  -6   5    5.33    9.29
   0   6  -5    7.39   11.37
   0  -6   6  130.87   57.13
   0   6  -6  137.89   60.17
   0  -6   7   -0.66    8.90
   0   6  -7    3.28    8.18
   0  -6   8  548.80  235.81
   0  -6   8  433.72  142.27
   0   6  -8  306.08  100.60
   0  -6   9  173.60   75.56
   0  -6   9   13.88    7.95
   0   6  -9   84.46   37.80
   0  -6  10  173.37   75.74
   0   6 -10  312.30  102.63
   0  -6  11   14.88   14.83
   0  -6  11    4.52    6.25
   0   6 -11   24.26   15.79
   0   6 -11   14.57    7.25
   0   6 -12   55.71   26.21
   0   6 -12   23.64   10.03
   0  -7   0   42.14   12.16
   0  -7   0   10.73   11.01
   0  -7   0  116.35   44.88
   0   7   0   12.19   10.72
   0   7   0   73.55   29.89
   0   7   1 1684.16  618.03
   0   7   1 2086.19  755.92
   0  -7  -1 1774.01  651.21
   0   7   2    5.29    6.13
   0   7   2   12.71    7.74
   0  -7  -2    4.38    6.78
   0  -7  -2    8.24    7.18
   0  -7   6   12.33   10.86
   0   7  -6    9.17   10.03
   0  -7   7  355.14  152.98
   0   7  -7  365.51  157.35
   0  -7   8    8.95    9.20
   0   7  -9   42.42   20.03
   0  -7  10   26.36   17.81
   0   7 -10    8.68    6.71
   0  -7  11   54.94   19.35
   0   7 -11  133.17   58.78
   0   7 -11   47.84   17.06
   0  -7  12   68.01   32.43
   0  -7  12    0.27    4.56
   0   7 -12    8.45   11.10
   0   7 -12    1.43    5.47
   0  -7  13   16.04   14.33
   0  -7  13    7.34    6.29
   0   7 -13   32.27   17.36
   0   7 -13   21.21    9.06
   0   7 -14    3.41    8.22
   0   7 -14    2.78    4.77
   0  -8   0 7123.71 2613.79
   0   8   0 6349.59 2329.26
   0   8   1    2.80    7.20
   0  -8  -1    9.57    8.33
   0  -8  -1   26.01   11.99
   0   8  -1   17.88    5.40
   0   8   2  112.56   42.18
   0  -8  -2  164.38   61.11
   0  -8  -2  193.07   70.60
   0  -8  -3    6.67    7.67
   0  -8   6 1630.02  699.35
   0   8  -6 2129.97  913.62
   0  -8   7   79.96   36.29
   0   8  -7  127.52   55.97
   0  -8   8   88.98   39.57
   0   8  -8   64.26   29.05
   0  -8   9  806.37  346.17
   0   8  -9  238.23  103.08
   0  -8  10  325.89  140.54
   0  -8  10  534.86  175.33
   0   8 -10  676.08  290.41
   0  -8  11    3.79   14.68
   0  -8  11    8.20    6.36
   0   8 -11    7.12    5.69
   0  -8  12  798.54  343.29
   0  -8  12   23.79   10.14
   0   8 -12  553.52  238.11
   0  -8  13    0.08   11.77
   0  -8  13    6.67    5.32
   0   8 -13   12.46   10.76
   0   8 -13   13.09    6.75
   0  -8  14  149.07   66.25
   0  -8  14  161.50   53.74
   0   8 -14  195.72   84.82
   0   8 -14  210.92   69.69
   0   8 -15   -3.46    8.56
   0   8 -15    1.18    4.18
   0   8 -16  289.03   95.26
   0  -9   0  679.42  168.64
   0  -9   0    7.04   11.10
   0  -9   0   70.45   31.44
   0   9   0   10.07   12.53
   0   9   0   57.61   26.98
   0   9   1  148.03   55.19
   0   9   1  127.29   47.05
   0  -9  -1  144.69   53.15
   0   9   2   12.25    7.97
   0  -9  -2   12.57    8.97
   0  -9  -2    7.65    7.02
   0   9   3   58.66   22.68
   0  -9  -3   88.39   32.95
   0  -9   7   57.59   26.91
   0   9  -7   92.44   41.33
   0  -9   8    4.80    9.01
   0   9  -8   12.58    9.72
   0  -9   9  402.61  173.60
   0   9  -9  315.18  135.93
   0  -9  10    5.57    9.96
   0   9 -10   10.99   10.09
   0  -9  11  243.30  105.28
   0  -9  11  216.45   71.53
   0   9 -11  230.86   99.83
   0  -9  12    8.03   14.27
   0  -9  12    5.68    6.33
   0   9 -12    8.06    8.40
   0   9 -12    3.80    4.80
   0  -9  13    4.56   12.04
   0  -9  13    5.29    5.43
   0   9 -13    4.02    4.83
   0  -9  14    3.38    5.20
   0   9 -14    7.89    8.70
   0   9 -14    3.78    4.86
   0   9 -15   33.97   12.65
   0   9 -16    0.97    4.31
   0 -10   0 5789.75 2124.21
   0 -10   0 6250.53 1548.24
   0  10   0 6084.65 2232.50
   0  10   1   20.25   10.29
   0 -10  -1   12.82    8.83
   0 -10  -1   16.93    8.99
   0  10  -1   15.79    4.85
   0  10   2 3249.68 1192.28
   0 -10  -2 2816.54 1033.54
   0  10   3   83.97   31.40
   0 -10  -3   93.14   34.63
   0  10  -8  356.07  153.67
   0 -10   9 2341.93 1004.62
   0  10  -9 1548.24  664.22
   0 -10  10  296.51  128.56
   0  10 -10  268.86  116.23
   0 -10  11   -0.90   10.47
   0  10 -11   -6.82    9.16
   0 -10  12  267.71  115.77
   0  10 -12  189.73   82.34
   0 -10  13    4.59    9.11
   0 -10  13    3.90    5.38
   0  10 -13    4.40    7.97
   0  10 -13    2.22    4.05
   0  10 -14   19.45   10.38
   0  10 -14   15.42    7.51
   0  10 -15    3.73    9.37
   0 -11   0    9.16    9.63
   0 -11   0   72.65   30.01
   0  11   0   18.83   12.34
   0  11   0   40.35   19.79
   0  11   1  694.05  255.15
   0  11   1  963.15  349.16
   0 -11   1  891.50  220.83
   0 -11  -1  654.20  240.53
   0  11  -1  824.46  204.24
   0  11   2    4.37    6.67
   0  11   2    5.25    8.03
   0 -11  -2   12.49    7.76
   0 -11  -2    5.93    8.06
   0  11   3  204.01   75.70
   0  11   3  371.39  134.90
   0 -11  -3  162.54   60.59
   0 -11  -3  376.46  136.74
   0  11   4    8.65    7.48
   0 -11  -4   11.18    7.88
   0 -11   8    9.76   13.24
   0 -11   9   32.21   17.99
   0 -11  10    1.23   13.18
   0  11 -10    7.89   11.01
   0 -11  11   54.49   27.14
   0  11 -11   48.64   23.07
   0  11 -12    8.00    8.37
   0  11 -13    4.89    7.02
   0 -11  14    0.72    4.93
   0  11 -14    1.65    6.60
   0  11 -15    4.60    4.73
   0 -12   0 1033.89  256.31
   0 -12   0 1024.21  376.34
   0 -12   0 2222.13  804.99
   0  12   0 1189.97  437.29
   0  12   0 1627.72  589.80
   0  12   1    9.84    7.57
   0 -12   1   10.18    3.65
   0 -12  -1    6.80    6.89
   0  12  -1    8.53    3.22
   0  12   2 2042.42  740.14
   0 -12  -2 2309.68  847.85
   0 -12  -2 2344.24  849.34
   0  12   3   -0.50    6.96
   0 -12  -3    4.19    7.50
   0 -12  -3   10.44    8.69
   0  12   4  123.03   45.36
   0 -12  -4  132.82   48.89
   0 -12   9   13.65   14.69
   0  12  -9   18.66   14.26
   0 -12  10  299.97  129.60
   0  12 -11    0.47    8.29
   0  12 -12  302.39  130.52
   0  12 -13    2.64    7.37
   0 -13   0   12.90    9.21
   0 -13   0   14.32   12.35
   0  13   0    6.55    8.87
   0  13   0    1.29   10.56
   0  13   1  327.27  120.73
   0 -13   1  189.73   47.22
   0 -13  -1  298.01  110.06
   0  13  -1  193.87   48.27
   0  13   2   12.83    7.75
   0  13   2   21.05   10.66
   0 -13  -2    9.57    7.34
   0 -13  -2   15.30    8.73
   0  13   3  582.77  214.50
   0  13   3  162.65   59.99
   0 -13  -3  519.53  191.34
   0 -13  -3  235.69   86.19
   0  13   4   63.10   24.48
   0 -13  -4   29.39   12.83
   0 -13  -5 1610.44  583.58
   0 -13  10    8.77   11.80
   0  13 -10   10.21   11.84
   0 -13  11  364.48  157.35
   0  13 -11  590.26  253.89
   0  13 -12   28.36   15.32
   0  13 -13   33.94   16.78
   0 -14   0  358.37  132.36
   0 -14   0  937.01  339.95
   0  14   0  469.88  173.25
   0  14   0  489.00  178.21
   0  14   1    2.43    6.70
   0 -14   1   11.76    3.95
   0 -14  -1    0.68    6.58
   0 -14  -1    3.92    7.08
   0  14  -1   12.60    4.06
   0  14   2  226.82   84.13
   0  14   2  391.43  142.27
   0 -14  -2  264.26   97.77
   0  14   3    6.56    7.29
   0  14   3    5.90    9.12
   0 -14  -3    5.10    7.14
   0  14   4   10.19    7.59
   0 -14  -4    3.54    6.51
   0 -14  -4    4.65    7.23
   0  14   5    4.37    7.52
   0 -14  -5    9.89    9.03
   0 -14  10    8.07   11.25
   0  14 -11    3.33   10.58
   0  14 -12   41.56   19.81
   0 -14  13    0.34    0.99
   0  14 -13    2.86    8.45
   0 -15   0   26.44   14.80
   0 -15   0  476.33  173.83
   0  15   0   10.53   10.91
   0  15   0  926.87  336.84
   0  15   1   28.60   13.01
   0 -15   1   43.44   11.37
   0 -15  -1   44.58   18.29
   0 -15  -1   38.07   16.14
   0  15  -1   38.18   10.21
   0  15   2  105.51   40.04
   0 -15  -2  143.88   53.88
   0  15   4    3.11    7.15
   0  15   4    7.11    7.31
   0 -15  -4   13.05    9.15
   0  15   5 1240.66  455.71
   0  15   5  654.32  237.54
   0  15 -12   -0.49    9.37
   0 -16   0 6123.81 2246.32
   0  16   0 5256.39 1928.38
   0  16   1   15.99   10.02
   0  16   1    4.00    7.47
   0 -16   1  180.86   45.10
   0 -16  -1   15.99    9.24
   0 -16  -1   12.08    8.74
   0  16  -1  176.82   44.06
   0  16   2  554.67  204.24
   0 -16  -2  440.74  162.54
   0 -16  -2  373.35  136.05
   0  16  -2  505.48  125.45
   0  16   3    4.52    8.00
   0 -16  -3    9.46    8.70
   0 -16  -3    2.91    9.70
   0  16   4  383.02  141.35
   0 -16  -4  422.89  156.09
   0 -16  -4  349.74  127.52
   0 -16  -5   13.60    8.54
   0 -16  -5    0.59    7.57
   0 -16  -6    8.89    8.20
   0 -17   0   54.02   25.24
   0  17   0    5.09   10.59
   0  17   0   66.24   29.72
   0  17   1   11.17    9.27
   0  17   1    6.40    8.96
   0 -17   1   10.57    4.23
   0 -17  -1    6.35    8.48
   0  17  -1   11.33    4.48
   0  17   2    3.04    8.26
   0 -17  -2   -0.65    8.94
   0  17  -2    3.13    4.02
   0  17   3   12.63    9.21
   0  17   3  131.67   49.51
   0 -17  -3  169.80   62.78
   0  17   4   -0.99    7.41
   0  17   4   12.00    9.69
   0 -17  -4    5.86    8.45
   0 -17  -4   21.35   11.97
   0  17   5   24.67   11.75
   0 -17  -5    7.40    8.03
   0 -17  -5   28.30   12.74
   0  17   6    2.27    7.28
   0 -17  -6    3.15    7.23
   0 -18   0 1418.06  514.47
   0  18   0  689.33  253.89
   0  18   0  648.10  236.04
   0  18   1    8.84    8.75
   0  18   1    3.32    8.69
   0 -18   1   20.19    6.25
   0 -18  -1    4.26    7.79
   0  18   2   62.77   24.96
   0  18   2   49.18   20.42
   0 -18   2   45.32   11.92
   0 -18  -2   71.82   28.04
   0 -18  -2   61.63   24.23
   0  18  -2   60.70   15.85
   0  18   3    0.01    6.36
   0  18   3    0.63    8.46
   0 -18  -3    2.95    6.86
   0 -18  -3    2.15    8.01
   0  18   4  569.06  206.78
   0 -18  -4  119.58   45.46
   0 -18  -4  603.05  219.10
   0  18   5    6.32    5.87
   0  18   5    3.72    6.06
   0 -18  -5    2.47    5.67
   0 -18  -5    3.05    6.15
   0  18   6   82.08   31.18
   0 -18  -7    5.19    7.04
   0 -19   0  139.05   52.66
   0  19   0    0.22    8.00
   0  19   0  203.09   75.98
   0  19   1   27.69   12.95
   0  19   1    6.99    7.71
   0 -19   1    4.43    3.82
   0 -19  -1    1.95    6.63
   0  19  -1    3.60    3.47
   0  19   2    1.21    5.80
   0  19   2    2.72    6.85
   0 -19   2    3.42    4.19
   0 -19  -2    2.87    6.61
   0 -19  -2    2.06    6.58
   0  19  -2    5.94    3.57
   0  19   3   19.08   10.62
   0 -19  -3   16.35    9.17
   0 -19  -3   16.52    9.13
   0  19   4    1.89    5.94
   0  19   4    7.97    8.24
   0 -19  -4    2.26    6.51
   0  19   5   15.63    8.58
   0  19   5    2.08    6.06
   0 -19  -5    5.16    7.19
   0  19   6    1.48    5.55
   0 -19  -6    0.24    6.45
   0  19   7   51.01   20.34
   0 -19  -7   78.44   30.00
   0 -20   0  697.39  253.54
   0  20   0  310.80  115.08
   0  20   0  614.34  223.71
   0  20   1    5.90    7.02
   0  20   1    0.33    6.89
   0 -20   1    4.80    3.50
   0 -20  -1    0.21    6.49
   0 -20  -1    0.99    5.24
   0  20  -1    2.69    2.75
   0  20   2    4.85    7.10
   0 -20   2   22.00    6.55
   0 -20  -2    6.53    6.69
   0 -20  -2   13.20    8.35
   0  20  -2   19.24    5.99
   0  20   3    3.25    5.41
   0  20   3    0.47    7.31
   0 -20  -3    3.41    6.22
   0  20   4  110.23   41.74
   0 -20  -4   62.71   24.88
   0 -20  -4   63.89   25.85
   0  20   5    2.84    5.67
   0 -20  -5    1.51    5.37
   0 -20  -5    8.52    8.12
   0  20   6  143.88   53.02
   0 -20  -6  126.14   47.52
   0 -20  -6  154.93   57.14
   0  20   7    0.10    7.11
   0 -20  -7    3.80    7.03
   0 -21   0   13.43   13.31
   0  21   0    3.35    7.01
   0  21   0   18.04   16.24
   0  21   1   78.13   30.18
   0  21   1   88.08   33.65
   0 -21   1   95.30   24.02
   0 -21  -1   79.95   30.77
   0 -21  -1   68.02   26.35
   0  21  -1  120.96   30.39
   0  21   2    3.46    7.97
   0 -21  -2    3.61    5.81
   0  21  -2   11.89    4.15
   0  21   3   21.31   10.53
   0  21   3   20.00   11.61
   0 -21  -3   42.29   17.61
   0  21   4   -0.11    5.65
   0 -21  -4   18.80   10.01
   0 -21  -4   -2.80    9.22
   0  21   5   70.70   27.45
   0  21   5   90.94   34.55
   0 -21  -5   81.72   31.33
   0  21   6    5.67    6.85
   0 -21  -6    1.04    6.65
   0  21   7   13.79    8.47
   0 -22   0   53.44   24.18
   0  22   0   40.13   17.08
   0  22   0   23.36   18.75
   0  22   1    2.78    5.69
   0  22   1    1.14    7.89
   0 -22   1    2.83    2.73
   0 -22  -1    2.51    6.04
   0  22   2   27.20   12.27
   0  22   2   33.18   14.78
   0 -22  -2   14.77    8.96
   0  22   3   10.80    7.48
   0  22   3    6.03    7.98
   0 -22  -3    5.01    6.49
   0  22   4   67.79   26.38
   0 -22  -4   32.13   15.14
   0  22   5    1.25    4.52
   0  22   5   -2.16    7.47
   0  22   6    2.35    5.03
   0  22   6    1.69    6.86
   0  22   7    0.29    6.11
   0  23   0    1.02    6.51
   0  23   0   68.73   30.18
   0  23   1   15.17    8.75
   0  23   1   -0.26    7.32
   0 -23   1    7.52    3.55
   0 -23  -1   14.42    8.84
   0  23   2    5.49    6.39
   0  23   2    3.96    7.48
   0 -23   2   -0.25    3.34
   0  23  -2    2.79    2.61
   0  23   3    5.10    6.33
   0  23  -3    3.22    4.68
   0  23   4    1.84    5.77
   0  23   4    5.43    9.02
   0  23   5   96.63   36.84
   0  23   6    3.02    5.97
   0  24   0   42.42   18.02
   0  24   0   16.20   18.04
   0  24   1    3.44    6.76
   0  24   1    1.33    9.94
   0  24   2    3.66    6.56
   0  24   2    5.09    7.83
   0  24   3   -1.26    6.29
   0  24   4   72.14   28.35
   0  24   4   41.56   19.62
   1  -1   2  276.35   90.68
  -1   1  -2  196.75   65.03
   1  -2   2  673.89  289.26
   1   2  -2  612.50  262.87
  -1  -2   2  703.96  302.27
  -1   2  -2  521.38  223.83
   1   2  -3  509.17  219.10
   1   2  -3  601.78  196.98
  -1  -2   3  492.58  212.19
  -1  -2   3  592.45  194.10
  -1   2  -3  766.62  250.67
   1   2  -4  761.56  249.29
  -1   2   6  377.96  124.99
   1   3   0    2.68    5.05
   1   3   0    7.33    7.52
  -1  -3   0    8.74    7.28
  -1  -3   0    2.24    4.22
   1  -3   0   12.86    7.74
  -1   3   0    2.48    4.69
  -1  -3  -1 1742.92  631.16
   1   3   1 1731.40  627.13
   1  -3  -1 1870.78  686.33
   1  -3   3 5732.14 2458.28
   1   3  -3 5557.05 2382.25
  -1  -3   3 5667.64 2429.48
  -1   3  -3 5710.25 2447.91
   1  -3   4  259.53  111.99
   1  -3   4  333.96  109.53
   1   3  -4  417.47  136.74
  -1  -3   4  425.31  139.51
   1  -3   5  101.41   45.66
   1  -3   5  253.89   83.47
   1   3  -5  238.00   78.54
  -1  -3   5   88.45   40.30
  -1   3  -5  163.57   71.47
   1   3  -6  155.05   51.98
  -1   3  -6  242.72   80.21
   1   4   0    7.01    7.14
   1   4   0   46.18   12.71
  -1  -4   0    5.82    7.89
  -1  -4   0   32.40    9.41
  -1   4   1  308.15  113.58
   1   4   1  367.82  133.75
   1  -4  -1  316.56  116.69
   1  -4  -1  382.56  138.93
   1  -4   3   62.59   29.76
   1   4  -3   73.31   33.46
  -1  -4   3   57.94   28.15
  -1   4  -3   57.16   26.51
   1  -4   4 1025.13  439.94
  -1  -4   4  962.92  413.32
  -1   4  -4  903.37  387.52
   1  -4   5   13.04   10.03
   1   4  -5   16.37   10.71
   1   4  -5   16.37    8.72
  -1  -4   5   17.84   11.89
  -1  -4   5    7.37    7.48
  -1   4  -5   19.35   12.00
   1  -4   6   28.27   16.99
   1  -4   6   14.09    7.43
   1   4  -6   34.96   19.91
   1   4  -6   24.65   10.60
  -1  -4   6   31.18   19.02
  -1  -4   6   12.10    7.82
  -1   4  -6   36.08   21.01
   1  -4   7   -3.33   10.96
   1  -4   7   24.62   10.09
   1   4  -7    3.91   13.32
  -1  -4   7    4.76   12.36
  -1  -4   7    3.78    6.06
  -1   4  -7   -1.62   12.61
  -1   4  -7   13.62    8.21
   1   4  -8   12.31    9.16
  -1   4  -8   11.63    8.73
   1   5   0    7.72    8.01
  -1  -5   0   15.36   10.69
  -1  -5   0    5.25    5.14
   1  -5   0    2.39   10.42
  -1   5   1 4899.27 1774.01
  -1  -5  -1 5932.58 2176.05
  -1  -5  -1 5567.42 2015.93
   1   5   1 5128.52 1856.96
   1  -5  -1 4959.18 1818.94
   1  -5  -1 5452.22 1974.45
  -1  -5  -2 1318.99  478.18
   1   5   2 1180.75  427.72
   1   5  -4  354.91  152.86
  -1   5  -4  526.22  226.13
   1  -5   5  519.30  223.14
   1   5  -5  427.15  183.62
  -1  -5   5  424.84  182.70
  -1   5  -5  573.33  246.29
   1  -5   6   92.80   41.22
   1   5  -6   54.58   25.32
  -1  -5   6   30.52   16.18
  -1  -5   6   19.04    8.76
  -1   5  -6   49.63   23.64
   1  -5   7   52.71   25.82
   1  -5   7   16.97    8.17
   1   5  -7   22.34   14.54
   1   5  -7   14.86    7.62
  -1  -5   7   11.03   13.01
  -1   5  -7   44.29   24.42
  -1   5  -7   16.68    7.85
   1  -5   8   87.09   29.42
   1   5  -8  300.43  130.29
   1   5  -8   58.67   20.82
  -1  -5   8   59.68   20.84
  -1   5  -8  620.68  267.02
  -1   5  -8   34.70   12.87
   1  -5   9  540.85  232.47
   1  -5   9  367.01  120.61
   1   5  -9 1219.92  523.57
   1   5  -9  395.81  130.17
  -1  -5   9  608.58  261.49
  -1  -5   9  374.96  123.15
  -1   5  -9  563.19  241.92
   1   5 -10  365.40  157.35
   1   5 -10  462.16  151.59
  -1   5 -10  500.76  164.15
   1   6   0   45.73   12.74
  -1  -6   0   15.21   10.15
   1  -6   0    3.83   11.95
  -1   6   0    3.40    8.50
  -1  -6  -1  239.61   88.70
   1  -6  -1  251.82   93.23
   1  -6  -1  102.89   39.12
  -1   6   2   67.06   25.83
  -1   6   2  127.29   46.84
  -1  -6  -2   76.94   29.35
   1  -6  -2  152.74   57.00
   1  -6  -2  147.57   54.34
   1  -6   5   40.98   19.91
  -1  -6   5   30.57   16.31
  -1   6  -5   49.88   24.28
   1  -6   6  405.26  174.40
   1   6  -6  361.02  155.39
  -1  -6   6  351.81  151.49
  -1   6  -6  335.68  144.58
   1  -6   7   28.15   15.00
   1   6  -7   44.80   21.27
  -1  -6   7   38.39   19.08
  -1   6  -7   46.53   21.92
   1  -6   8   19.55   12.79
   1  -6   8   30.50   12.01
   1   6  -8   36.31   13.57
  -1  -6   8   29.33   15.83
  -1  -6   8   57.63   20.31
  -1   6  -8   85.80   29.12
   1  -6   9   13.90   12.23
   1  -6   9   24.92   10.38
   1   6  -9   55.40   26.02
   1   6  -9   24.28   10.06
  -1  -6   9   28.96   16.55
  -1  -6   9   23.72   10.24
  -1   6  -9   14.10   10.93
   1  -6  10   19.88   15.31
   1  -6  10    6.95    6.28
   1   6 -10   11.78    7.81
  -1  -6  10   21.76   16.77
  -1   6 -10    8.50    6.76
   1  -6  11   59.23   29.09
   1  -6  11   85.96   29.16
   1   6 -11  122.57   54.20
   1   6 -11   54.63   19.17
  -1  -6  11  117.16   52.35
  -1  -6  11   54.98   19.55
  -1   6 -11   65.58   30.56
   1   6 -12   48.28   23.14
   1   6 -12   90.42   30.79
  -1   6 -12   83.18   28.29
   1   7   0    4.88    7.51
   1   7   0    6.00    4.59
   1  -7   0    3.38    9.92
  -1   7   0    2.71    8.62
  -1   7   1   94.20   35.46
  -1   7   1  218.30   79.55
   1  -7  -1   47.89   19.66
   1  -7  -1  170.37   62.52
  -1   7   2   71.82   27.38
  -1  -7  -2  164.73   61.31
   1   7   2   57.29   21.73
   1  -7  -2   50.77   19.85
  -1   7  -5  584.27  290.98
   1  -7   6   92.48   40.99
   1   7  -6  177.05   76.90
  -1  -7   6  110.62   48.79
  -1   7  -6   58.39   26.90
   1  -7   7  127.18   55.85
   1   7  -7  133.86   58.53
  -1  -7   7  108.92   47.98
  -1   7  -7  164.15   71.33
   1  -7   8   33.81   16.74
  -1  -7   8   80.95   36.03
   1  -7   9   80.43   27.44
   1   7  -9   38.20   18.41
  -1  -7   9   61.78   21.67
  -1   7  -9   28.22   14.83
   1  -7  10  103.33   46.84
   1   7 -10   11.97    7.15
  -1  -7  10   38.63   22.68
  -1  -7  10   26.94   11.29
  -1   7 -10   11.33    7.09
   1  -7  11  207.01   68.33
   1   7 -11  154.93   68.00
   1   7 -11  134.21   44.65
  -1  -7  11  198.71   65.73
  -1   7 -11  172.68   75.48
  -1   7 -11  172.79   57.11
   1  -7  12   23.29   16.68
   1  -7  12    5.56    5.82
   1   7 -12    0.12   10.34
   1   7 -12   14.79    7.49
  -1  -7  12    2.49   12.89
  -1  -7  12    4.05    5.23
  -1   7 -12   10.42   10.90
  -1   7 -12    8.06    5.95
   1  -7  13  132.82   44.47
   1   7 -13  161.73   70.60
   1   7 -13  200.56   66.30
  -1  -7  13  110.95   49.71
  -1  -7  13   99.69   33.91
  -1   7 -13  204.24   88.61
  -1   7 -13  173.60   57.45
   1   7 -14    1.43    7.92
   1   7 -14   -0.05    4.70
  -1   7 -14    0.99    8.65
  -1   7 -14    3.29    5.02
   1   8   0   82.09   31.58
  -1  -8   0   44.68   18.63
   1  -8   0   26.83   15.24
  -1   8   0   11.95   11.33
  -1   8   1  273.59  101.04
  -1   8   1  272.44   99.16
  -1  -8  -1  340.18  123.61
   1   8   1  297.09  109.62
   1   8   1  317.83  115.54
  -1  -8   1  397.31   98.57
   1  -8  -1  271.86  100.52
  -1   8   2 1957.18  718.36
  -1   8   2  277.85  101.08
  -1  -8  -2  191.34   70.03
   1   8   2  196.87   71.87
   1  -8  -2 1540.17  565.49
   1  -8  -2  328.54  119.34
  -1  -8  -3   85.05   31.96
   1   8   3   81.18   30.35
   1  -8   6 2302.76  987.69
   1   8  -6 3000.85 1286.74
  -1  -8   6 2290.09  982.16
  -1   8  -6 2339.63 1165.78
  -1   8  -6 2743.97 1176.15
   1  -8   7  205.28   88.97
   1   8  -7  198.94   86.33
  -1  -8   7  232.12  100.52
  -1   8  -7  293.29  126.60
   1  -8   8 1388.11  595.45
   1   8  -8 1593.16  683.22
  -1  -8   8 1619.65  694.63
  -1   8  -8 1149.20  493.04
   1  -8   9   20.03   12.53
   1   8  -9   91.56   40.61
  -1  -8   9   24.50   13.90
   1  -8  10  269.09  116.23
   1  -8  10  106.53   35.84
   1   8 -10  269.67  116.46
  -1  -8  10  284.42  122.80
  -1  -8  10  116.46   39.26
  -1   8 -10  256.54  110.81
   1  -8  11   11.26   13.69
   1  -8  11    4.21    5.89
   1   8 -11    6.09    5.74
  -1  -8  11   26.30   19.65
  -1   8 -11   -9.84    9.58
  -1   8 -11    4.70    5.31
   1  -8  12  238.80  103.73
   1  -8  12  407.33  133.75
   1   8 -12  298.24  128.91
   1   8 -12  393.74  129.37
  -1  -8  12  354.91  153.44
  -1  -8  12  404.57  132.94
  -1   8 -12  268.63  116.23
   1  -8  13   14.25   13.31
   1  -8  13    3.63    4.88
   1   8 -13    6.68    9.10
   1   8 -13    3.48    5.19
  -1  -8  13   10.73   12.83
  -1  -8  13    1.65    4.67
  -1   8 -13   19.85   12.96
  -1   8 -13    1.64    4.48
   1  -8  14   15.33   14.69
   1  -8  14    4.58    5.10
   1   8 -14   51.69   24.05
   1   8 -14    3.48    4.87
  -1  -8  14   73.51   34.85
  -1  -8  14    4.42    5.12
  -1   8 -14   37.40   18.68
  -1   8 -14   13.81    6.81
   1   8 -15   29.28   15.39
   1   8 -15   40.49   14.55
  -1   8 -15   27.74   15.54
  -1   8 -15   36.21   13.07
   1   8 -16   37.01   13.80
  -1   8 -16   39.12   14.36
   1   9   0    3.43    4.76
   1   9   0    1.29    9.19
  -1  -9   0    3.66    4.74
  -1  -9   0    8.34    8.30
   1  -9   0    0.00   12.16
  -1   9   0   -4.32    9.77
  -1   9   1  307.11  113.41
   1   9  -1  312.30   77.61
  -1  -9  -1  342.14  126.26
  -1  -9  -1  367.82  133.63
   1   9   1  339.72  125.22
   1   9   1  376.92  136.86
  -1  -9   1  246.29   61.20
   1  -9  -1  318.17  117.39
   1  -9  -1  195.60   71.61
  -1   9  -1  246.64   61.23
  -1   9   2   16.57    9.53
  -1   9   2    6.12    6.76
  -1  -9  -2   11.83    8.97
   1   9   2    6.14    8.09
   1  -9  -2   40.59   17.12
   1  -9  -2    4.82    7.12
  -1   9   3   91.96   34.47
  -1  -9  -3   54.20   20.86
   1  -9  -3   59.23   23.52
   1  -9  -3   87.46   32.80
   1  -9   7    6.12    9.75
   1   9  -7   -2.92   10.46
  -1  -9   7   -0.07    9.28
  -1   9  -7  256.08  127.52
  -1   9  -7   -1.63    9.93
   1  -9   8   53.36   24.89
   1   9  -8   15.80   10.76
  -1  -9   8   16.25   11.51
  -1   9  -8   81.47   36.21
   1  -9   9  110.32   49.51
   1   9  -9   91.33   40.93
  -1  -9   9   99.91   44.89
  -1   9  -9   82.71   37.27
   1  -9  10   26.54   15.04
   1   9 -10   12.80   10.68
  -1  -9  10   10.95    9.91
  -1   9 -10   14.91   10.87
   1  -9  11   26.99   15.14
   1   9 -11   21.98   12.81
  -1  -9  11   28.04   15.79
  -1  -9  11   12.86    7.51
  -1   9 -11   22.43   13.16
   1  -9  12   10.84    6.98
   1   9 -12    5.81    8.34
   1   9 -12    9.04    6.08
  -1  -9  12   -4.38   11.15
  -1  -9  12   10.82    7.10
  -1   9 -12    7.86    8.59
  -1   9 -12   10.03    5.65
   1  -9  13   24.64   16.22
   1  -9  13   17.61    8.14
   1   9 -13    8.96    5.42
  -1  -9  13   16.24   15.07
  -1  -9  13   12.67    7.00
  -1   9 -13    7.37    5.29
   1  -9  14    2.19    5.07
   1   9 -14    4.49    8.20
   1   9 -14    3.10    5.02
  -1  -9  14    6.20    5.88
  -1   9 -14    3.78    8.44
  -1   9 -14    0.57    4.26
   1   9 -15    5.57    5.06
  -1   9 -15   -0.45    4.41
  -1   9 -16    2.86    4.65
   1  10   0   74.29   29.01
   1  10   0   19.89    6.71
   1  10   0  148.84   55.88
  -1 -10   0   44.06   18.41
   1 -10   0   58.59   25.24
  -1  10   0   33.19   16.65
  -1  10   1  637.15  234.31
  -1  10   1  689.68  250.21
   1  10  -1  600.05  148.72
  -1 -10  -1  757.29  278.43
   1  10   1  974.21  353.20
   1  10   1  617.80  227.28
   1 -10  -1  649.71  238.92
   1 -10  -1  584.39  212.08
  -1  10  -1  606.16  150.34
  -1  10   2   58.69   22.69
  -1 -10  -2  100.57   37.92
   1  10   2   28.17   12.88
   1  10   2  148.15   54.82
   1 -10  -2   50.34   20.24
  -1  10   3  210.92   78.10
  -1 -10  -3  161.73   59.27
   1  10   3  162.31   59.48
   1 -10  -3  129.83   48.70
   1 -10  -3  138.93   51.01
  -1 -10  -4   19.56    9.80
   1  10  -8  962.46  413.32
  -1  10  -8  670.67  334.07
  -1  10  -8  714.79  307.11
   1 -10   9  102.48   45.74
   1  10  -9   76.77   35.03
  -1 -10   9   74.64   34.18
  -1  10  -9  152.63   66.76
   1 -10  10  574.25  247.21
   1  10 -10  437.52  188.34
  -1 -10  10  531.75  228.90
  -1  10 -10  390.51  168.18
   1 -10  11   19.97   12.76
   1  10 -11   49.82   23.66
  -1  10 -11   13.94   10.93
   1 -10  12   56.39   26.70
   1  10 -12   37.77   18.62
  -1 -10  12   58.42   27.32
  -1 -10  12    7.83    5.75
  -1  10 -12   62.13   28.26
   1 -10  13    6.29    8.57
   1 -10  13   11.82    6.75
   1  10 -13    4.74    7.19
   1  10 -13   11.53    6.07
  -1 -10  13    5.47   10.71
  -1 -10  13   11.19    6.74
  -1  10 -13    7.92    8.66
   1  10 -14    1.25    5.52
   1  10 -14    1.83    4.83
  -1 -10  14    5.59    6.48
  -1  10 -14   10.13    7.44
  -1  10 -14    4.51    5.12
   1  10 -15    0.19    8.78
  -1  10 -15   -5.60    9.62
  -1  10 -15    1.24    4.69
   1  11   0    7.10    4.34
   1  11   0    7.78    7.14
   1  11   0    1.14    9.55
  -1 -11   0    3.15    7.06
   1 -11   0   15.97   13.35
  -1  11   0   10.32   12.06
   1 -11   1   30.92    8.04
  -1  11   1   45.70   19.05
  -1  11   1   10.37    7.09
   1  11  -1   21.13    6.31
  -1 -11  -1   30.18   13.37
   1  11   1   30.37   13.50
  -1 -11   1   22.07    6.52
   1 -11  -1    8.46    7.19
  -1  11  -1   16.99    4.68
  -1  11   2   82.11   31.32
  -1 -11  -2   40.51   17.05
  -1 -11  -2   35.47   15.27
   1  11   2   37.38   15.66
   1  11   2   34.07   15.02
   1 -11  -2   47.88   19.27
   1 -11  -2   53.53   21.54
  -1  11   3   63.31   24.73
  -1  11   3   42.92   17.28
   1  11   3   93.79   34.85
   1 -11  -3   40.20   16.02
  -1 -11  -4   76.56   28.89
   1  11   4   60.62   23.40
   1 -11  -4   58.87   22.67
   1 -11   8   20.53   10.36
   1 -11   8   42.21   22.45
  -1 -11   8   75.61   35.28
   1 -11   9   66.87   31.09
  -1 -11   9  138.58   60.95
  -1  11  -9   80.38   40.08
   1  11 -10    1.92    9.51
  -1 -11  10   12.12   13.89
  -1  11 -10   10.37   11.18
   1  11 -11   45.81   21.62
  -1 -11  11   55.72   27.35
  -1  11 -11   37.09   18.43
   1  11 -12   30.92   15.61
  -1  11 -12   21.05   12.21
   1  11 -13    5.36    6.95
  -1  11 -13    7.58    7.72
   1  11 -14    3.97    6.67
  -1 -11  14    3.99    5.48
  -1  11 -14    1.97    6.94
   1  11 -15    0.85    4.17
  -1  11 -15    1.62    3.98
   1  12   0   12.66    8.31
   1  12   0   14.05   10.78
  -1 -12   0   16.01    8.91
   1 -12   0   10.28   11.70
  -1  12   0   16.13   12.45
   1 -12   1   44.35   11.24
  -1  12   1   51.02   20.52
   1  12  -1   59.66   15.22
   1  12   1   55.28   21.83
  -1 -12   1   41.72   11.17
  -1  12  -1   44.85   11.36
  -1  12   2  742.90  273.13
  -1  12   2  413.78  150.57
  -1 -12  -2  767.32  282.11
  -1 -12  -2  913.39  331.08
   1  12   2  532.67  196.06
   1  12   2  879.17  318.75
   1 -12  -2  788.40  289.83
   1 -12  -2  559.85  203.21
  -1  12   3  337.64  122.80
  -1 -12  -3  204.59   75.95
  -1 -12  -3  263.45   96.05
   1  12   3  216.92   80.41
   1  12   3  226.13   82.66
   1 -12  -3  261.26   96.60
  -1  12   4  645.91  234.43
  -1 -12  -4  620.45  225.09
   1  12   4  654.66  237.54
   1 -12  -4  682.42  247.56
   1 -12   9    4.89    2.84
   1 -12   9   -5.96   12.91
   1  12  -9    4.56   11.38
  -1 -12   9   10.18   14.08
  -1  12  -9    9.19   11.76
   1 -12  10  114.82   50.88
  -1 -12  10  112.06   49.86
   1  12 -11    8.50    9.28
  -1  12 -11   -2.41    8.46
   1  12 -12  140.89   61.48
  -1  12 -12  154.59   67.44
   1  12 -13    3.95    6.87
  -1  12 -13    6.32    7.54
   1  13   0    4.73    7.02
   1  13   0    3.30    8.87
  -1 -13   0    6.96    6.96
  -1 -13   0   23.30    7.33
   1 -13   0    0.79   10.21
  -1  13   0    2.91   10.25
   1 -13   1  467.23  115.89
  -1  13   1  526.91  193.99
  -1  13   1  542.69  196.98
   1  13  -1  478.87  118.77
  -1 -13  -1  447.42  164.73
  -1 -13  -1  356.18  129.60
  -1 -13   1  425.54  105.57
   1 -13  -1  591.18  217.49
  -1  13  -1  547.65  135.82
  -1  13   2    6.90    7.39
  -1  13   2   13.44    9.37
  -1 -13  -2   14.11    8.19
   1  13   2    9.66    7.71
   1  13   2   16.66    8.83
   1 -13  -2    3.97    6.63
   1 -13  -2   17.37    9.79
  -1  13   3 3045.78 1117.63
  -1 -13  -3 5754.03 2110.39
   1  13   3 5408.44 1983.67
   1 -13  -3 3643.65 1337.43
  -1  13   4   14.09    8.21
  -1  13   4    7.90    6.96
   1  13   4   25.63   11.65
   1  13   4   57.06   22.16
   1 -13  -4   26.16   12.20
   1 -13  -4   15.63    8.80
  -1 -13  -5  395.35  143.88
   1  13   5  358.14  130.40
   1 -13  10   24.56   12.33
   1 -13  10   55.58   26.96
   1  13 -10   58.47   27.79
  -1 -13  10   40.98   21.48
  -1  13 -10   54.75   26.44
   1 -13  11  274.05  118.65
   1  13 -11  576.32  247.91
  -1 -13  11  432.33  186.39
  -1  13 -11  584.62  251.48
   1  13 -13   34.75   17.03
  -1  13 -13   29.34   15.11
   1  14   0    3.48    6.32
   1  14   0    2.21   13.01
  -1 -14   0    8.65    7.19
  -1 -14   0   10.87    5.23
   1 -14   0   -0.85   10.86
  -1  14   0   -1.59   12.90
   1 -14   1    4.23    2.37
   1  14  -1    1.20    2.92
  -1 -14  -1    1.81    6.29
  -1 -14  -1    5.36    7.17
   1  14   1    3.25    6.96
  -1 -14   1    7.31    3.75
   1 -14  -1    3.59    6.76
  -1  14   2    1.62    6.36
  -1  14   2   21.52   10.97
  -1 -14  -2   16.30    8.78
   1  14   2   10.95    7.70
   1 -14  -2   31.08   13.57
  -1  14   3   22.91   11.67
  -1  14   3   30.46   14.26
   1  14   3   34.62   15.21
   1 -14  -3   25.75   12.27
   1 -14  -3   41.23   17.10
  -1  14   4   26.24   12.22
  -1  14   4    5.61    6.81
  -1 -14  -4   10.23    6.99
  -1 -14  -4   27.73   12.30
   1  14   4   31.43   13.41
   1 -14  -4   26.06   12.93
   1 -14  -4    9.60    8.08
  -1  14   5  108.17   41.06
  -1  14   5   26.91   12.30
  -1 -14  -5   14.68    9.72
   1  14   5   15.16    9.45
   1 -14  -5   27.62   13.62
   1 -14  10   29.76   16.90
  -1 -14  10    4.40   10.62
   1 -14  11    7.05    3.73
   1  14 -11    4.74   10.47
  -1  14 -11    6.99   11.24
   1  14 -12    9.75    8.69
  -1  14 -12   21.06   12.04
   1  14 -13    3.19    8.18
  -1  14 -13    3.18    8.68
   1  15   0    3.53    7.00
   1  15   0   13.97   15.89
  -1 -15   0    5.25    4.85
  -1 -15   0    3.07    6.87
   1 -15   0   16.78   14.98
  -1  15   0    4.09   15.68
   1  15  -1   24.53    7.23
  -1 -15  -1   28.81   13.20
  -1 -15  -1   14.69    8.89
   1  15   1   14.51    9.59
   1  15   1   14.61    8.66
  -1 -15   1   26.08    7.46
   1 -15  -1   42.29   17.62
   1 -15  -1    9.84    8.07
  -1  15  -1   34.95    9.15
  -1  15   2    8.40    7.40
  -1  15   2    7.29    7.40
   1  15  -2    5.05    4.65
  -1 -15  -2    5.36    7.15
  -1 -15  -2    0.55    7.42
   1 -15  -2    3.58    6.27
  -1  15   3  238.11   88.31
  -1  15   3  161.96   59.64
  -1 -15  -3  209.31   77.87
  -1 -15  -3  106.25   40.16
  -1  15   4   38.97   16.77
  -1  15   4   74.55   28.32
  -1 -15  -4   47.31   19.27
  -1 -15  -4   49.89   20.27
   1  15   4   57.97   22.36
   1 -15  -4   63.57   24.49
  -1  15   5  156.20   57.84
  -1 -15  -5  271.40   99.09
   1  15   5  296.40  108.08
   1 -15  -5  176.59   65.02
  -1 -15  -6   -1.32    7.32
   1 -15  12    4.63    2.64
   1  15 -12   61.02   28.56
  -1  15 -12    9.66   10.76
   1  16   0    2.52    7.39
   1  16   0   22.75   17.57
  -1 -16   0    4.14    7.59
  -1 -16   0   44.29   12.35
   1 -16   0   38.29   21.03
  -1  16   0   62.95   28.57
   1 -16   1  178.55   44.45
   1  16  -1  216.92   54.00
  -1 -16  -1  160.00   59.79
  -1 -16  -1  177.98   65.26
   1  16   1  167.84   62.62
   1  16   1  126.72   47.14
  -1 -16   1  239.27   59.49
   1 -16  -1  334.65  123.61
   1 -16  -1  135.13   50.14
  -1 -16  -2  806.49  296.51
  -1 -16  -2  880.21  319.32
   1  16   2  949.33  348.93
   1  16   2  583.81  212.19
   1 -16  -2  942.54  346.40
  -1  16   3   13.27    9.10
  -1 -16  -3   14.69    9.80
  -1 -16  -3    9.58    9.31
   1  16   3   17.61   10.24
   1  16   3   11.30   10.31
   1 -16  -3    7.55    8.00
   1 -16  -3   41.78   18.56
  -1  16   4  172.91   64.62
  -1  16   4  267.14   97.50
  -1 -16  -4  190.76   71.17
  -1 -16  -4  273.93  100.17
   1  16   4  212.42   78.98
   1  16   4  217.49   79.81
   1 -16  -4  130.87   49.44
  -1  16   5    5.91    7.60
  -1 -16  -5    6.94    7.79
   1  16   5   19.47   10.07
   1  16   5    7.77    6.94
   1 -16  -5   14.88    9.62
   1 -16  -5    7.14    8.17
  -1 -16  -6   50.55   20.18
   1  16   6   40.08   16.70
   1 -16  -6   28.60   13.31
   1 -16  -6   94.94   35.80
   1  17   0   -0.20    7.93
   1  17   0    1.97   15.25
  -1 -17   0    4.35    7.76
  -1 -17   0    5.33    5.61
   1 -17   0   -0.17   13.95
  -1  17   0    3.37   15.98
   1 -17   1  169.57   42.27
   1  17  -1  149.53   37.50
  -1 -17  -1  220.83   82.16
  -1 -17  -1  178.67   65.65
   1  17   1  258.50   95.89
   1  17   1  143.42   53.21
  -1 -17   1  141.93   35.54
   1 -17  -1  117.50   43.95
   1 -17  -1  169.45   63.45
  -1  17  -1  153.21   38.28
   1  17  -2    3.12    4.11
  -1 -17  -2   37.54   16.61
  -1 -17  -2    2.09    8.27
   1  17   2   54.56   22.21
   1  17   2    2.18    9.12
  -1 -17   2    4.70    3.96
   1 -17  -2    4.39    7.48
   1 -17  -2   10.01    9.95
  -1  17  -2    8.03    3.98
  -1 -17  -3  129.71   49.20
  -1 -17  -3  159.20   59.05
   1  17   3  252.97   93.91
   1  17   3   79.78   31.31
   1 -17  -3  127.64   48.38
   1 -17  -3  110.36   41.97
  -1  17   4   14.25    9.10
  -1 -17  -4   14.66   10.93
  -1 -17  -4   16.50   10.07
   1  17   4   16.02   10.43
   1  17   4    9.62    9.53
   1 -17  -4   10.21    9.11
   1 -17  -4   11.02    9.67
  -1  17   5   17.90   10.21
  -1  17   5   40.34   16.77
  -1 -17  -5    1.75    6.32
   1  17   5    7.96    6.96
   1 -17  -5   15.37    9.91
  -1  17   6   26.05   11.80
  -1  17   6   19.04    9.98
  -1 -17  -6   15.91    8.86
   1  17   6   14.20    8.64
   1 -17  -6   28.42   12.95
   1  18   0   27.55   13.74
   1  18   0   12.53   16.31
  -1 -18   0   64.27   25.65
  -1 -18   0    8.06    6.24
   1 -18   0   15.29   16.18
  -1  18   0   22.72   19.61
   1 -18   1   58.24   15.04
  -1  18   1   27.75   13.93
   1  18  -1   62.03   16.18
  -1 -18  -1   48.38   20.12
  -1 -18  -1   53.64   21.38
   1  18   1   45.97   19.10
   1  18   1   56.43   23.03
   1 -18  -1   27.44   13.39
   1 -18  -1   46.37   19.30
  -1  18  -1   69.65   17.91
  -1  18   2  141.69   53.11
  -1 -18  -2  156.78   57.82
  -1 -18  -2   92.06   35.46
   1  18   2  133.40   50.28
   1  18   2  142.62   52.89
  -1 -18   2  118.08   29.86
   1 -18  -2  108.48   41.18
   1 -18  -2  124.53   46.52
  -1  18  -2   82.91   21.01
  -1  18   3   13.72    9.19
  -1  18   3   18.86   11.93
  -1 -18  -3    9.59    8.71
  -1 -18  -3    9.23    8.01
   1  18   3    6.32    8.44
   1  18   3   13.29    9.85
   1 -18  -3    8.49    7.86
   1 -18  -3   25.34   12.80
  -1  18   4  343.75  127.18
  -1  18   4  260.45   95.35
   1  18   4  185.46   69.22
   1  18   4  532.32  193.53
   1 -18  -4  293.52  108.84
   1 -18  -4  312.76  114.10
  -1  18   5   20.93   10.04
  -1  18   5    5.29    6.98
  -1 -18  -5    3.89    5.68
   1  18   5   21.55   10.51
   1 -18  -5   15.62    8.76
   1 -18  -5    7.21    7.39
  -1  18   6  282.23  103.19
  -1 -18  -6  410.21  149.41
   1  18   6  345.25  125.80
   1 -18  -6  339.95  123.95
  -1 -18  -7   23.48   11.38
   1  19   0    1.88    6.66
   1  19   0    0.95   12.20
  -1 -19   0    3.97    5.39
  -1 -19   0    1.25    6.40
   1 -19   0   -2.59   12.06
  -1  19   0    1.99   14.13
  -1  19   1   26.50   12.43
  -1  19   1   14.32    9.33
   1  19  -1   15.86    5.28
  -1 -19  -1   21.60   10.94
  -1 -19  -1   16.60   10.92
   1  19   1   17.83    9.61
   1  19   1   11.28    8.31
  -1 -19   1   19.06    6.12
   1 -19  -1   18.40   10.15
   1 -19  -1   19.17   10.38
   1 -19   2    3.00    3.36
  -1  19   2    3.22    6.66
  -1  19   2    1.62    6.96
   1  19  -2    1.90    3.39
  -1 -19  -2    2.24    5.81
   1  19   2    1.02    6.34
   1  19   2   -0.09    6.43
  -1 -19   2   -0.71    4.01
   1 -19  -2    1.87    6.53
   1 -19  -2   -2.49    6.90
  -1  19  -2   -0.01    2.99
  -1  19   3   26.32   12.29
  -1  19   3   19.45   11.03
   1  19   3   23.23   11.02
   1  19   3   42.28   17.49
   1 -19  -3   24.67   11.87
   1 -19  -3   20.86   10.58
  -1  19   4   23.25   11.43
  -1  19   4    6.61    8.45
  -1 -19  -4    9.38    7.39
   1  19   4    1.68    5.01
   1 -19  -4   22.77   11.35
  -1  19   5    3.23    5.75
  -1  19   5    4.35    6.39
  -1 -19  -5    1.80    5.61
  -1 -19  -5    6.25    7.51
   1  19   5    4.78    6.41
   1 -19  -5    6.62    7.59
  -1  19   6    8.47    7.83
  -1 -19  -6    4.19    7.04
   1 -19  -6    9.61    6.88
   1 -19  -6    8.13    7.62
  -1 -19  -7   10.10    7.50
   1  19   7    2.63    6.21
   1 -19  -7   -1.00    6.56
   1  20   0    3.39    6.24
   1  20   0    6.11   12.29
  -1 -20   0    3.85    5.56
  -1 -20   0    3.30    4.60
   1 -20   0   -2.27   12.48
  -1  20   0    9.41   14.69
  -1  20   1    9.72    7.21
  -1  20   1    7.40    7.95
   1  20  -1   18.15    5.59
  -1 -20  -1   25.09   11.84
   1  20   1   23.00   11.53
   1  20   1   34.36   14.83
  -1 -20   1   18.22    5.71
   1 -20  -1   11.87    8.25
   1 -20  -1   10.03    7.75
   1 -20   2    6.12    3.41
  -1  20   2    5.95    6.32
  -1  20   2    2.15    7.37
   1  20   2    3.42    5.96
   1  20   2    5.54    7.19
  -1 -20   2   23.03    7.06
   1 -20  -2    4.82    6.78
   1 -20  -2    4.63    6.26
  -1  20  -2    6.30    2.97
  -1  20   3    2.35    5.81
  -1  20   3    5.93    8.46
  -1 -20  -3    2.05    5.82
   1  20   3    3.61    5.81
   1  20   3    2.75    7.13
   1 -20  -3    2.00    5.97
   1 -20  -3    6.26    7.35
  -1  20   4   57.81   22.82
  -1  20   4  199.29   73.16
  -1 -20  -4   36.72   15.53
  -1 -20  -4  146.42   54.64
  -1  20   5    9.62    7.18
  -1  20   5    8.44    6.80
  -1 -20  -5   17.22    9.36
  -1 -20  -5    7.69    7.98
   1  20   5   15.00    8.74
   1 -20  -5    6.42    6.41
   1 -20  -5    6.58    7.17
  -1 -20  -6    1.92    6.22
   1  20   6    2.24    4.51
   1  20   6    7.90    7.19
   1 -20  -6    7.45    6.29
   1 -20  -6    9.84    7.89
  -1  20   7    2.69    6.58
  -1 -20  -7    5.50    6.84
   1  20   7    4.43    6.49
   1 -20  -7    6.71    7.27
   1  21   0    0.35    5.70
   1  21   0    4.44   14.11
  -1 -21   0    2.10    5.74
  -1 -21   0    5.14    4.48
   1 -21   0   -2.10   12.48
  -1  21   0    2.89    6.62
  -1  21   0    7.69   14.78
   1 -21   1   24.42    6.92
  -1  21   1   54.07   21.51
  -1  21   1   15.56   10.34
  -1 -21  -1   41.64   17.07
   1  21   1   25.48   12.29
   1  21   1   23.21   10.84
  -1 -21   1   31.30    8.60
   1 -21  -1   85.11   32.66
   1 -21  -1   15.86    9.44
  -1  21   2   -0.40    5.63
  -1  21   2   10.59    8.37
   1  21  -2    6.30    3.28
  -1 -21  -2    2.86    5.55
   1  21   2   19.39   10.51
   1  21   2    5.38    6.21
   1 -21  -2    6.94    6.67
   1 -21  -2   10.41    7.70
  -1  21  -2   10.99    3.81
  -1  21   3  113.55   43.00
  -1  21   3  154.24   57.21
  -1 -21  -3  155.51   58.30
   1  21   3  250.56   92.00
   1 -21  -3  100.49   38.18
  -1  21   4    6.57    6.41
  -1 -21  -4    3.45    6.82
  -1 -21  -4    4.36    8.28
   1  21   4   23.30   11.21
   1 -21  -4   17.00    8.93
   1 -21  -4   11.72    9.90
  -1 -21  -5   15.19    8.90
  -1 -21  -5   16.31   10.15
   1  21   5   15.82    8.88
   1  21   5   33.08   14.96
   1 -21  -5    6.47    6.24
   1 -21  -5   37.23   16.24
  -1  21   6    2.34    5.29
  -1  21   6    3.64    6.46
  -1 -21  -6    2.01    6.08
   1  21   6   11.53    6.79
   1  21   6    6.66    6.77
   1 -21  -6   15.06    8.29
   1 -21  -6    2.77    6.85
  -1  21   7   46.32   18.70
  -1  21   7   20.23   10.94
   1  21   7   23.93   11.22
   1  22   0   -0.76    5.42
   1  22   0    8.19   15.45
  -1 -22   0   -0.63    4.56
  -1 -22   0    0.64    5.70
   1 -22   0    1.24   13.43
  -1  22   0    2.02    5.99
  -1  22   0    2.14   15.90
   1 -22   1    2.81    2.84
  -1  22   1   -0.23    5.89
  -1  22   1   -0.05    8.10
   1  22   1    0.51    7.67
   1  22   1    5.69    6.41
  -1 -22   1    3.22    3.01
   1 -22  -1   -0.97    5.94
   1 -22  -1   -2.84    7.11
   1 -22   2    9.44    3.88
  -1  22   2    5.14    7.96
  -1  22   2   10.04    7.23
   1  22  -2    7.51    3.61
  -1 -22  -2   19.58    9.94
   1  22   2   11.29    7.54
   1  22   2   21.89   11.22
  -1 -22   2    6.08    4.07
   1 -22  -2    8.66    7.42
  -1  22  -2   13.55    4.06
  -1  22   3   10.49    8.07
  -1  22   3   10.13    9.43
   1  22  -3    4.18    4.70
  -1 -22  -3   12.13    7.84
  -1 -22  -3    6.28    8.68
   1  22   3   18.80   10.04
  -1  22   4   12.98    8.03
  -1 -22  -4   28.57   13.35
  -1 -22  -4   22.72   12.12
   1  22   4   21.65   10.43
   1  22   4   18.53   11.05
   1 -22  -4   28.79   12.88
   1 -22  -4   36.71   16.77
  -1  22   5    2.96    5.26
  -1  22   5    5.28    7.51
   1  22   5    1.54    5.18
   1  22   5    7.42    7.51
  -1  22   6   20.19    9.77
  -1  22   6   13.22    8.61
   1  22   6   12.10    6.99
   1  22   6   16.46    9.57
  -1  22   7    4.39    4.68
  -1  22   7    2.10    6.48
   1  23   0    1.55    5.20
   1  23   0    2.83   13.86
  -1 -23   0    1.13    6.23
  -1  23   0   -0.31    5.62
  -1  23   0   -2.17   14.92
   1 -23   1   12.40    4.22
  -1  23   1   11.51    8.05
  -1  23   1    0.10    7.69
   1  23  -1    2.56    2.82
   1  23   1    3.92    6.35
   1  23   1    4.86    7.48
  -1 -23   1    9.57    4.38
   1 -23  -1    1.66    7.19
   1 -23   2    2.41    3.15
  -1  23   2    1.28    6.13
  -1  23   2    4.62    7.49
   1  23  -2    0.81    3.48
   1  23   2   -0.66    5.29
   1  23   2    3.91    7.46
  -1 -23   2    1.19    3.66
  -1  23  -2    3.58    2.67
  -1  23   3  238.57   88.76
  -1  23   3  221.29   81.35
   1  23  -3   57.38   15.38
   1  23   3  233.97   86.92
   1  23   3  433.37  157.93
  -1  23   4    5.61   10.04
   1  23   4    2.64    5.61
   1  23   4    3.20    9.33
  -1  23   5   30.61   13.80
  -1  23   5   96.49   36.83
   1  23   5   71.97   27.89
   1  23   5  225.09   82.62
  -1  23   6    3.74    6.23
   1  24   0   -2.60    6.03
   1  24   0   -1.21   15.53
  -1  24   0    2.40    5.79
  -1  24   0    6.14   16.88
  -1  24   1    2.33    6.57
  -1  24   1   -4.85    9.51
   1  24   1    2.25    6.65
   1  24   1    1.40    8.90
  -1  24   2   17.74    9.93
  -1  24   2   54.94   22.36
  -1  24   3    1.90    6.72
   1  24   3   -0.17    5.77
   1  24   4   66.21   26.18
  -2   0   5  950.83  473.57
   2   0  -5 1092.75  544.19
   2   1   0  330.15   82.09
   2  -1   0  335.57  121.65
   2  -1   1  178.55   76.92
   2   1  -1   84.28   28.40
  -2  -1   1  221.29   95.26
  -2  -1   1   99.24   33.49
  -2  -1   1  142.62   48.84
  -2   1  -1  259.42  111.44
   2   1  -2  225.44   97.76
  -2   1   4   91.82   45.84
   2  -1  -4  103.43   51.58
   2  -1  -5  130.29   43.59
   2   1  -6   76.97   38.39
  -2  -1   6   34.07   17.12
  -2  -2   0  678.16  168.18
  -2  -2  -1   12.29   13.28
  -2  -2  -1   59.07   22.77
   2   2   1   78.76   29.29
   2  -2  -1   39.58   15.39
  -2   2  -1   11.95    9.13
   2  -2   2  172.56   74.84
  -2   2   2   26.17   13.33
   2   2  -2  156.89   68.08
  -2  -2   2  155.16   67.65
   2  -2   3   -3.02   13.75
   2  -2   3    3.05    5.56
  -2   2   3  151.14   75.37
   2   2  -3   -4.63   15.16
  -2  -2   3   17.15   12.30
  -2  -2   3    0.06   17.69
   2  -2   4   22.62    9.08
   2   2  -4   88.24   40.70
  -2   2  -4   46.22   17.07
   2   2  -7   76.11   37.96
   2  -2  -7   69.52   23.65
   2   3   0 1098.74  403.42
   2   3   0  769.39  190.76
  -2  -3   0  807.75  200.33
  -2   3   1   12.72    6.98
  -2  -3  -1    5.55   12.14
  -2  -3  -1   37.35   15.54
   2   3   1    7.46   10.97
   2   3   1   32.80   14.02
   2  -3  -1   10.28    6.98
   2  -3  -1   44.49   22.35
  -2   3  -1   13.31    8.98
  -2   3   2  624.71  311.14
   2  -3   3  386.83  166.57
   2   3  -3  345.82  148.95
  -2  -3   3  332.69  143.42
   2  -3   4  295.94  127.75
   2   3  -4  361.94  155.86
   2   3  -4  451.23  147.80
   2  -3   5  334.07  144.00
   2  -3   5  363.67  119.11
  -2  -3   5  318.52  137.43
  -2   3  -5  337.53  145.38
  -2   3  -5  307.34  100.78
   2   3  -6   35.46   15.11
   2   3  -8  231.66  115.43
   2  -3  -9   51.23   17.61
  -2   3  10   43.27   15.16
   2   4   0  488.77  179.82
  -2  -4   0  497.41  183.04
   2  -4   0  324.51  117.96
  -2   4   1  449.27  223.83
  -2   4   1    7.70    7.15
  -2  -4  -1   20.70   12.03
   2   4   1   14.85   10.56
   2  -4  -1    8.98    8.24
   2  -4  -1   25.11   11.88
   2  -4  -1  507.32  252.73
   2  -4   3   11.32   12.53
   2   4  -3   13.70   12.64
  -2  -4   3    8.28   12.75
  -2   4  -3    9.43    9.95
   2  -4   4  448.12  192.72
   2   4  -4  388.67  167.26
  -2  -4   4  428.30  184.20
  -2   4  -4  436.71  187.54
   2  -4   5   40.34   19.15
   2   4  -5   45.91   16.84
  -2  -4   5   24.41   14.20
  -2  -4   5   44.85   16.63
  -2   4  -5   41.74   19.97
   2  -4   6    9.19   12.31
   2   4  -6   10.52   14.63
   2   4  -6   10.30    7.63
   2   4   6   23.63    9.65
  -2  -4   6    7.78   12.75
  -2  -4   6    4.58    7.43
  -2   4  -6   12.78   13.74
   2  -4   7   26.47   16.36
   2   4  -7   32.74   19.15
  -2  -4   7   22.79   15.38
  -2  -4   7   26.17   10.83
  -2   4  -7   25.98   16.89
   2   4  -8   27.37   18.47
   2   4  -8   35.92   14.84
  -2   4  -8   19.69    9.97
   2   4  -9   61.54   30.68
   2  -4 -11   24.03    9.21
   2   5   0 1934.14  709.61
   2   5   0 1688.77  418.28
  -2  -5   0 1863.87  684.15
  -2  -5   0 1785.53  442.24
   2  -5   0 1792.44  649.36
   2  -5   0 1443.41  718.82
  -2   5   0 1091.25  543.50
  -2   5   1   15.72    9.41
  -2   5   1   27.36   12.01
  -2  -5  -1   61.46   18.94
   2   5   1   24.95   13.20
   2  -5  -1   19.73   10.39
  -2   5   2  874.22  321.05
  -2  -5  -2 1032.39  374.15
   2   5   2 1111.64  402.84
   2  -5  -2 1155.42  424.38
  -2   5  -4  312.64  134.67
   2  -5   5  417.01  179.24
   2   5  -5  370.93  159.54
  -2  -5   5  356.76  153.55
  -2   5  -5  283.38  121.99
   2   5  -6  214.73   92.82
   2   5  -6  103.93   35.22
  -2  -5   6  192.03   83.19
  -2  -5   6  105.11   35.46
   2  -5   7 1183.06  507.67
   2  -5   7 1412.30  461.59
   2   5  -7 1745.22  748.43
  -2  -5   7 1934.14  829.87
  -2  -5   7 1408.84  460.43
  -2   5  -7 1063.71  347.90
   2  -5   8   17.86   13.59
   2  -5   8    9.45    6.36
   2   5  -8    6.13    7.19
  -2  -5   8   10.08    6.48
  -2   5  -8   -0.48   13.35
  -2   5  -8    3.03    4.98
   2  -5   9  161.15   70.10
   2  -5   9  250.56   82.46
   2   5  -9  208.16   90.51
   2   5  -9  180.74   59.87
  -2  -5   9  205.86   89.27
  -2  -5   9  170.83   56.69
  -2   5  -9  195.60   84.65
   2   5 -10  281.08  121.30
   2   5 -10  162.65   54.25
  -2   5 -10  208.85   68.96
   2  -5 -13   40.92   14.16
   2   6   0   96.83   36.81
  -2  -6   0  102.19   26.06
  -2  -6   0   96.98   36.91
   2  -6   0  149.87   55.11
  -2   6   0  112.11   41.07
   2  -6   1  254.92  127.06
  -2   6   1   12.29    7.98
  -2  -6  -1   37.43   13.28
  -2  -6  -1    7.23    8.53
  -2  -6  -1    3.11    7.43
   2   6   1    0.27    6.29
   2   6   1    9.02   11.45
   2  -6  -1   27.15   12.97
   2  -6  -1    7.81    7.64
  -2   6  -1  303.31  151.14
  -2  -6  -2  165.88   60.77
   2   6   2  140.31   51.52
   2  -6  -2  112.35   42.13
   2  -6   5    7.01    8.92
  -2  -6   5   26.43   15.15
  -2   6  -5   20.61   13.77
   2  -6   6  409.75  176.25
   2   6  -6  311.03  133.98
  -2  -6   6  283.26  122.11
  -2   6  -6  242.84  104.78
   2  -6   7   19.00   11.68
   2   6  -7    9.53    9.39
  -2  -6   7    6.95   10.02
  -2  -6   7   41.47   15.01
  -2   6  -7    5.19    8.30
   2  -6   8   10.47   12.56
   2  -6   8   38.39   13.96
   2   6  -8   36.64   18.37
   2   6  -8   26.50   10.72
  -2  -6   8   31.94   16.76
  -2  -6   8   38.82   14.40
   2  -6   9   16.69   11.99
   2  -6   9    6.09    5.83
   2   6  -9   -0.02    9.79
   2   6  -9   14.55    7.83
  -2  -6   9    0.85   10.95
  -2  -6   9    9.53    7.51
  -2   6  -9   35.53   17.98
  -2   6  -9    4.29    4.99
   2  -6  10   22.43   16.96
   2  -6  10    6.59    5.91
   2   6 -10    6.32    7.25
  -2  -6  10    8.74   14.46
  -2   6 -10    6.94    6.34
   2  -6  11   68.24   31.92
   2  -6  11   10.24    6.76
   2   6 -11   23.86   15.46
   2   6 -11   10.95    7.16
  -2  -6  11    8.01   13.74
  -2  -6  11    2.79    5.83
  -2   6 -11   40.26   20.71
   2   6 -12    1.25    9.14
   2   6 -12    3.71    6.34
  -2   6 -12    7.50    6.21
   2  -6 -15    9.83    4.65
   2   7   0   52.61   14.11
  -2  -7   0  103.69   39.19
  -2   7   0  129.60   47.62
  -2   7   1   42.46   17.10
  -2   7   1   43.26   17.69
  -2  -7  -1   10.43    7.47
  -2  -7  -1    8.21    9.76
  -2  -7  -1    3.22    6.33
   2   7   1    8.64    7.37
  -2  -7   1   11.88    5.83
   2  -7  -1    8.09    7.81
   2  -7  -1   23.05   12.37
   2  -7   2  136.16   67.88
  -2   7   2  153.55   57.04
  -2   7   2   77.04   28.93
  -2  -7  -2   70.80   27.02
   2  -7  -2   83.13   31.05
   2  -7  -2  143.77   53.66
  -2   7  -2  184.77   92.06
  -2  -7  -3   16.39    9.27
   2  -7   6   55.67   25.79
   2   7  -6   48.59   23.17
  -2  -7   6   53.08   25.11
  -2   7  -6   57.72   26.50
   2  -7   7  157.12   68.53
   2   7  -7  141.12   61.65
  -2  -7   7  133.28   58.28
  -2   7  -7  111.96   49.07
   2  -7   8   38.03   18.22
  -2  -7   8   54.27   25.03
   2  -7   9   21.37    8.88
   2   7  -9   17.46   10.89
   2   7  -9   35.09   13.41
  -2  -7   9   28.28   11.80
  -2   7  -9   73.94   32.96
   2  -7  10   17.65   16.15
   2  -7  10   17.04    9.02
  -2  -7  10   48.79   26.02
  -2  -7  10   13.64    8.48
  -2   7 -10   19.21    8.78
   2  -7  11    8.97    6.64
   2   7 -11   17.44   14.57
   2   7 -11    9.49    6.54
  -2  -7  11    7.40    6.15
  -2   7 -11   11.54   13.14
  -2   7 -11    3.42    4.89
   2  -7  12   -4.31   11.29
   2   7 -12    2.67    5.51
  -2  -7  12   -8.21   12.45
  -2  -7  12   -0.08    5.05
  -2   7 -12    0.35    9.43
  -2   7 -12    0.14    4.65
   2  -7  13    4.86    5.49
   2   7 -13   11.39   10.67
   2   7 -13   20.26    9.08
  -2  -7  13    1.14   11.02
  -2  -7  13   26.05   10.91
  -2   7 -13   30.85   16.95
   2   7 -14   -1.87    8.53
   2   7 -14    7.14    6.00
  -2   7 -14    2.98    4.80
   2   8   0  910.62  334.42
   2   8   0 1060.60  262.76
  -2  -8   0  801.65  294.55
  -2  -8   0  795.08  197.10
  -2   8   1   17.08    9.59
  -2   8   1    7.84    7.26
   2   8  -1    7.87    4.94
  -2  -8  -1   23.71   11.48
  -2  -8  -1    4.08    9.04
   2   8   1   20.07    9.86
   2   8   1   15.99    8.19
   2  -8  -1    6.48    8.42
   2  -8  -1    4.48    7.03
  -2   8   2  432.68  157.01
  -2  -8  -2  341.10  125.80
   2   8   2  603.17  218.76
   2  -8  -2  462.28  170.14
   2  -8  -2  435.90  158.16
   2  -8   3   29.23   14.76
  -2  -8  -3   77.84   29.11
   2   8   3   78.72   29.41
   2  -8  -3    2.74    6.69
  -2   8  -3   20.75   10.55
   2  -8   6  628.17  269.90
   2   8  -6  243.41  105.42
  -2  -8   6  181.55   79.09
   2  -8   7  452.84  194.80
   2   8  -7  335.22  144.46
  -2  -8   7  414.94  178.67
  -2   8  -7  569.76  244.91
   2  -8   8   38.00   19.26
   2   8  -8   97.95   43.15
  -2  -8   8   84.58   37.48
  -2   8  -8   28.30   14.38
   2  -8   9  723.55  310.68
   2   8  -9  299.16  128.91
  -2  -8   9  344.55  148.38
   2  -8  10   19.16   12.25
   2   8 -10   34.89   17.82
   2   8 -10   44.59   16.13
  -2  -8  10   37.35   19.02
  -2  -8  10   26.33   11.47
  -2   8 -10   24.39   14.34
   2  -8  11  231.55  100.70
   2  -8  11   69.77   24.04
   2   8 -11   44.00   16.05
  -2   8 -11   53.35   24.76
  -2   8 -11   33.75   12.50
   2  -8  12   13.35   12.95
   2  -8  12    8.40    6.04
   2   8 -12   -0.49    9.94
   2   8 -12    5.98    5.44
  -2  -8  12    2.31   13.24
  -2  -8  12    7.33    6.36
  -2   8 -12    3.79   10.62
  -2   8 -12   13.11    6.48
   2  -8  13   28.14   17.45
   2  -8  13   30.11   11.55
   2   8 -13   27.02   14.70
   2   8 -13   19.65    8.74
  -2  -8  13   20.69   15.13
  -2   8 -13   27.77   15.46
  -2   8 -13   32.14   11.85
   2  -8  14   75.20   35.77
   2  -8  14   54.42   19.06
   2   8 -14   62.69   28.28
   2   8 -14   66.10   23.09
  -2  -8  14   50.97   26.07
  -2  -8  14   51.95   18.48
  -2   8 -14   97.23   43.31
  -2   8 -14   78.24   26.53
   2   8 -15    2.37    9.14
   2   8 -15   10.48    6.21
  -2  -8  15    2.38    5.04
  -2   8 -15    6.54   10.37
  -2   8 -15    4.44    4.21
   2   8 -16    8.90    6.33
  -2   8 -16    4.17    4.68
   2   9   0   24.97   12.34
  -2  -9   0   29.73   13.71
   2  -9   0   11.78   12.07
  -2   9   1   21.80   11.48
  -2   9   1   61.91   23.59
  -2  -9  -1   36.97   16.06
  -2  -9  -1    2.35    8.98
   2   9   1   31.20   13.88
   2  -9  -1    2.40    7.55
  -2   9   2   38.42   16.24
  -2   9   2   33.11   13.52
  -2  -9  -2   22.38   11.70
   2  -9  -2   41.45   17.23
  -2   9   3   13.17    8.15
  -2   9   3    7.15    7.72
   2   9   3   46.07   18.22
   2  -9  -3   12.21    8.59
   2  -9  -3    2.88    7.38
   2  -9   4   19.15    9.77
   2  -9   7    9.13    9.90
   2   9  -7   24.34   14.63
  -2  -9   7    8.07    9.80
  -2   9  -7   10.66   10.58
   2  -9   8   -8.72    9.54
   2   9  -8    3.75    8.57
  -2  -9   8    0.82    8.88
  -2   9  -8   -2.85    7.92
   2  -9   9   69.19   32.72
   2   9  -9   43.23   21.60
  -2  -9   9   44.45   22.66
  -2   9  -9   43.19   21.20
   2  -9  10    1.96    9.14
   2   9 -10   25.00   14.38
  -2  -9  10   33.83   17.46
  -2   9 -10    8.00    9.10
   2  -9  11   35.10   18.12
   2   9 -11   21.22   13.03
  -2  -9  11   25.00   14.61
  -2  -9  11   32.62   12.66
  -2   9 -11   45.11   21.48
   2  -9  12    2.69    5.42
   2   9 -12    1.69    7.54
   2   9 -12    4.00    5.57
  -2  -9  12   -7.48   10.66
  -2  -9  12    0.56    5.17
  -2   9 -12   -1.79    8.26
  -2   9 -12    4.15    5.01
   2  -9  13    4.92   12.10
  -2  -9  13    7.50   13.17
  -2  -9  13    5.34    5.96
  -2  -9  13   37.93   18.94
  -2   9 -13   12.84    6.34
   2  -9  14    0.23    5.58
   2   9 -14    3.20    7.69
   2   9 -14    4.33    5.16
  -2  -9  14    3.43    5.53
  -2   9 -14   -0.76    8.87
   2   9 -15   -0.38    8.63
   2   9 -15   11.28    5.70
   2   9 -15    0.35    4.46
  -2   9 -15    0.98    4.12
  -2   9 -16    3.10    4.56
   2  10   0 1094.24  401.92
  -2 -10   0  921.34  338.56
   2 -10   0 1067.86  387.29
  -2  10   1   19.96   10.84
   2  10  -1   10.87    4.82
  -2 -10  -1    6.01    7.10
   2  10   1   15.40    8.88
   2 -10  -1    7.44    7.34
  -2  10   2  354.45  130.75
  -2  10   2  280.50  102.17
  -2 -10  -2  283.96  104.96
  -2 -10  -2  499.03  181.20
   2  10   2  314.60  114.58
   2  10   2  289.26  106.88
   2 -10  -2  267.14   98.79
   2 -10  -2  447.66  162.65
  -2  10   3   84.50   32.24
  -2  10   3   38.00   15.75
  -2 -10  -3   32.80   14.10
   2  10   3   38.90   15.70
   2 -10  -3   69.65   26.74
   2 -10  -3   44.89   17.79
  -2 -10  -4  255.73   93.25
   2  10   4  229.24   83.70
   2 -10   5   96.88   48.30
   2  10  -8   55.08   26.86
  -2  10  -8   57.03   27.23
   2 -10   9  389.71  167.84
   2  10  -9   98.18   43.77
  -2 -10   9   99.70   44.43
   2  10 -10  195.49   84.98
  -2 -10  10  207.81   90.50
  -2  10 -10  187.08   81.33
   2 -10  11  241.80  104.58
  -2  10 -11   92.85   41.37
   2 -10  12   14.95   11.45
   2  10 -12   19.63   11.84
  -2 -10  12   25.61   14.71
  -2 -10  12    6.85    5.55
  -2  10 -12   19.21   11.63
   2 -10  13    4.26    9.51
   2 -10  13    6.43    5.69
   2  10 -13    5.09    7.04
   2  10 -13    5.43    5.01
  -2 -10  13    3.14    5.68
  -2  10 -13   10.25    9.22
   2  10 -14   13.16    8.24
   2  10 -14   42.75   15.51
  -2 -10  14  127.29   63.45
  -2 -10  14   45.99   16.73
  -2  10 -14   43.67   20.23
  -2  10 -14   20.44    8.58
   2  10 -15    4.70    8.91
   2  10 -15    0.31    5.02
  -2  10 -15    1.81   11.40
  -2  10 -15    3.11    3.99
   2  11   0    6.72    3.92
   2  11   0    5.53    7.58
  -2 -11   0    4.73    7.30
   2 -11   0   12.16   11.08
  -2  11   0    9.40   10.54
  -2  11   1    5.44    7.42
  -2  11   1    9.14    7.41
  -2 -11  -1    6.16    6.99
  -2 -11  -1    8.11    7.73
   2  11   1    5.33    6.15
  -2 -11   1   12.73    4.96
   2 -11  -1   16.74    9.41
   2 -11  -1   10.61    7.84
  -2  11   2    5.02    6.43
  -2  11   2   33.28   14.07
  -2 -11  -2    1.41    5.49
  -2 -11  -2    6.88    6.66
   2  11   2    5.35    6.44
   2  11   2    8.37    7.47
  -2  11   3   43.38   17.87
  -2  11   3   46.63   18.39
  -2 -11  -3   27.04   12.75
   2  11   3   27.31   13.40
   2 -11  -3   43.05   17.88
   2 -11  -3   93.82   34.90
  -2 -11  -4   18.56    9.51
   2  11   4   10.95    8.03
   2 -11   6    7.79    4.19
  -2  11  -7   13.21    6.77
   2 -11   8   36.52   20.38
  -2 -11   8   24.95   16.91
   2 -11   9   49.38   24.03
   2  11  -9   13.34   15.06
  -2 -11   9   28.58   16.84
   2  11 -10    3.55    9.70
  -2 -11  10    5.23   12.41
  -2  11 -10   -1.96   10.00
   2  11 -11   26.93   14.33
  -2 -11  11   26.60   17.04
  -2  11 -11   23.58   13.49
   2  11 -12    1.34    7.45
  -2  11 -12    6.33    8.39
   2  11 -13    4.25    6.62
  -2 -11  13    2.67    4.24
  -2  11 -13   -1.33    6.81
   2  11 -14   -5.11    7.21
   2  11 -14    4.95    4.56
  -2 -11  14    2.49    5.22
  -2  11 -14    1.86    7.28
   2  11 -15    0.81    4.21
  -2  11 -15    1.73    4.02
   2  12   0  208.97   52.07
   2  12   0  222.33   82.39
  -2 -12   0  197.45   73.24
   2 -12   0  279.00  101.98
  -2  12   0  247.91   90.74
  -2  12   1    6.98    7.74
  -2  12   1    1.78    6.64
   2  12  -1   29.19    8.17
  -2 -12  -1   15.29    8.89
  -2 -12  -1   14.72    8.63
   2  12   1    8.69    7.32
   2  12   1   19.39   10.05
  -2 -12   1   31.28    8.90
   2 -12  -1    7.83    6.89
   2 -12  -1    6.89    6.38
  -2  12   2  151.82   56.78
  -2 -12  -2  110.73   41.71
   2 -12  -2  138.93   51.80
  -2  12   3   71.73   27.72
  -2  12   3   13.02    8.31
  -2 -12  -3   13.72    9.06
   2  12   3   18.35   10.54
   2 -12  -3   54.65   22.04
   2 -12  -3   11.26    7.81
  -2  12   4   67.87   26.11
  -2  12   4   48.12   18.96
  -2 -12  -4   42.81   17.08
   2  12   4   47.02   18.20
   2 -12  -4   94.21   35.63
   2 -12  -4   47.79   19.09
  -2 -12  -5    9.71    7.36
   2 -12   7  128.56   64.09
  -2  12  -8   36.46   18.26
   2 -12   9   67.34   32.02
   2  12  -9   37.96   20.25
  -2 -12   9   31.87   19.32
  -2  12  -9   84.86   38.57
   2 -12  10   22.79   14.54
  -2 -12  10   29.95   17.12
   2  12 -11    8.85    9.40
  -2  12 -11    9.08    9.87
   2  12 -12    3.25    7.41
  -2  12 -12    5.10    8.99
   2  12 -13    4.22    7.06
  -2  12 -13    5.49    7.70
  -2  12 -14    6.59    8.48
   2  13   0  231.55   57.69
   2  13   0  237.31   87.93
   2 -13   0  312.53  114.11
  -2  13   0  232.47   85.31
  -2  13   1   13.78    9.16
  -2  13   1   19.33    9.71
   2  13  -1   53.78   14.00
  -2 -13  -1   32.93   11.51
  -2 -13  -1   31.48   13.77
  -2 -13  -1   15.46    8.58
   2  13   1   28.53   12.81
   2  13   1   12.72    8.46
  -2 -13   1   26.39    7.61
   2 -13  -1   10.85    7.63
   2 -13  -1   19.73    9.09
  -2  13   2  281.88  102.92
  -2 -13  -2  174.29   64.87
   2  13   2  163.57   61.07
   2 -13  -2  327.85  120.96
   2 -13  -2  334.07  121.53
  -2  13   3  195.72   72.73
  -2  13   3  230.05   83.94
  -2 -13  -3  331.54  122.34
   2  13   3  208.39   76.35
   2 -13  -3  168.99   62.14
  -2  13   4  203.44   75.46
  -2  13   4  164.38   60.39
  -2 -13  -4  237.77   86.73
   2  13   4  247.91   90.42
   2 -13  -4  234.66   87.01
   2 -13  -4  189.38   69.24
  -2 -13  -5  284.65  103.84
   2  13   5  265.64   96.94
   2 -13   8   25.22   12.72
  -2  13  -9   37.30   18.66
   2 -13  10    8.53   11.39
   2  13 -10   43.87   21.68
  -2 -13  10   54.96   26.73
  -2  13 -10   11.06   12.14
   2 -13  11   35.18   18.65
   2  13 -11   64.56   29.79
  -2 -13  11   60.01   28.66
  -2  13 -11   65.70   30.32
   2  13 -12   29.95   15.70
  -2  13 -12   30.70   16.25
   2  13 -13   49.23   22.79
  -2  13 -13   15.13   10.26
   2  14   0   30.54   13.81
   2  14   0   33.18   16.55
  -2 -14   0   16.07    5.92
   2 -14   0   26.83   14.26
  -2  14   0   20.71   14.11
  -2  14   1    1.72    6.71
  -2  14   1   20.84   10.00
   2  14  -1   22.44    6.54
  -2 -14  -1    5.77    6.58
  -2 -14  -1   25.68   10.33
  -2 -14  -1    2.44    6.63
   2  14   1    4.37    6.57
   2  14   1    1.26    6.59
  -2 -14   1   10.44    4.46
   2 -14  -1    1.88    6.39
  -2  14   2   21.66   10.58
  -2  14   2   33.12   14.65
   2  14  -2   17.11    6.39
  -2 -14  -2   81.31   31.22
  -2 -14  -2   18.17   10.19
   2 -14  -2   25.52   11.80
   2 -14  -2   39.87   16.39
  -2  14   3    8.62    9.00
  -2 -14  -3   36.75   16.08
  -2 -14  -3    0.94    8.37
   2  14   3   39.51   16.47
   2 -14  -3    1.80    6.40
   2 -14  -3    6.37    8.60
   2  14   4   15.97    8.87
   2 -14  -4   17.27    9.88
   2  14   5   14.78    9.71
   2 -14  -5    7.27    8.26
   2 -14   9    8.11    4.36
   2 -14  10   -6.21   10.06
  -2 -14  10    9.54   10.88
  -2  14 -10    9.39    4.86
   2  14 -11    1.31   10.17
  -2  14 -11    9.25   11.90
   2  14 -12   18.06   10.77
  -2  14 -12   13.42    9.84
   2  14 -13    3.94    8.24
  -2  14 -13   -5.68    9.49
   2  15   0   33.04   14.49
   2  15   0   64.35   26.96
  -2 -15   0   46.04   18.81
  -2 -15   0   24.21    7.37
   2 -15   0   41.72   19.09
  -2  15   0   38.28   19.36
  -2  15   1   22.72   11.46
  -2  15   1   34.69   14.50
   2  15  -1   27.91    7.87
  -2 -15  -1   18.59    9.89
  -2 -15  -1   31.56   13.60
   2  15   1   24.10   11.80
   2  15   1   28.29   12.83
  -2 -15   1   46.60   12.34
   2 -15  -1   18.95    9.93
  -2  15   2    6.74    7.19
  -2  15   2   15.13    9.29
   2  15  -2    8.32    4.83
  -2 -15  -2   10.60    8.14
  -2 -15  -2   22.81   11.33
   2  15   2   19.02   10.10
   2  15   2    4.00    6.93
   2 -15  -2   30.01   13.33
   2 -15  -2   23.44   11.24
  -2  15   3   18.95    9.72
  -2  15   3   19.93   11.20
  -2 -15  -3   17.60    9.67
  -2 -15  -3   16.08    9.87
   2  15   3   22.57   11.19
   2  15   3   12.98    9.99
   2 -15  -3    9.96    7.95
   2 -15  -3   37.72   16.40
  -2  15   4   21.20   11.04
  -2 -15  -4   32.70   14.79
   2 -15  -4   49.93   20.30
   2 -15  -4   21.78   11.00
  -2  15   5   47.01   19.33
  -2 -15  -5   19.74   11.07
   2 -15  -5    5.58    7.31
   2 -15  -5   46.62   19.43
  -2 -15  -6    5.26    8.04
   2 -15  10    8.89    4.72
  -2  15 -11   73.82   36.82
   2  15 -12    7.23    9.83
  -2  15 -12   23.56   14.91
   2  16   0  204.24   76.03
   2  16   0  302.73  110.97
  -2 -16   0  265.87   66.23
  -2 -16   0  197.79   73.56
   2 -16   0  261.26   95.87
  -2  16   0  235.69   87.04
  -2  16   1   10.80    8.92
   2  16  -1    6.40    8.11
   2  16  -1    8.84    5.02
  -2 -16  -1    8.48    7.12
  -2 -16  -1    1.18    6.12
  -2 -16  -1   11.85    9.65
   2  16   1    7.38    7.33
   2  16   1    2.37    7.44
   2 -16  -1    6.68    7.43
  -2  16   2   27.89   12.86
  -2  16   2   29.58   13.31
   2  16  -2   32.99    9.69
  -2 -16  -2   25.34   11.95
  -2 -16  -2   27.66   12.80
   2  16   2   16.42    9.90
   2  16   2   23.07   12.28
  -2 -16   2   58.88   15.44
   2 -16  -2   44.57   18.49
  -2  16   3   54.72   22.13
  -2  16   3   41.70   17.69
  -2 -16  -3   34.58   15.10
  -2 -16  -3   12.16    9.10
   2  16   3   39.20   16.69
   2  16   3   15.03   10.95
   2 -16  -3   41.84   17.72
  -2 -16  -4    3.32    7.57
  -2 -16  -4    5.49    8.57
   2  16   4    4.32    5.69
   2  16   4   11.32    9.82
   2 -16  -4   41.83   17.65
  -2  16   5   14.88    9.52
  -2  16   5   30.00   13.67
  -2 -16  -5   22.45   11.46
   2  16   5   18.86   10.03
   2 -16  -5    7.93    8.71
   2 -16  -5   44.22   18.62
  -2  16   6   18.14    9.91
  -2 -16  -6   12.95    8.84
   2  16   6   16.07    9.78
   2 -16  10    2.14    1.80
  -2  16 -12    5.11    2.85
   2  17   0   80.84   20.95
   2  17   0  147.11   56.07
  -2 -17   0   82.00   21.13
  -2 -17   0   64.44   25.71
   2 -17   0  127.06   48.43
  -2  17   0  110.07   43.15
  -2  17   1   12.88    9.66
   2  17  -1   14.93    9.88
   2  17  -1   10.51    4.84
  -2 -17  -1    7.82    7.84
  -2 -17  -1    8.26    8.89
  -2 -17   1    7.29    4.35
   2 -17  -1   11.48    9.16
  -2  17   2   60.39   24.21
   2  17  -2   23.53    7.77
  -2 -17  -2   47.74   19.53
  -2 -17  -2   42.28   18.03
   2  17   2   45.33   19.43
  -2 -17   2   37.65   10.51
   2 -17  -2   58.13   23.53
  -2  17   3  194.10   72.45
  -2 -17  -3   29.77   14.07
   2  17   3   32.19   15.21
   2 -17  -3  245.14   91.05
   2 -17  -3   26.62   14.62
  -2  17   4   45.04   19.33
  -2  17   4    7.17    6.70
  -2 -17  -4   49.26   20.84
   2  17   4   73.38   28.61
   2  17   4   38.94   16.60
   2 -17  -4   68.51   27.52
   2 -17  -4    4.83    8.07
  -2  17   5    7.54    7.83
  -2 -17  -5    2.14    6.14
   2  17   5    5.02    6.54
   2  17   5    4.88    6.65
   2 -17  -5   17.67   10.68
   2 -17  -5    6.45    7.21
   2  17   6    0.89    6.55
   2 -17  -6    0.59    7.01
  -2 -17  -7    5.55    6.66
   2 -17  11    1.44    1.64
   2  18   0   95.08   24.46
   2  18   0  152.40   57.99
  -2 -18   0  206.66   77.02
  -2 -18   0  105.68   26.97
   2 -18   0  168.07   62.95
  -2  18   0  164.96   62.51
  -2  18   1    4.60    7.97
   2  18  -1    4.71    7.36
   2  18  -1    8.78    4.73
  -2 -18  -1    4.60    6.99
  -2 -18  -1    4.94    9.27
   2  18   1    3.32    7.86
  -2 -18   1    4.94    4.13
   2 -18  -1    4.30    7.68
   2 -18  -1    3.13    9.11
  -2  18   2   45.56   18.72
  -2 -18  -2   31.79   14.38
   2  18   2   28.28   12.98
   2  18   2   60.34   23.91
  -2 -18   2   36.22   10.34
   2 -18  -2   53.61   21.59
   2 -18  -2   37.10   16.53
  -2  18  -2   41.16   10.65
  -2  18   3    5.38    7.04
   2  18   3   11.52    9.15
   2 -18  -3    2.28    6.07
   2 -18  -3    2.46    8.87
  -2  18   5    3.91    5.69
  -2  18   5    5.39    6.57
  -2 -18  -5    5.67    7.53
   2  18   5    1.03    5.70
   2 -18  -5    7.28    7.21
  -2  18   6   17.56    9.98
  -2 -18  -6    5.85    7.40
   2  18   6    8.30    7.62
   2 -18  -6    5.77    6.10
   2 -18  -6   25.64   12.60
  -2 -18  -7    7.86    7.58
   2  18   7    3.03    6.12
   2  19   0    5.67    5.04
   2  19   0    8.90   12.30
  -2 -19   0    6.42    4.69
  -2 -19   0    3.13    6.80
   2 -19   0    9.48   11.43
  -2  19   0    9.91   14.10
  -2  19   1    6.96    7.55
   2  19  -1   -0.79    3.49
   2  19  -1    3.51    6.52
  -2 -19  -1   -1.92    6.06
  -2 -19  -1   -0.57    7.95
   2  19   1    1.38    6.37
   2  19   1    2.08    5.73
  -2 -19   1    0.16    3.35
   2 -19  -1   -0.05    6.67
   2 -19  -1    1.35    7.26
  -2  19   2   37.95   16.07
   2  19  -2    5.83    4.26
  -2 -19  -2    1.09    6.51
   2  19   2    7.16    7.54
   2  19   2    0.42    6.53
  -2 -19   2    5.35    4.51
   2 -19  -2    4.97    6.29
   2 -19  -2    4.02    6.89
  -2  19  -2    2.40    2.58
  -2  19   3    1.37    6.21
  -2  19   3    3.44    8.47
  -2 -19  -3   21.98   10.96
  -2 -19  -3   11.16    6.86
   2  19   3   15.84    8.93
   2  19   3    5.42    7.07
   2 -19  -3    1.39    7.43
  -2  19   4    3.10    6.26
  -2  19   4    3.00    7.77
  -2 -19  -4    3.48    5.89
  -2 -19  -4    3.81    8.46
   2  19   4   -0.09    5.36
   2 -19  -4    2.55    5.39
   2 -19  -4   -0.23    7.39
  -2  19   5    5.23    5.78
  -2  19   5    2.75    6.89
  -2 -19  -5    0.57    5.16
  -2 -19  -5    9.33    7.90
   2 -19  -5    8.86    7.37
   2 -19  -5    5.57    7.40
  -2  19   6    4.69    7.00
  -2 -19  -6    6.77    6.80
   2  19   6    5.19    6.13
   2 -19  -6   59.58   23.36
  -2 -19  -7    9.20    7.29
   2  19   7    5.91    7.22
   2 -19  -7    8.30    7.61
   2  20   0   15.14    5.71
   2  20   0   24.15   14.95
  -2 -20   0    5.23    4.11
  -2 -20   0   16.45    9.24
   2 -20   0   21.08   13.80
  -2  20   0   29.66   18.12
  -2  20   1    3.20    6.60
   2  20  -1   -0.69    5.77
  -2 -20  -1   -0.06    5.64
  -2 -20  -1    3.61    7.16
   2  20   1    5.25    7.70
   2  20   1    2.40    5.72
  -2 -20   1    5.74    4.18
   2 -20  -1    1.07    6.04
   2 -20  -1   -0.05    6.66
   2 -20   2    8.16    3.44
  -2  20   2    7.19    6.93
  -2  20   2    6.70    7.22
   2  20  -2   13.85    5.39
  -2 -20  -2   31.85   13.89
   2  20   2   34.33   14.64
   2  20   2   14.98    8.99
  -2 -20   2   10.68    5.07
   2 -20  -2   26.81   12.31
   2 -20  -2   10.55    8.28
  -2  20  -2    6.74    2.75
  -2  20   3   11.78    7.62
  -2  20   3    5.45    8.56
  -2 -20  -3    3.31    5.74
   2  20   3   -0.93    6.04
   2 -20  -3    4.05    7.75
  -2  20   4    6.67    6.11
  -2  20   4   14.68    9.29
  -2 -20  -4    5.29    5.82
  -2 -20  -4    8.04    9.09
   2  20   4    3.31    5.76
   2 -20  -4    2.76    6.10
  -2  20   5    4.85    6.73
  -2 -20  -5    6.23    6.61
  -2 -20  -5    6.99    7.39
   2  20   5    6.92    7.33
   2 -20  -5    7.49    7.21
  -2  20   6   15.54    8.41
  -2  20   6    7.89    7.04
  -2 -20  -6   11.73    7.69
   2  20   6   19.41    9.37
   2 -20  -6   10.48    7.66
   2 -20  -6   13.87    8.59
  -2  20   7    6.77    5.55
  -2  20   7   -1.52    6.86
   2  20   7    4.76    6.38
   2 -20  -7    3.03    7.72
   2  21   0   23.73   16.95
  -2 -21   0   16.20    5.80
  -2 -21   0   10.52    7.50
   2 -21   0   10.17   13.44
  -2  21   0   24.06   17.30
  -2  21   1    6.52    6.83
  -2  21   1    5.70    7.48
   2  21  -1    4.34    3.28
   2  21  -1    0.54    6.10
  -2 -21  -1    6.72    6.33
  -2 -21  -1    2.53    6.60
  -2 -21  -1    5.14   12.63
   2  21   1    1.08    5.16
   2  21   1    5.98    7.50
   2 -21  -1    1.77    5.99
   2 -21  -1    9.40    8.01
   2 -21   2    9.93    3.65
  -2  21   2    4.69    6.53
  -2  21   2   11.22    9.12
   2  21  -2   15.85    5.43
  -2 -21  -2   19.86   10.07
   2  21   2   28.96   13.17
   2  21   2   21.17   10.35
   2 -21  -2    9.59    8.75
  -2  21  -2   11.43    3.49
  -2  21   3   25.26   11.96
  -2  21   3    8.69    9.22
   2  21  -3   -0.69    4.80
  -2 -21  -3    5.15    8.69
   2  21   3   29.70   13.20
   2 -21  -3    6.72    6.32
   2 -21  -3    2.04    7.87
  -2  21   4   20.48   10.89
  -2 -21  -4   13.69    8.13
  -2 -21  -4    7.57    8.59
   2  21   4   13.12    9.74
   2 -21  -4    5.25    6.20
  -2  21   5   17.36    9.40
  -2  21   5   17.49    9.36
  -2 -21  -5    3.08    6.49
   2  21   5   14.31    8.24
   2  21   5   26.91   12.59
   2 -21  -5   37.01   15.72
   2 -21  -5    5.05    7.63
  -2  21   6   14.73    8.20
   2  21   6    4.51    5.80
  -2  21   7    8.11    8.49
   2  21   7   12.84    7.86
   2  21   8   -0.73    6.24
   2  22   0    6.65   15.10
  -2 -22   0   15.03    6.12
  -2 -22   0   10.07    7.65
   2 -22   0    7.91   13.31
  -2  22   0   24.81   18.85
  -2  22   1   -0.78    6.36
  -2  22   1   -0.10    8.05
   2  22  -1    3.38    2.85
   2  22  -1    1.76    6.14
  -2 -22  -1    1.60    6.03
  -2 -22  -1    4.29   12.82
  -2 -22  -1    2.82    7.55
   2  22   1    0.11    5.57
   2  22   1   -0.99    7.38
  -2 -22   1    3.78    3.41
   2 -22  -1   -0.96    6.30
   2 -22  -1   -2.81    7.98
   2 -22   2    5.29    2.77
  -2  22   2    6.11    7.21
  -2  22   2   16.06   10.02
   2  22  -2    8.67    3.85
  -2 -22  -2    0.32    5.29
  -2 -22  -2    0.34    7.39
   2  22   2    2.30    6.13
  -2 -22   2    2.68    3.98
   2 -22  -2    2.84    7.26
  -2  22  -2    4.08    2.04
  -2  22   3    1.04    5.40
  -2  22   3   11.57    9.49
   2  22  -3   -0.17    4.13
  -2 -22  -3    3.85    5.82
  -2 -22  -3   -0.67    7.56
   2  22   3    1.87    5.84
   2 -22  -3    3.56    6.12
  -2  22   4   10.08    6.93
  -2 -22  -4    9.03    8.10
  -2 -22  -4    1.73    8.12
   2  22   4   13.57    8.05
   2  22   4    1.03    7.50
   2 -22  -4   13.69    8.47
   2 -22  -4    1.75    8.96
  -2  22   5    5.23    6.19
   2  22   5    2.96    5.01
   2  22   5    4.73    7.59
  -2  22   6    1.63    5.73
  -2  22   6    3.50    7.02
   2  22   6    2.35    4.45
   2  22   6   22.61   10.85
  -2  22   7    4.58    7.93
   2  23   0    4.20   14.09
  -2 -23   0    4.26    6.84
  -2  23   0   15.57   16.52
  -2  23   1    1.38    6.39
  -2  23   1    0.03    7.83
   2  23  -1    0.21    6.03
   2  23  -1    2.07    2.73
   2  23   1   -0.50    5.11
   2  23   1    0.05    6.71
   2 -23   2   12.28    4.18
  -2  23   2   22.57   11.53
  -2  23   2    7.90    8.60
   2  23  -2    8.39    4.11
   2  23   2   12.63    7.82
  -2 -23   2   15.21    6.24
  -2  23  -2    9.12    3.13
  -2  23   3   41.92   18.05
   2  23   3    3.49    5.89
  -2  23   4    5.89    6.46
   2  23   4   21.73   10.45
   2  23   4    6.33    9.01
  -2  23   5    2.61    6.06
  -2  23   5   21.15   11.68
   2  23   5    3.39    5.80
   2  23   5   27.74   13.04
   2  24   0   -1.14    5.87
   2  24   0   36.67   21.37
  -2  24   0   24.94   19.54
  -2  24   1    4.25    7.03
  -2  24   1   -2.95    8.99
   2  24  -1    0.75    6.16
   2  24   1   -2.67    5.60
   2  24   1   -4.11    7.43
  -2  24   2   10.07    8.33
  -2  24   2   -1.30    8.22
   2  24   2   16.08    9.32
  -2  24   3    2.57    7.99
   2  24   3    3.10    8.08
  -2  24   4    0.51    6.82
  -3   0   0  156.89   67.37
   3   0   1 2642.59  654.32
  -3   0  -1 2366.13  586.11
  -3   0   4  319.79  105.92
   3   0  -5 2648.36  869.03
   3   0  -7 3209.35 1597.76
   3   0  -8  123.61   61.62
  -3  -1   0  -12.69    8.44
   3  -1   0    7.86    7.39
  -3   1   0   20.78   10.19
   3  -1   1   86.64   37.62
  -3  -1  -1  120.61   31.94
  -3  -1   1   83.29   30.85
  -3  -1   1  123.61   53.57
  -3   1  -1   85.34   37.10
   3  -1   2 1433.04  468.38
   3   1  -2 1824.70  782.52
  -3  -1   2 1790.14  768.01
  -3  -1   3  148.84   50.63
  -3   1   6 1596.61  795.31
   3  -1  -6  788.86  392.82
   3  -1  -6  984.00  323.47
   3  -1  -7    6.97    4.20
   3  -1  -7   37.44   14.95
  -3  -1   8  157.70   78.59
   3   1  -9   34.70   17.37
   3   2   0   73.70   26.84
  -3  -2   0   66.21   18.51
  -3  -2   0   54.97   22.14
   3  -2   0   48.66   14.00
   3  -2   0   14.70    6.77
  -3   2   0   51.57   14.73
   3   2  -1  743.13  272.78
  -3  -2  -1  517.23  128.91
  -3  -2   1  791.28  290.52
   3  -2   2   64.64   29.35
   3   2  -2  171.75   74.38
   3   2  -2   83.24   28.64
  -3  -2   2  217.61   94.01
  -3  -2   2   98.86   33.95
  -3   2  -2   72.67   32.04
   3   2  -3 1395.02  598.33
  -3  -2   3 1459.54  626.21
  -3  -2   3 1337.43  437.29
  -3   2  -3 2823.45 1210.71
   3   2  -4  159.43   69.91
  -3  -2   4  159.89   70.07
  -3   2  -4  122.22   40.64
  -3   2   5  501.79  249.98
  -3   2   9   57.98   19.94
  -3  -2   9   48.06   24.02
   3  -2  -9   32.62   12.56
   3   2 -10   39.58   19.80
   3   3   0    1.07    6.27
  -3  -3   0   12.00    7.84
   3  -3   1  438.44  108.99
  -3  -3  -1  390.28   97.63
  -3  -3  -1  498.68  180.97
   3   3   1  373.46  135.82
  -3  -3   1  461.82  169.80
  -3   3  -1  394.66   98.11
   3  -3   3 1078.23  462.74
   3   3  -3  524.49  225.33
  -3  -3   3  570.91  245.37
  -3   3  -3  705.69  302.85
  -3   3   4  441.20  219.80
   3   3  -4  228.55   98.64
  -3  -3   4  321.40  105.64
   3  -3  -4  339.60  169.10
   3  -3   5  200.56   86.98
   3  -3   5  179.36   59.00
  -3  -3   5  193.64   84.89
  -3  -3   5  215.65   71.10
  -3   3  -5  158.27   69.09
  -3   3  -5  161.96   53.37
   3   3  -6   22.59   13.29
  -3   3  -6   28.25   12.71
  -3  -3  10   63.97   31.94
   3   3 -11   70.19   35.03
   3  -3 -11   36.36   13.66
  -3   3  12  100.57   33.72
   3   4   0  199.06   50.00
   3   4   0   29.16   13.05
  -3  -4   0   29.50   14.12
   3  -4   0    5.14    5.21
  -3   4   0    3.51    4.59
   3  -4   1   52.21   14.08
   3   4  -1   56.95   22.89
  -3  -4  -1   55.06   17.62
  -3  -4   1   53.27   21.54
  -3   4   2    8.63    6.27
  -3  -4  -2   22.83   11.91
   3   4   2   21.08   11.05
   3  -4   3  423.58  182.12
  -3   4   3  720.09  358.72
   3   4  -3  221.75   96.02
  -3  -4   3  181.89   79.21
   3  -4  -3  937.58  466.89
   3  -4   4  115.66   50.85
   3   4  -4   84.10   37.46
   3   4   4   64.57   23.22
  -3  -4   4   47.81   23.04
  -3   4  -4   61.12   27.51
   3  -4   5    4.83    7.33
   3   4  -5    4.74    8.52
   3   4  -5   10.52    7.65
  -3  -4   5   20.83   13.43
  -3  -4   5    2.82    7.43
  -3   4  -5    9.72    8.59
   3  -4   6   32.83   18.30
   3  -4   6    9.79    6.04
   3   4  -6   15.86    9.05
  -3  -4   6   23.91   16.45
  -3  -4   6    8.30    7.47
  -3   4  -6   21.63   15.55
  -3   4  -6   13.28    7.44
   3  -4   7  245.72  106.12
   3   4  -7  120.38   53.43
   3   4  -7  166.57   55.37
  -3  -4   7  134.67   59.46
  -3   4  -7  163.23   71.13
  -3   4  -7  174.40   57.69
   3   4  -8   35.85   21.54
   3   4  -8   19.55   10.22
  -3  -4  11   15.40    7.94
   3   4 -12    2.94    2.10
  -3   4  14    7.73    5.84
   3   5   0  127.41   47.89
   3   5   0    6.88    6.40
  -3  -5   0  144.34   54.21
  -3  -5   0    6.49    7.07
   3   5  -1  514.47  189.27
  -3  -5  -1  391.32  142.27
   3   5   1  367.24  133.52
  -3  -5   1  494.88  182.12
   3  -5  -1  163.23   81.39
   3  -5  -1  541.88  196.64
  -3   5  -1  351.24   87.38
  -3   5   2 4574.43 2278.57
  -3   5   2 4435.04 1626.57
  -3  -5  -2 4825.55 1747.52
   3   5   2 4444.26 1609.29
   3  -5  -2 4511.07 1655.37
   3  -5  -2 4694.24 2337.33
   3   5  -4  644.87  276.93
  -3   5  -4  562.84  241.80
   3  -5   5  210.46   91.02
  -3  -5   5  199.17   86.18
  -3   5  -5  186.27   80.54
   3  -5   6 3397.12 1457.23
   3   5  -6 3900.53 1672.64
   3   5  -6 4976.46 1625.41
  -3  -5   6 3489.28 1496.39
  -3  -5   6 4638.94 1515.98
  -3   5  -6 3203.59 1373.13
   3  -5   7   31.16   11.68
  -3  -5   7    5.42    6.58
   3  -5   8    5.84   11.38
   3   5  -8   17.41   16.86
   3   5  -8  139.74   46.80
  -3  -5   8  128.56   42.97
   3  -5   9   25.29   14.73
   3  -5   9   35.55   12.94
   3   5  -9   21.14   12.76
   3   5  -9   28.04   11.57
  -3  -5   9   23.90   15.25
  -3  -5   9   33.23   12.95
  -3   5  -9   22.65   12.78
   3   5 -10   99.32   44.63
   3   5 -10   79.42   27.70
  -3   5 -10  116.93   39.18
  -3  -5  12   88.34   44.06
   3   5 -13   42.78   21.39
   3   6   0   53.16   15.22
   3   6   0   10.37    7.91
  -3  -6   0    3.13    6.76
   3  -6   0    3.58    6.71
   3  -6   0    8.80    5.01
   3  -6   1  200.67   49.95
  -3   6   1  577.93  287.87
   3   6  -1  161.39   40.73
   3   6  -1  190.53   70.81
  -3  -6  -1  172.68   63.17
   3   6   1  182.81   66.70
  -3  -6   1  163.00   41.10
  -3  -6   1  159.08   59.34
   3  -6  -1  185.12   67.80
   3  -6  -1  689.79  343.63
  -3   6  -1  193.53   48.16
  -3   6   2    4.21    5.63
  -3  -6  -2    8.04    7.60
   3  -6  -2   21.59   10.49
   3  -6   5  143.19   62.30
  -3  -6   5  259.65  112.08
  -3   6  -5   77.90   35.19
   3  -6   6   55.05   25.91
   3   6  -6   60.06   27.61
  -3  -6   6   57.76   26.78
  -3   6  -6   51.34   23.82
   3  -6   7  399.04  171.64
   3   6  -7  562.15  241.57
  -3  -6   7  442.24  190.19
  -3  -6   7  381.64  125.22
  -3   6  -7  358.25  154.13
   3  -6   8   22.92    9.06
   3   6  -8   11.91   10.09
   3   6  -8   24.35   10.38
  -3  -6   8    3.85    7.71
   3  -6   9   -0.13    9.34
   3   6  -9    0.65    9.11
   3   6  -9   17.37    8.58
   3   6   9   43.90   15.75
  -3  -6   9   -1.25   11.68
  -3  -6   9   12.42    7.77
  -3   6  -9    5.00    9.00
  -3   6  -9    5.48    6.06
   3  -6  10   53.11   26.96
   3  -6  10   19.30    8.73
   3   6 -10    7.70    7.39
  -3  -6  10   25.15   17.31
  -3  -6  10   14.19    8.05
  -3   6 -10   14.50    7.38
   3  -6  11   36.79   20.14
   3  -6  11   14.95    7.17
   3   6 -11   25.29   15.71
   3   6 -11   23.20   10.21
  -3  -6  11   43.12   23.87
  -3  -6  11   24.64   10.57
  -3   6 -11   44.62   22.52
   3   6 -12    4.60   10.34
   3   6 -12    7.44    6.94
  -3   6 -12    3.98    5.37
   3   6 -14    4.76    2.66
   3   7   0    6.70    5.37
   3   7   0    4.32    7.44
  -3  -7   0    4.18    4.77
  -3  -7   0   16.74    9.85
   3  -7   0    8.17    7.13
   3  -7   0   89.38   44.66
  -3   7   0   10.22    7.20
  -3   7   0  142.73   71.19
   3  -7   1   96.49   24.19
   3   7  -1   31.23   13.90
  -3  -7  -1   26.50   11.95
  -3  -7   1   34.32   14.86
  -3  -7   1  116.12   29.44
  -3   7  -1  117.62   29.35
  -3   7   2  156.43   57.30
  -3  -7  -2  305.61  111.19
   3   7   2  219.33   79.98
   3  -7  -2  198.25   73.44
   3  -7  -2  174.63   63.92
  -3  -7  -3  115.54   42.60
   3  -7  -3  201.94   74.72
  -3  -7   5  206.55   89.75
   3  -7   6   51.50   24.31
   3   7  -6   61.35   28.27
  -3  -7   6   66.53   30.53
  -3   7  -6   54.78   25.22
   3  -7   7   91.33   41.21
   3   7  -7   40.28   20.01
  -3  -7   7   36.29   18.29
  -3   7  -7   93.25   41.17
   3  -7   8   15.46   10.44
  -3  -7   8   13.32    9.51
  -3  -7   8   38.87   14.55
   3   7  -9   14.54    9.86
   3   7  -9   10.40    7.28
  -3  -7   9   11.05    7.83
  -3   7  -9    3.47    7.74
   3  -7  10   24.42   17.49
   3  -7  10   53.04   18.78
  -3  -7  10   25.49   18.56
  -3  -7  10   41.59   15.97
  -3   7 -10   70.60   24.13
   3  -7  11   64.83   22.28
   3   7 -11   24.95   16.54
   3   7 -11   46.56   16.96
  -3  -7  11   52.20   18.55
  -3   7 -11   39.11   20.97
   3  -7  12   -7.49   11.04
   3   7 -12    8.23    6.01
  -3  -7  12    3.31   11.93
  -3  -7  12    0.57    5.09
  -3   7 -12    2.64    9.78
  -3   7 -12   15.46    7.17
   3  -7  13   12.31    6.68
   3   7 -13    6.42    9.37
   3   7 -13   18.10    8.50
  -3  -7  13    1.59   11.93
  -3  -7  13    6.07    5.83
  -3   7 -13    4.96   10.00
   3   7 -14   29.85   15.64
   3   7 -14    6.69    6.32
  -3   7 -14   24.97    9.81
   3   7 -15    4.06    2.34
   3   8   0   30.87    9.12
  -3  -8   0   30.90    9.18
  -3  -8   0    5.88    7.97
   3  -8   0    5.37    6.13
  -3   8   0   11.80    7.33
   3  -8   1  228.67   56.76
  -3   8   1  177.40   64.99
   3   8  -1  246.87   91.56
   3   8  -1  204.36   51.08
  -3  -8  -1  505.48  185.92
   3   8   1  403.88  148.61
  -3  -8   1  337.64  124.53
  -3  -8   1  163.69   41.01
   3  -8  -1  203.90   74.67
  -3   8  -1  182.01   45.23
  -3   8   2   10.65    7.48
  -3  -8  -2  107.90   40.34
   3  -8  -2   71.73   26.83
  -3   8   3  389.25  143.31
  -3  -8  -3  511.01  185.46
   3  -8  -3  418.05  154.01
   3  -8   6  305.61  131.90
   3   8  -6  364.01  156.89
  -3  -8   6  221.75   96.15
  -3   8  -6  116.00   50.93
   3   8  -7  113.99   50.24
  -3  -8   7  159.77   69.81
   3  -8   8  162.65   70.87
   3   8  -8  146.53   63.66
  -3  -8   8  160.12   69.45
  -3   8  -8  134.78   58.52
   3  -8   9  339.95  146.53
   3   8  -9   76.42   34.19
  -3  -8   9   88.41   39.47
   3  -8  10   18.40   12.16
   3   8 -10    6.03    9.11
   3   8 -10    8.01    6.95
  -3  -8  10    7.00   10.35
  -3  -8  10    5.85    7.21
  -3   8 -10   25.16   14.45
   3  -8  11    3.43   12.13
   3  -8  11    4.23    5.76
   3   8 -11    2.49    5.70
  -3  -8  11    1.25    6.31
  -3   8 -11   -4.63    7.44
   3  -8  12   14.85   13.84
   3  -8  12    0.54    4.64
   3   8 -12   77.17   35.08
   3   8 -12    2.69    5.18
  -3  -8  12    0.04    5.27
  -3   8 -12    3.35   10.33
  -3   8 -12    1.82    4.40
   3  -8  13   13.88   13.20
   3  -8  13   46.88   16.67
   3   8 -13    6.83    8.74
   3   8 -13   10.77    6.37
  -3  -8  13   11.74   12.95
  -3   8 -13   32.15   17.50
  -3   8 -13   28.64   10.76
   3  -8  14    1.83    4.30
   3   8 -14    1.24    7.19
  -3  -8  14   -4.07   11.91
  -3  -8  14    3.08    4.96
  -3   8 -14   -0.62    9.23
  -3   8 -14    4.00    4.59
   3   8 -15   33.55   17.23
   3   8 -15   23.51    9.84
  -3  -8  15    3.21    5.31
  -3   8 -15   39.94   20.82
   3   8 -16    1.73    5.46
  -3   8 -16   25.33    9.81
   3   9   0    7.38    7.74
  -3  -9   0    1.33    6.90
  -3  -9   0    1.31    4.44
  -3   9   0   17.23    8.70
   3  -9   1   33.95    8.70
   3  -9   1   26.23   13.39
  -3   9   1   15.03    8.73
  -3  -9  -1   12.53    8.73
  -3  -9  -1   16.08    9.26
  -3  -9   1   21.52   11.19
  -3  -9   1   34.33    9.95
   3  -9  -1   17.37    9.17
  -3   9  -1   34.56    8.89
   3  -9   2  335.68  167.26
  -3   9   2   58.14   22.18
  -3  -9  -2   58.84   22.79
  -3  -9  -2   66.34   25.79
   3   9   2   49.12   19.62
   3  -9  -2   35.49   15.04
   3  -9  -2   41.49   16.48
  -3   9  -2  226.48  112.84
  -3   9   3   23.38   11.10
  -3  -9  -3   31.49   13.40
   3   9   3   28.44   12.43
   3  -9  -3   17.94   10.25
  -3  -9  -4   21.27   10.26
   3  -9   7   19.56   12.27
   3   9  -7    1.06    9.54
  -3  -9   7    4.41    8.85
  -3   9  -7   32.53   16.80
   3  -9   8   17.41   11.81
   3   9  -8   18.11   11.67
  -3  -9   8    5.61    9.50
  -3   9  -8   14.99   10.75
   3   9  -9   20.61   13.35
  -3  -9   9   31.47   17.86
  -3   9  -9   33.36   17.42
   3  -9  10   13.56   11.00
   3   9 -10    5.58    9.61
  -3  -9  10    8.28   10.12
  -3   9 -10   20.70   12.66
   3  -9  11   17.57   11.61
   3   9 -11    6.82    9.10
   3   9 -11    4.21    5.52
  -3  -9  11   -0.52    9.76
  -3  -9  11    8.74    6.79
  -3   9 -11    2.03    8.81
   3  -9  12   31.23   11.96
   3   9 -12   22.61   12.52
   3   9 -12   26.66   10.62
  -3  -9  12   12.80   11.58
   3  -9  13    8.16   12.19
  -3  -9  13   -3.99   12.36
  -3  -9  13    2.98    5.27
  -3   9 -13    2.20    4.39
   3   9 -14   11.31    9.37
   3   9 -14   23.76    9.94
  -3  -9  14   25.42   10.62
  -3   9 -14   -0.92    8.99
   3   9 -15    1.62    8.36
   3   9 -15    3.67    5.20
  -3   9 -15   -0.08    3.76
   3  10   0    2.48    6.14
   3  10   0   25.50    7.79
  -3 -10   0    8.75    5.82
  -3  10   0    0.95    5.25
   3 -10   1  253.31   62.91
  -3  10   1  366.55  133.17
   3  10  -1  228.32   56.91
   3  10  -1  223.71   82.89
  -3 -10  -1  241.45   88.09
   3  10   1  494.88  182.12
   3  10   1  154.82   56.85
  -3 -10   1  207.12   76.80
  -3  10  -1  252.40   62.71
   3 -10   2   10.14    5.62
  -3  10   2   39.96   16.31
  -3 -10  -2   10.58    7.21
   3  10   2   15.77    8.87
   3 -10  -2    5.26    6.79
   3 -10  -2    7.23    7.35
   3 -10   3 2172.59 1081.80
  -3  10   3 3005.46 1102.77
  -3  10   3 1926.08  697.63
  -3 -10  -3 2059.71  746.13
   3 -10  -3 2156.47  791.51
   3 -10  -3 1992.89  721.93
  -3  10  -3 2217.52 1104.27
  -3 -10  -4  259.19   94.39
   3  10   4  227.63   83.09
   3 -10  -4  320.71  118.42
   3  10  -8   83.34   38.06
  -3  10  -8   69.19   32.09
   3 -10   9  151.94   66.32
   3  10  -9  197.91   85.96
  -3 -10   9  195.95   85.16
  -3  10  -9  343.52  148.03
   3  10 -10   71.94   32.77
  -3 -10  10   62.97   30.08
  -3  10 -10  318.06  137.20
   3 -10  11    2.89    7.74
   3  10 -11    4.49    8.37
  -3  10 -11   -0.89    9.19
   3 -10  12   62.60   28.65
   3  10 -12   58.01   26.56
  -3 -10  12   57.41   26.73
  -3 -10  12   65.65   22.83
  -3  10 -12   52.90   24.48
   3 -10  13   -2.39    9.01
   3 -10  13   18.35    8.20
   3  10 -13    4.02    6.80
   3  10 -13   15.38    7.62
  -3 -10  13   12.74    7.31
  -3  10 -13    6.59    8.90
   3  10 -14    1.13    5.71
   3  10 -14    6.16    5.70
  -3 -10  14    3.29    5.63
  -3  10 -14   -1.68    7.12
  -3  10 -14    4.07    4.69
   3  10 -15    4.04    8.43
   3  10 -15    1.69    4.11
  -3  10 -15    1.52   10.87
  -3  10 -15    2.94    4.03
   3  11   0   17.87    6.09
  -3 -11   0   20.07   10.14
  -3  11   0   21.10   10.81
  -3  11   1   17.88    9.63
   3  11  -1   14.10    8.92
   3  11  -1  105.49   26.61
  -3 -11  -1   40.47   16.69
  -3 -11  -1    6.32    6.88
   3  11   1   44.85   18.12
   3  11   1    6.57    6.76
  -3 -11   1    7.78    7.61
   3 -11  -1    6.34    7.40
  -3  11   2  125.80   47.01
  -3  11   2  190.30   69.61
  -3 -11  -2  251.59   93.00
   3  11   2  233.04   86.24
   3  11   2  136.05   49.97
   3 -11  -2  295.94  109.24
   3 -11  -2  228.09   83.17
   3 -11   3   22.51   11.46
  -3  11   3   20.29   10.00
  -3  11   3   37.98   15.47
  -3 -11  -3    8.48    6.33
  -3 -11  -3   16.70    9.31
   3  11   3   12.19    8.44
   3 -11  -3   18.35    9.23
   3 -11   4  131.21   65.40
  -3  11   4   56.05   21.75
  -3 -11  -4   75.26   28.23
   3 -11  -4   43.11   17.62
   3 -11   8   18.77   14.79
  -3 -11   8   43.59   23.12
   3 -11   9   20.97   13.79
   3  11  -9   20.80   16.69
  -3 -11   9   60.09   28.57
   3  11 -10    9.59   10.21
  -3 -11  10   10.01   12.61
  -3  11 -10   14.66   11.85
   3  11 -11    4.44    7.73
  -3 -11  11   -2.84   11.18
  -3  11 -11    8.24    9.06
   3 -11  12   14.80   11.84
   3  11 -12    5.13    7.77
  -3  11 -12    8.03    8.61
   3  11 -13   -3.64    6.10
  -3 -11  13   -0.20    4.55
  -3  11 -13   -0.87    6.84
   3  11 -14   15.55    9.93
   3  11 -14    5.91    5.13
  -3 -11  14    3.82    5.64
  -3  11 -14    9.58    8.86
   3  11 -15    2.42    4.52
  -3  11 -15   -0.51    3.26
   3  12   0    4.01    6.30
   3  12   0  127.99   32.17
  -3 -12   0    2.90    6.23
   3 -12   0    4.57    9.88
  -3  12   1  115.77   43.69
  -3  12   1  105.02   39.10
   3  12  -1  146.42   36.66
   3  12  -1  126.03   47.31
  -3 -12  -1  190.99   69.82
   3  12   1  211.15   78.26
   3  12   1  158.39   58.24
  -3 -12   1  103.03   39.01
  -3 -12   1  142.04   35.62
   3 -12  -1  144.69   53.13
  -3  12   2   29.82   13.43
  -3 -12  -2   36.64   15.74
   3  12   2   33.80   14.51
   3 -12  -2   26.28   12.26
  -3  12   3  136.05   50.14
   3  12   3  155.86   57.26
   3 -12  -3  173.71   64.64
   3 -12  -3  146.99   53.98
   3 -12   4  279.12  139.05
  -3  12   4  320.82  118.31
  -3 -12  -4  275.66  100.39
   3  12   4  265.98   96.90
   3 -12  -4  404.91  149.18
   3 -12  -4  194.57   71.19
   3 -12   5  223.37  111.31
  -3 -12  -5  160.69   59.10
   3  12   5  178.09   65.28
  -3  12  -5  303.66  151.26
   3 -12   9  131.33   58.12
   3  12  -9   55.40   26.91
  -3 -12   9   42.99   23.07
  -3  12  -9   79.83   36.46
   3  12 -11   17.87   11.83
  -3  12 -11   24.87   14.12
   3  12 -12   19.46   11.61
  -3 -12  12   28.99   18.26
  -3  12 -12   19.18   12.42
   3  12 -13   28.93   14.84
  -3  12 -13   22.68   12.86
  -3  12 -14   13.64   10.42
   3  12 -15   27.21   11.33
   3  13   0    7.02    4.46
   3  13   0   25.34   11.73
  -3 -13   0   34.64   14.78
  -3 -13   0   12.53    5.35
   3 -13   0   15.71   12.66
  -3  13   1  116.46   43.94
  -3  13   1  228.90   83.56
   3  13  -1  170.03   42.47
   3  13  -1  122.11   45.94
  -3 -13  -1  218.07   79.53
  -3 -13  -1  215.88   79.99
   3  13   1  210.12   76.75
  -3 -13   1  124.99   46.99
   3 -13  -1  279.69  101.78
  -3  13   2  236.27   87.56
   3  13  -2  207.47   51.91
  -3 -13  -2  160.46   59.05
   3  13   2  135.47   50.67
   3 -13  -2  147.80   55.19
   3 -13  -2  119.46   44.59
  -3  13   3  696.13  255.96
  -3 -13  -3  677.58  249.29
   3 -13  -3  518.15  190.76
  -3  13   4   33.26   14.62
  -3 -13  -4   37.43   15.40
   3  13   4   22.31   10.86
   3 -13  -4   15.29    8.79
   3 -13  -4   33.03   14.48
   3 -13   5  269.79  134.44
  -3  13   5  493.38  181.78
  -3 -13  -5  329.69  120.04
   3  13   5  267.25   97.51
   3 -13   6   27.28   13.84
  -3  13  -6   54.68   27.36
   3 -13  10   66.50   31.03
   3  13 -10   16.05   11.95
  -3 -13  10   22.88   15.02
  -3  13 -10   85.22   38.51
   3 -13  11    7.91   10.24
   3  13 -11   35.69   18.24
  -3 -13  11   42.02   21.53
  -3  13 -11   66.62   30.70
   3  13 -12   37.51   18.33
  -3  13 -12    3.35    8.38
   3  13 -13    4.41    7.21
  -3  13 -13    5.72    8.14
   3  14   0    0.20    6.10
  -3 -14   0    5.53    6.87
  -3 -14   0   49.23   13.12
   3 -14   0    2.54   11.02
  -3  14   1   20.27   10.73
  -3  14   1    5.91    6.79
   3  14  -1   18.75    6.29
   3  14  -1   39.27   16.65
  -3 -14  -1    4.86    6.75
  -3 -14  -1    7.99    7.05
   3  14   1    4.46    6.85
   3  14   1    2.53    6.70
  -3 -14   1   19.01   10.40
  -3 -14   1    3.98    3.89
   3 -14  -1    3.57    6.28
  -3  14   2    1.96    6.83
  -3  14   2    5.77    8.76
   3  14  -2    0.84    4.83
  -3 -14  -2   -0.85    7.59
  -3 -14  -2   10.71    7.89
   3  14   2   13.45    8.56
   3  14   2   -2.21    7.79
   3 -14  -2    1.82    5.61
   3 -14  -2    9.55    8.37
  -3  14   3   79.38   30.54
  -3 -14  -3   39.20   16.45
  -3 -14  -3   36.69   16.02
   3  14   3   25.09   12.94
   3 -14  -3   41.90   17.38
   3 -14  -3   49.74   20.19
  -3  14   4   12.63    8.54
  -3  14   4   15.76    9.08
  -3 -14  -4   15.93    9.87
   3 -14  -4   13.69    9.43
  -3 -14  -5  166.11   61.00
   3  14   5  197.33   72.26
   3 -14  -5  227.63   84.45
   3 -14   6   16.15    8.45
  -3 -14  -6    7.92    8.03
  -3  14  -8   30.83   15.49
   3 -14  10   65.43   30.39
  -3 -14  10    3.36    9.98
   3  14 -11    6.84   10.59
  -3  14 -11    6.88   11.72
   3  14 -13   15.94   11.22
  -3  14 -13   22.05   14.56
   3  15   0    9.12    7.98
  -3 -15   0    1.34    6.82
  -3 -15   0   36.63   10.30
   3 -15   0    5.15   12.60
  -3  15   1  167.15   62.42
  -3  15   1  129.48   47.74
   3  15  -1  192.03   71.49
   3  15  -1  118.54   29.85
  -3 -15  -1  106.19   40.25
   3  15   1   83.41   32.01
   3  15   1  142.39   52.46
  -3 -15   1  152.98   57.23
  -3 -15   1  127.06   32.06
  -3  15   2  120.15   45.27
  -3  15   2    7.69    8.32
  -3 -15  -2   12.07    8.48
  -3 -15  -2  260.34   96.51
   3  15   2   13.28    8.66
   3  15   2  260.91   96.63
  -3 -15   2   34.97   10.15
   3 -15  -2    7.11    7.66
  -3  15   3   79.09   30.41
  -3  15   3   51.41   20.84
  -3 -15  -3   75.94   29.50
  -3 -15  -3   94.76   35.66
   3  15   3   81.94   31.51
   3  15   3   76.40   29.65
   3 -15  -3   76.37   29.42
   3 -15  -3   70.30   27.23
  -3  15   4 1256.79  461.82
  -3  15   4   91.07   34.18
  -3 -15  -4   88.54   33.57
   3  15   4   62.23   24.44
   3 -15  -4 1688.77  619.99
   3 -15  -4   71.41   27.34
  -3  15   5   29.78   13.63
  -3  15   5   34.85   15.11
  -3 -15  -5   47.25   19.19
   3  15   5   50.40   19.99
   3 -15  -5   48.65   20.23
   3 -15  -5   47.21   19.48
  -3  15   6  316.67  117.27
  -3 -15  -6   34.19   14.91
   3  15   6   24.82   12.20
   3 -15   7    8.78    4.90
  -3  15  -8   67.18   33.55
  -3  15  -9    5.57    3.13
   3  15 -12   27.96   15.83
  -3  15 -12   35.96   19.19
   3  16   0   48.61   13.01
   3  16   0   15.80    9.95
  -3 -16   0   23.82   11.95
  -3 -16   0   46.40   12.60
   3 -16   0    1.90   11.44
  -3  16   1  146.88   55.25
  -3  16   1  288.33  105.05
   3  16  -1  138.12   52.05
   3  16  -1  195.37   48.77
  -3 -16  -1  200.21   74.49
   3  16   1  227.28   84.48
   3  16   1  271.63   99.15
  -3 -16   1  137.66   51.84
  -3 -16   1  255.73   63.69
  -3  16   2   99.87   38.14
  -3  16   2   74.36   28.56
   3  16  -2   53.89   14.43
  -3 -16  -2   78.49   29.58
  -3 -16  -2   28.99   14.30
   3  16   2   68.01   26.22
   3  16   2   33.23   14.94
  -3 -16   2   50.94   13.62
  -3  16   3  128.33   48.41
  -3 -16  -3  229.01   85.13
  -3 -16  -3  120.38   44.81
   3  16   3  191.34   71.27
   3  16   3  102.29   38.50
  -3  16   4    4.96    7.66
  -3  16   4   13.66    9.35
   3  16   4   30.63   14.56
   3 -16  -4    9.92    8.64
   3 -16  -4    8.38    8.37
  -3  16   5   13.47    8.99
  -3  16   5   29.59   14.05
  -3 -16  -5   31.03   13.62
   3  16   5   38.60   16.16
   3 -16  -5   17.99   10.33
   3 -16  -5   29.43   13.90
  -3 -16  -6   23.36   10.95
   3  16   6   14.01    8.67
   3 -16   8    4.58    2.86
  -3  16  -9   44.19   22.14
  -3  16 -10   26.07   13.10
   3  17   0    4.69    4.80
   3  17   0    3.13    8.01
   3  17   0    7.51   14.15
  -3 -17   0   26.61    8.51
  -3 -17   0    2.55    6.89
   3 -17   0   -0.07   12.80
  -3  17   1   19.78   11.78
   3  17  -1   20.11   11.89
   3  17  -1   19.81    6.71
  -3 -17  -1   20.29   10.78
   3  17   1   20.22   11.69
   3  17   1    4.20    8.75
  -3 -17   1   15.24   10.67
  -3  17   2    7.51    8.89
  -3  17   2   20.02   11.21
   3  17  -2    9.08    5.79
   3  17   2   13.98    9.65
   3  17   2    6.05    9.06
   3 -17  -2   23.06   12.35
  -3  17   3    4.83    7.54
   3  17   3    2.96    8.12
   3  17   3    2.98    9.21
   3 -17  -3    7.59    8.13
  -3  17   4   38.96   16.91
  -3 -17  -4   35.26   15.72
   3 -17  -4  101.02   38.52
  -3  17   5   14.94    9.53
  -3  17   5   28.55   13.02
  -3 -17  -5   19.96   10.53
   3  17   5   14.83    8.17
   3 -17  -5   41.24   17.58
  -3 -17  -6   31.84   13.40
   3  17   6   54.50   21.10
   3 -17  -6    2.01    5.76
  -3 -17  -7    1.95    7.11
   3 -17   9    4.44    2.82
  -3  17 -11    3.42    2.26
   3  18   0    2.69    5.11
   3  18   0    5.01    7.68
   3  18   0    6.55   14.01
  -3 -18   0    3.99    7.17
   3 -18   0   -1.57   11.66
  -3  18   1   38.42   16.81
   3  18  -1   44.18   18.75
  -3 -18  -1   19.24   16.31
   3  18   1   26.52   12.99
   3  18   1   30.83   13.98
  -3 -18   1   36.99   16.37
  -3 -18   1   11.08    5.33
   3 -18  -1   -0.12    7.81
  -3  18   2   29.74   13.60
   3  18  -2   23.21    8.01
  -3 -18  -2   22.00   10.97
  -3 -18  -2   22.60   10.62
   3  18   2   27.30   13.31
   3  18   2   20.54   11.04
  -3 -18   2   20.48    6.95
   3 -18  -2   27.53   12.29
  -3  18   3   40.63   16.76
  -3 -18  -3   33.59   15.38
   3  18   3   63.91   24.87
   3 -18  -3   32.05   13.95
   3 -18  -3   42.52   18.73
  -3 -18  -4  184.43   68.77
   3  18   4  201.02   75.02
   3 -18  -4  141.46   53.17
  -3 -18  -5    9.71    8.20
   3 -18  -5    5.77    6.64
   3 -18  -5    7.74    7.84
  -3  18   6   14.46    8.15
  -3  18   6    3.73    6.97
  -3 -18  -6    4.78    6.46
   3 -18  -6    6.54    6.22
   3 -18  -6   11.21    8.60
  -3 -18  -7    8.77    7.38
   3  18   7    1.63    7.15
   3 -18  10   22.13   11.22
   3  19   0    0.43    4.12
   3  19   0    1.74    6.63
   3  19   0    2.17   11.46
   3 -19   0    0.78    9.94
  -3  19   1    7.48    8.28
   3  19  -1    2.92    3.64
   3  19  -1   15.37    9.68
  -3 -19  -1    3.58   10.55
  -3 -19  -1    7.07    6.57
   3  19   1   -1.44    6.21
   3  19   1   12.73    8.89
  -3 -19   1    3.26    7.43
  -3 -19   1   12.48    4.93
   3 -19  -1    1.60    7.22
  -3  19   2    3.67    6.66
   3  19  -2    2.82    4.41
  -3 -19  -2    5.58    6.77
   3  19   2   10.13    7.09
  -3 -19   2   -0.32    4.47
   3 -19  -2    6.27    7.25
   3 -19  -2   -1.46    6.87
  -3  19   3    3.54    7.89
  -3 -19  -3    4.93    6.29
   3  19   3    6.25    5.91
   3 -19  -3    1.25    6.17
   3 -19  -3    5.68    8.13
  -3  19   4   31.52   14.62
  -3 -19  -4   32.00   14.17
  -3 -19  -4   19.47   11.22
   3  19   4   12.99    8.07
   3 -19  -4   17.34    9.31
   3 -19  -4   42.22   18.02
  -3  19   5    9.06    7.29
  -3  19   5    5.18    6.78
  -3 -19  -5    3.72    7.21
   3  19   5    7.37    5.68
   3  19   5    3.34    7.18
   3 -19  -5    9.63    7.82
   3 -19  -5    2.13    6.61
  -3  19   6   11.69    7.64
  -3  19   6   20.34   10.97
  -3 -19  -6    7.38    6.87
  -3 -19  -6    3.38    4.90
   3  19   6   11.28    7.33
   3 -19  -6   11.38    7.60
   3 -19  -6   10.68    7.86
  -3 -19  -7    6.54    6.61
   3  19   7    8.90    7.19
  -3 -19  -8    3.09    6.08
   3  20   0    3.39    6.37
   3  20   0    3.32   11.49
   3 -20   0    1.45   10.12
  -3  20   1   43.72   18.25
   3  20  -1   34.10   14.95
   3  20  -1    6.75    3.98
  -3 -20  -1    3.38    5.87
  -3 -20  -1    6.62   10.92
   3  20   1    3.52    5.51
   3  20   1    3.36    6.34
   3  20   1    6.07    5.21
  -3 -20   1   21.31   10.40
   3 -20  -1    7.39    7.73
  -3  20   2   11.38    7.78
   3  20  -2   11.12    4.90
  -3 -20  -2   32.66   14.16
   3  20   2   30.48   13.55
  -3 -20   2    6.86    4.82
   3 -20  -2   25.88   12.05
   3 -20  -2    9.19    7.83
  -3  20  -2    7.87    2.49
  -3  20   3   19.78   11.72
  -3 -20  -3   24.87   11.78
  -3 -20  -3   13.43    9.21
   3  20   3   31.39   13.77
   3 -20  -3   13.09    8.06
   3 -20  -3   31.93   14.36
  -3  20   4   10.63    7.82
  -3  20   4   14.48    9.68
  -3 -20  -4    7.99    7.22
  -3 -20  -4   14.07    9.23
   3  20   4    7.58    6.51
   3  20   4   12.65    9.55
   3 -20  -4    1.36    6.01
   3 -20  -4   25.46   12.52
  -3  20   5   55.79   22.38
  -3  20   5   11.09    7.49
  -3 -20  -5   22.94   11.02
   3  20   5   20.92   10.44
   3 -20  -5   62.25   24.56
   3 -20  -5   10.27    7.58
  -3  20   6    2.52    5.71
  -3  20   6   15.11    8.97
  -3 -20  -6    2.61    5.97
   3  20   6    1.55    5.43
  -3 -20  -7   51.82   20.32
   3  20   7   28.90   12.95
   3 -20  -7    0.53    4.78
   3 -20  -7    2.72    7.77
   3  21   0    6.82    6.82
   3  21   0   -3.40   13.67
  -3 -21   0    3.49    5.95
   3 -21   0   -6.45   11.08
  -3  21   1   23.11   11.57
   3  21  -1   31.10   13.86
   3  21  -1    5.62    3.42
  -3 -21  -1   13.28    8.06
  -3 -21  -1    3.01   11.73
   3  21   1   -1.42    6.91
   3  21   1   14.07    5.83
  -3 -21   1   12.73    7.93
  -3 -21   1    6.15    3.73
   3 -21  -1   -0.26    7.70
   3 -21   2   19.10    5.22
  -3  21   2   29.42   13.55
  -3  21   2   25.76   13.66
  -3 -21  -2    7.60    6.73
  -3 -21  -2   10.18    9.38
   3  21   2    6.64    6.45
   3 -21  -2   28.37   12.64
   3 -21  -2   31.66   14.76
  -3  21  -2   15.41    4.16
  -3  21   3    4.83    6.02
  -3  21   3    9.66    8.98
   3  21  -3   10.20    5.77
  -3 -21  -3   26.10   12.18
  -3 -21  -3   16.82   10.59
   3  21   3   32.68   14.13
   3 -21  -3    4.84    6.07
   3 -21  -3   -0.27    7.98
  -3  21   4   20.08   10.44
  -3 -21  -4   24.71   12.44
   3  21   4   21.60   10.21
   3  21   4   22.42   11.92
   3 -21  -4   21.00   10.36
  -3  21   5    5.37    6.34
  -3  21   5    6.22    7.53
  -3 -21  -5    6.10    6.24
   3  21   5    7.41    7.99
   3 -21  -5    1.89    5.50
   3 -21  -5   12.42    9.43
  -3  21   6   33.52   14.05
   3  21   6    9.04    6.56
  -3  21   7    3.87    7.43
   3  21   8   16.90    9.95
   3  22   0   -0.59    5.86
   3  22   0    0.17   14.40
  -3 -22   0    2.65    5.31
   3 -22   0    7.28   12.26
  -3  22   1   13.32    9.00
   3  22  -1   10.67    4.66
   3  22  -1   25.44   12.01
  -3 -22  -1    7.41    6.63
  -3 -22  -1   10.63   12.98
   3  22   1    7.88    8.79
   3  22   1   16.65    6.67
  -3 -22   1    8.38    6.92
  -3 -22   1   31.58    8.81
   3 -22  -1    0.07    7.29
   3 -22   2    5.20    2.30
  -3  22   2    0.50    7.88
  -3 -22  -2    4.37    6.19
  -3 -22  -2    0.43    7.79
   3  22   2    8.22    6.79
  -3 -22   2    2.50    4.27
   3 -22  -2    4.06    6.34
   3 -22  -2    1.38    7.82
  -3  22  -2    7.34    2.52
  -3  22   3    2.05    5.89
  -3  22   3    4.83    8.77
   3  22  -3    2.33    4.28
  -3 -22  -3    4.18    6.14
  -3 -22  -3    2.54    7.39
   3  22   3    6.48    6.63
   3 -22  -3    6.00    6.73
   3 -22  -3    4.77    7.76
  -3  22   4    7.95    7.23
  -3  22   4   16.52   10.23
  -3 -22  -4   16.25    9.71
   3  22   4   11.10    6.89
   3  22   4   11.04    9.14
   3 -22  -4    6.08    6.84
  -3  22   5    6.06    6.57
   3  22   5    1.92    4.77
   3  22   5   39.01   16.23
  -3  22   6    3.37    5.21
  -3  22   6    7.14    7.86
   3  22   6    9.93    7.37
  -3  22   7    3.31    5.30
   3  23   0    1.08    3.55
   3  23   0   15.06    8.85
   3  23   0   -3.44   13.70
  -3  23   0    1.20   13.54
  -3  23   1    5.51    7.55
  -3  23   1    1.72    7.43
   3  23  -1   17.22    9.69
   3  23  -1    6.60    4.05
   3  23   1    3.20    5.41
   3  23   1   11.55    5.54
   3 -23   2    6.87    2.70
  -3  23   2    5.74    8.62
   3  23  -2    5.03    4.02
   3  23   2   82.09   31.53
  -3  23   3   31.63   14.02
  -3  23   3   33.84   15.72
   3  23  -3   10.74    7.07
   3  23   3   38.82   15.97
   3  23   3   15.64    9.84
  -3  23   4   -1.10    5.93
   3  23   4    3.48    8.32
  -3  23   5   46.27   19.02
  -3  23   5   30.30   14.80
   3  23   5   16.53    8.62
   3  24   0    2.34    6.23
   3  24   0   -2.91   14.25
  -3  24   0    1.55   14.63
  -3  24   1   18.03   10.37
  -3  24   1    3.51    8.71
   3  24  -1    8.66    7.56
   3  24   1    7.68    6.36
  -3  24   2   10.11    9.04
   3  24   2    5.52    6.39
  -3  24   3    7.23    7.67
  -3  24   3    4.47    8.96
   3  24   3   16.17    8.83
   3  24   3    5.03    8.66
   4   0   0 1862.72  461.36
  -4   0   0 1952.57  483.71
  -4   0   0 2043.58  876.75
   4   0   2    5.02   14.01
  -4   0  -2   33.90   17.82
  -4   0   7  533.13  175.56
   4   0 -10   30.42   15.33
  -4  -1   0  389.25   97.14
   4  -1   0  360.33   89.86
  -4   1   0  388.67   97.12
   4  -1   1   99.26   25.71
   4   1  -1  141.46   47.05
  -4  -1  -1  112.19   41.07
  -4  -1   1  127.52   42.59
  -4   1  -1   85.87   23.19
   4   1  -2  136.74   60.27
  -4  -1  -2  189.50   50.08
  -4  -1   2  145.73   64.03
  -4   1  -2  120.04   33.78
  -4   1   8  244.80  121.99
  -4   1   8   24.51   11.12
  -4   1   9    6.91    4.10
  -4   1   9   69.96   24.36
   4  -1  -9   11.49    6.08
  -4  -1  10   66.54   33.27
   4   1 -11   41.75   20.98
  -4   2   0   86.55   31.72
   4  -2   1 2495.14  618.03
   4   2  -1 2675.99  981.81
  -4  -2  -1 2557.35  633.46
   4   2   1 2612.64  646.94
  -4  -2   1 1946.81  639.46
  -4  -2   1 2302.76  844.97
  -4   2  -1 2663.33  659.49
   4  -2   2   13.20    9.71
   4   2  -2    6.40    7.43
   4   2  -2   22.21   13.71
   4   2  -2   20.56   12.41
  -4  -2  -2   11.22   15.83
   4   2   2    1.91   12.03
  -4  -2   2   12.10    9.72
  -4  -2   2   32.12   16.51
  -4   2  -2    9.32   14.22
  -4   2  -2   26.60   13.31
  -4  -2   3  729.42  313.33
  -4   2  -3  827.80  355.26
   4  -2   4   47.06   15.92
   4   2  -4   59.50   28.65
  -4  -2   4   59.72   28.89
  -4   2  -4   21.32    9.00
  -4   2   7 1189.97  592.91
  -4   2   8    3.20    2.70
   4  -2  -8    5.61    3.55
  -4  -2  11   46.55   23.36
   4   2 -12   27.94   14.11
   4   2 -13    7.39    4.10
  -4  -3   0 2927.13  725.16
  -4  -3   0 2106.93  691.86
   4  -3   0 2667.94  660.64
  -4   3   0 2665.64  660.18
   4  -3   1  193.99   48.82
   4   3  -1  260.57   96.13
  -4  -3  -1  248.48   62.64
   4   3   1  287.87   72.04
   4   3   1  368.74  123.03
  -4  -3   1  274.51  101.22
  -4   3  -1  176.94   44.64
  -4   3   2 2392.61  877.56
   4   3   2  291.67   73.91
   4  -3  -2 3283.08 1203.80
  -4   3  -2  333.15   83.94
   4  -3   3   20.01   14.07
   4   3  -3   43.89   21.30
  -4  -3   3   47.78   23.49
  -4  -3   3   59.23   20.70
  -4   3  -3   42.48   19.65
   4   3  -4 1960.64  841.05
   4   3  -4 1421.52  464.81
  -4  -3   4 1541.32  503.75
   4  -3   5  127.64   55.96
   4   3  -5   63.45   31.01
  -4  -3   5   31.41   12.52
  -4   3  -5  313.10  135.01
  -4   3   6 3089.55 1539.02
   4   3  -6 1707.20  732.42
  -4   3  -6 2299.31  751.43
  -4   3   7   71.43   35.75
   4  -3  -7  126.37   63.05
  -4  -3  12   67.86   33.90
  -4   3  13   33.97   12.64
   4   3 -13   11.47    5.93
  -4   3  14   55.24   19.41
   4   3 -14   53.96   26.97
  -4  -4   0   58.74   16.75
  -4   4   0   56.34   21.22
   4   4  -1   20.76   10.23
  -4  -4  -1    4.66    8.36
  -4  -4  -1   10.87    7.40
   4   4   1   11.57    7.95
  -4   4  -1    2.00    6.01
  -4  -4  -2  -19.99   14.03
   4   4   2    2.07   11.48
   4   4   2   18.79    9.86
   4   4   2   22.28   14.76
  -4   4  -2   -7.46   10.68
   4  -4   3   55.21   25.69
   4   4  -3   84.48   37.89
  -4  -4  -3   92.06   32.49
   4   4   3   90.18   31.69
  -4  -4   3   24.57   15.77
  -4   4  -3   51.12   23.96
   4   4  -4   31.30   16.01
  -4  -4   4   69.44   31.53
   4  -4   5   28.23   14.43
  -4   4   5  499.14  248.60
   4   4  -5   47.15   22.12
   4   4  -5   43.28   16.13
  -4  -4   5   32.46   17.10
  -4   4  -5   36.29   17.46
   4  -4   6   12.81   12.43
  -4   4   6   24.28   12.50
   4   4  -6   26.43   17.35
   4   4  -6   30.47   13.12
  -4  -4   6   37.21   20.87
  -4  -4   6   32.62   12.86
   4  -4  -6   20.74   10.71
  -4   4  -6   30.78   11.80
  -4   4  -6   26.47   16.25
   4  -4   7   22.45   14.66
   4  -4   7  102.34   33.98
   4   4  -7   99.68   33.96
  -4  -4   7   13.14   13.90
  -4  -4   7   61.42   21.38
  -4   4  -7   18.52   13.92
   4   4  -8    1.81   12.95
   4   4  -8    5.76    8.05
  -4   4  -8    5.02    6.58
  -4  -4  13   11.54    6.05
   4   4 -14    2.97    2.07
   4   4 -15   12.94    6.66
   4   5   0  617.45  153.32
   4   5   0  855.79  314.37
  -4  -5   0  691.63  171.75
  -4  -5   0  891.84  327.73
   4  -5   0  890.69  322.78
  -4   5   0  721.13  261.26
   4  -5   1  443.74  110.19
  -4   5   1  491.19  178.21
   4   5  -1  433.02  107.78
   4   5  -1  591.76  217.61
  -4  -5  -1  457.21  113.91
   4   5   1  623.90  226.25
  -4  -5   1  506.75  186.50
  -4  -5   1  455.48  113.38
   4  -5  -1  533.59  193.53
  -4   5   2  285.91  105.42
  -4  -5  -2  191.34   49.51
  -4  -5  -2  166.45   60.97
   4   5   2  287.18   73.11
   4   5   2  149.99   55.01
  -4   5   4  122.22   60.98
   4   5  -4  114.70   50.51
  -4   5  -4   31.99   16.63
  -4   5   5   96.32   48.12
  -4  -5  -5  109.90   37.17
  -4  -5   5  112.47   49.35
   4  -5  -5  131.79   65.74
  -4   5  -5  162.54   70.36
   4  -5   6  991.14  425.19
   4   5  -6  759.71  248.71
  -4  -5   6  945.99  405.95
  -4  -5   6 1019.25  333.50
  -4   5  -6  858.90  368.51
   4  -5   7   34.11   12.23
   4   5  -7   42.47   15.41
  -4  -5   7   15.01    8.27
   4  -5   8   18.28   12.93
   4  -5   8    5.42    4.81
   4   5  -8   -0.89    9.86
   4   5  -8   15.30    9.52
   4  -5   9    4.31   10.01
   4  -5   9    2.95    4.25
   4   5  -9   -2.19    9.72
   4   5  -9    3.05    6.60
  -4  -5   9  -11.11   11.80
  -4  -5   9    1.05    6.00
  -4   5  -9    0.07    7.70
  -4   5  -9    5.37    5.00
   4   5 -10 1186.51  509.17
   4   5 -10  459.05  150.80
  -4  -5  14    6.47    3.68
   4   6   0   90.50   34.12
   4   6   0   73.10   19.31
  -4  -6   0   66.21   17.84
  -4   6   0  125.11   45.88
   4  -6   1   12.72    5.35
   4   6  -1   10.88    8.10
   4   6  -1    8.80    6.02
  -4  -6  -1   16.83    7.46
  -4  -6   1   15.62    9.19
  -4  -6   1    7.57    6.31
   4  -6  -1   18.01    9.07
  -4   6  -1   20.11    6.75
  -4   6   2   13.65    7.76
  -4  -6  -2    4.50    9.92
  -4  -6  -2    9.09    7.78
   4   6   2    7.51    7.64
   4  -6  -2   12.20    7.99
  -4   6  -2    5.64    7.67
  -4   6   3  293.40  146.19
  -4   6   3  117.39   43.61
  -4  -6  -3   99.10   36.74
   4  -6  -3   77.57   29.23
   4  -6  -3  180.16   89.81
  -4   6   4   12.65    7.01
   4  -6  -4    8.57    5.18
   4  -6   5   20.92   12.42
  -4  -6   5   50.24   23.91
  -4   6  -5   60.82   28.10
  -4  -6  -6   25.95   11.99
  -4  -6   6   95.13   42.16
  -4   6  -6   68.41   30.70
   4  -6   7   92.39   40.86
   4   6  -7  200.44   66.31
   4   6  -7  128.22   56.17
  -4  -6  -7  194.45   64.62
  -4  -6   7   78.13   35.03
  -4  -6   7  239.15   78.94
  -4   6  -7   82.94   36.75
   4   6  -8   17.95   10.36
   4   6  -8   10.79    6.82
   4   6   8   24.48   10.76
  -4  -6   8    4.44    7.89
   4  -6   9   31.70   17.67
   4   6  -9   44.59   21.56
   4   6  -9   81.74   27.95
  -4  -6   9   67.97   31.74
  -4  -6   9   66.83   23.30
  -4   6  -9   49.57   23.45
  -4   6  -9   78.06   26.31
   4  -6  10  103.65   46.61
   4  -6  10   18.20    8.42
   4   6 -10   23.12   10.83
  -4  -6  10   33.05   20.16
  -4  -6  10   64.19   22.53
  -4   6 -10   54.06   26.60
   4  -6  11   19.08    8.11
   4   6 -11   47.24   23.66
   4   6 -11   26.35   11.26
  -4  -6  11   50.76   26.71
  -4  -6  11   14.08    8.18
  -4   6 -11   23.75   15.45
   4   6 -12   25.39   14.86
   4   6 -12   52.79   19.08
  -4   6 -12   21.47    8.80
   4   7   0 2696.73  989.30
   4   7   0 1924.92  476.91
  -4  -7   0 3230.09 1185.36
  -4  -7   0 2014.78  499.03
   4  -7   0 1371.98  497.18
   4  -7   1   63.67   16.20
  -4   7   1   79.82   29.93
   4   7  -1   69.81   18.37
   4   7  -1  102.47   38.75
  -4  -7  -1   36.41   15.40
  -4  -7   1  106.84   40.27
   4  -7  -1   90.52   33.89
  -4   7  -1   74.52   18.89
  -4   7   2 1914.55  702.69
  -4   7   2 1437.65  716.29
   4  -7  -2 1779.77  653.05
   4  -7  -2 1366.22  680.57
  -4   7   3   28.60   14.63
   4   7   3   19.27    9.32
   4  -7  -3   38.45   15.71
   4  -7  -3   33.93   17.21
  -4  -7   5    3.32   11.80
   4  -7   6  298.82  128.79
   4   7  -6  424.96  182.81
  -4  -7   6  435.56  187.31
  -4   7  -6  477.83  205.39
   4   7  -7   23.59   13.60
  -4  -7   7   47.24   22.60
  -4   7  -7   75.18   33.73
   4  -7   8  567.45  243.64
  -4  -7  -8  572.87  188.80
  -4  -7   8  516.89  221.98
  -4  -7   8  513.54  168.41
   4   7  -9   27.28   14.23
   4   7  -9   21.92    9.92
  -4  -7  -9   24.36   10.17
  -4  -7   9   28.72   15.16
  -4  -7   9   13.59    8.03
  -4   7  -9   18.90   11.26
   4  -7  10  360.67  155.63
   4  -7  10  367.93  120.73
   4   7 -10  440.17  189.50
   4   7 -10  500.41  164.15
   4   7  10  322.90  106.61
  -4  -7  10  372.43  160.69
  -4  -7  10  337.64  111.14
   4  -7  11   -3.81   11.53
   4  -7  11    4.73    5.01
   4   7 -11   35.23   18.78
   4   7 -11    2.77    6.27
  -4  -7  11    0.06    5.34
  -4   7 -11   57.22   27.49
   4  -7  12    9.75   12.03
  -4  -7  12    4.19   12.84
  -4  -7  12   13.64    7.30
  -4   7 -12    5.83   10.09
  -4   7 -12    5.66    4.95
   4  -7  13    2.14    4.45
   4   7 -13   -0.49    8.04
   4   7 -13    2.15    5.10
  -4  -7  13    8.99   12.19
  -4  -7  13    0.05    4.99
  -4   7 -13   14.87   12.49
   4   7 -14  117.62   51.50
   4   8   0  198.25   49.64
  -4  -8   0  206.78   51.75
  -4  -8   0  203.21   75.37
   4  -8   0  140.31   69.96
   4  -8   0  143.77   52.93
  -4   8   0  102.77   38.16
   4  -8   1  846.92  209.77
  -4   8   1 1346.64  670.44
   4   8  -1  945.65  234.43
   4   8  -1 1069.36  392.70
  -4  -8  -1 1016.03  368.28
   4   8   1  717.10  178.09
   4   8   1  731.61  265.41
  -4  -8   1 1134.91  416.78
  -4  -8   1  879.52  217.95
  -4   8  -1  733.22  181.66
  -4   8   2  157.24   78.41
  -4   8   2  156.43   57.24
  -4  -8  -2   66.10   20.31
  -4  -8  -2  143.19   52.71
   4   8   2  119.46   44.37
   4  -8  -2  165.42   82.48
   4  -8  -2   87.56   33.29
   4  -8  -2  175.56   64.12
  -4   8  -2   29.74    9.32
  -4  -8  -3 3757.69 1360.47
   4  -8  -3 3447.81 1264.85
   4  -8   6   67.91   31.30
   4   8  -6   86.60   39.11
  -4  -8   6   79.70   36.46
  -4   8  -6   75.03   33.74
   4  -8   7 2999.70 1286.74
   4   8  -7 3511.17 1505.61
  -4  -8   7 4514.52 1935.29
  -4   8  -7 5416.51 2322.35
   4   8  -8   55.59   25.42
  -4  -8   8   61.62   27.96
  -4   8  -8   70.13   31.15
   4  -8   9  139.97   61.20
   4   8  -9  133.52   58.37
  -4  -8   9  142.85   62.45
  -4  -8   9  158.85   52.91
   4  -8  10   58.19   26.90
   4   8 -10    7.19    9.91
   4   8 -10   13.74    7.89
  -4  -8  10    8.29   11.22
  -4  -8  10   18.70    9.50
  -4   8 -10   28.99   15.31
   4  -8  11    7.88   11.49
   4  -8  11   16.67    7.88
   4   8 -11   22.84    9.65
  -4  -8 -11   48.49   17.10
  -4  -8  11   19.25    9.10
  -4   8 -11    3.36    7.04
   4  -8  12    1.50   12.20
   4  -8  12   31.53   11.92
   4   8 -12    2.09    8.61
   4   8 -12   24.18   10.02
  -4  -8  12    8.73   13.31
  -4  -8  12   20.74    9.05
  -4   8 -12   15.68   12.49
  -4   8 -12   23.28    9.17
   4  -8  13   83.32   37.95
   4  -8  13  211.73   69.89
   4   8 -13  113.86   50.13
   4   8 -13  137.55   45.85
  -4  -8  13  162.77   71.44
  -4   8 -13  112.74   50.19
  -4   8 -13  145.27   48.07
   4  -8  14    0.93    4.31
   4   8 -14    0.22    7.66
  -4  -8  14    1.43    5.31
  -4   8 -14    7.68   10.57
  -4   8 -14    4.45    4.62
   4   8 -15   93.87   41.74
  -4   8 -15   68.89   32.49
   4   8 -16   10.32    6.75
  -4   8 -16   19.94    8.43
   4   9   0   47.07   12.87
  -4  -9   0   43.00   12.26
  -4  -9   0   59.52   23.47
   4  -9   0   61.12   30.61
   4  -9   0   40.74   16.28
  -4   9   0  111.61   55.71
  -4   9   0   34.03   14.17
   4  -9   1    2.45    2.64
  -4   9   1   17.80    9.42
  -4   9   1    6.64    7.51
  -4  -9  -1    5.41    6.49
  -4  -9  -1    8.89    8.33
   4   9   1    7.19    7.42
   4   9   1    2.01    5.77
  -4  -9   1    1.70    4.90
   4  -9  -1    6.36    7.66
  -4   9  -1    0.68    2.83
  -4   9   2   14.31    8.99
  -4   9   2   27.37   11.81
  -4  -9  -2  234.54   59.43
  -4  -9  -2    8.77    7.27
   4  -9  -2   27.29   11.78
  -4   9  -2  229.47   57.17
  -4   9   3    7.25    6.52
  -4  -9  -4  124.87   46.10
   4   9   4  109.53   40.63
   4  -9  -4   75.12   28.53
   4  -9   7    7.71    8.91
   4   9  -7   20.18   13.28
  -4  -9   7    6.51    9.22
  -4   9  -7   11.77    9.83
   4  -9   8    8.67    9.61
   4   9  -8    5.24    9.21
  -4  -9   8   -1.69   10.02
  -4   9  -8    7.09    8.88
   4   9  -9   20.34   12.84
  -4  -9   9   18.43   13.86
  -4   9  -9   22.76   13.57
   4  -9  10   36.75   18.53
   4   9 -10    6.73    9.85
  -4  -9  10   20.40   13.81
  -4   9 -10   11.81   10.18
   4  -9  11   21.20   12.69
   4   9 -11   15.44   10.49
   4   9 -11    5.36    5.66
  -4  -9  11   21.82   13.70
  -4  -9  11    6.17    6.54
  -4   9 -11   16.97   11.45
   4  -9  12    7.20    5.51
   4   9 -12    7.87    7.75
   4   9 -12    3.51    5.38
  -4  -9  12    1.83    9.04
   4  -9  13   10.20   12.18
   4  -9  13    7.35    6.05
  -4  -9 -13    8.56    5.67
  -4  -9  13    1.10    4.95
  -4  -9  13   -5.02   12.23
  -4   9 -13    3.43    4.28
   4   9 -14   23.86   13.21
   4   9 -14   16.99    8.00
  -4  -9  14   26.82   11.04
  -4   9 -14   25.53   15.41
   4   9 -15    2.13    7.59
   4   9 -15    5.37    5.50
  -4   9 -15    3.18    4.06
   4  10   0  124.64   31.51
   4  10   0  119.23   44.75
  -4 -10   0  103.96   39.28
  -4 -10   0  133.17   33.50
   4 -10   0  100.53   37.14
   4 -10   0  158.62   79.08
  -4  10   0   84.77   31.55
  -4  10   0  134.90   67.27
   4 -10   1   45.27   11.59
  -4  10   1   61.99   23.71
   4  10  -1   27.01    8.56
  -4 -10  -1   51.10   19.84
   4  10   1   48.66   19.42
   4  10   1   44.74   12.68
   4  10   1   46.72   18.49
   4 -10  -1   50.20   19.51
  -4  10  -1   35.76    9.40
  -4  10   2   31.70   13.59
  -4  10   2   28.37   12.14
  -4 -10  -2   12.66    7.37
  -4 -10  -2   32.85   12.52
   4  10   2   23.55   10.53
  -4  10  -2   21.40    6.93
  -4  10   3  117.50   43.97
  -4 -10  -3  621.25  225.33
   4  10   3  255.27   93.06
   4 -10  -3   90.06   34.04
  -4  10   4   27.15   11.53
   4  10   4   52.06   20.11
   4 -10  -4   18.58    9.49
   4  10  -8    7.49   12.51
  -4  10  -8   29.96   17.34
   4 -10   9  365.51  157.47
   4  10  -9  320.25  138.12
  -4 -10   9  383.25  165.07
  -4  10  -9  538.08  231.32
   4  10 -10   37.97   19.05
  -4 -10  10   26.30   16.67
  -4  10 -10   35.13   18.14
   4 -10  11   60.26   27.59
   4  10 -11   27.83   14.72
  -4  10 -11   97.27   43.00
   4 -10  12   28.07   14.88
   4  10 -12   30.72   15.39
  -4 -10  12   28.42   15.57
  -4 -10  12   51.91   18.57
  -4  10 -12   33.56   16.75
   4 -10  13    6.35    4.93
   4  10 -13    9.19    8.13
   4  10 -13    4.34    5.30
  -4 -10  13   10.45    6.61
  -4  10 -13   10.24    9.43
   4  10 -14    3.63    4.80
  -4 -10  14    2.89    5.57
  -4  10 -14    5.38    7.68
  -4  10 -14    8.78    5.04
   4  10 -15   -1.06    8.51
   4  10 -15    5.22    5.15
  -4  10 -15    1.53   11.50
  -4  10 -15    3.05    4.01
   4  11   0   87.55   33.29
   4  11   0  368.85   91.73
  -4 -11   0  542.00  134.44
  -4 -11   0  198.94   73.81
   4 -11   0   80.33   30.12
  -4  11   0   57.53   21.99
   4 -11   1   14.75    7.79
   4 -11   1    1.98    2.36
  -4  11   1   12.43    7.73
   4  11  -1    1.60    3.94
  -4 -11  -1   16.90    9.29
  -4 -11  -1    5.60    6.38
   4  11   1   18.59    9.42
   4  11   1    2.31    6.65
   4  11   1    3.34    5.45
  -4 -11   1    8.38    7.56
  -4 -11   1    2.63    4.53
  -4  11  -1   10.03    5.62
  -4  11   2  102.79   38.76
  -4  11   2   64.24   24.54
  -4 -11  -2  418.97  104.70
   4 -11  -2   71.18   27.00
   4 -11  -2   87.05   33.05
  -4  11  -2  429.11  106.52
  -4  11  -2   84.88   42.39
  -4  11   3    6.32    6.35
  -4  11   3   31.09   13.65
   4  11   3    5.45    6.79
   4 -11  -3    1.52    6.27
   4 -11  -3   15.02    8.13
  -4  11   4   15.87    8.22
  -4 -11  -4   41.60   16.54
   4  11   4   21.99   10.05
  -4 -11  -5    4.26    6.12
   4 -11   8  302.39  130.64
  -4 -11   8  148.49   65.35
   4 -11   9   16.52   12.59
   4  11  -9    1.89   12.72
  -4 -11   9   10.55   12.37
   4  11 -10    4.94    9.52
  -4 -11  10    2.54   11.50
  -4  11 -10    1.39    9.56
   4  11 -11   18.24   10.77
  -4 -11  11   24.80   15.44
  -4  11 -11    8.77    8.97
   4 -11  12    6.64    8.13
   4  11 -12    7.54    8.14
  -4  11 -12    4.71    7.95
   4  11 -13    7.53    6.47
  -4 -11  13    5.52    5.80
  -4  11 -13    6.40    7.76
   4  11 -14    8.56    8.29
   4  11 -14    0.74    4.49
  -4 -11  14    1.76    5.93
  -4  11 -14    7.35    9.17
   4  11 -15    2.00    4.66
   4  12   0  129.37   48.53
  -4 -12   0   83.39   21.52
  -4 -12   0  139.28   52.01
  -4  12   0  152.98   56.17
  -4 -12  -1  682.19  250.90
   4  12   1 2071.22  750.27
   4  12   1  802.57  295.02
   4  12   1 1606.98  398.00
  -4 -12   1 1685.31  618.72
   4 -12  -1 1305.17  473.11
   4 -12   2   10.53    5.81
  -4  12   2   27.09   12.37
  -4 -12  -2    8.80    7.26
  -4 -12  -2    9.69    8.39
   4  12   2    4.82    6.20
   4 -12  -2   11.53    8.71
  -4  12  -2   11.08    5.99
  -4  12   3  633.81  233.04
   4 -12  -3  589.92  217.03
   4 -12  -3  555.24  201.48
  -4  12  -3  379.11  188.80
  -4  12   4   27.85   11.99
  -4 -12  -4   24.41   11.23
   4  12   4   20.56   10.09
   4 -12  -4   21.70   10.68
  -4 -12  -5  323.59  117.85
   4  12   5  263.56   96.12
   4 -12   9  111.66   49.75
   4  12  -9  197.79   86.07
  -4 -12   9   83.02   38.35
  -4  12  -9  188.34   82.09
   4 -12  10    1.09    8.90
  -4 -12  10    0.52    9.92
   4  12 -11   10.84   10.03
  -4  12 -11   15.69   11.28
   4  12 -12    2.79    7.08
  -4  12 -12   10.03    9.69
   4  12 -13   45.54   21.53
  -4  12 -13   44.58   21.15
  -4  12 -14    1.69    7.95
   4  13   0 3135.63 1150.58
   4  13   0 1907.64  472.30
   4  13  -1  132.25   33.26
  -4 -13  -1  306.65  113.26
   4  13   1  284.76  105.19
   4  13   1  182.81   45.99
   4  13   1  171.29   62.70
  -4 -13   1  227.63   84.37
   4 -13  -1  154.47   56.68
  -4 -13  -2 3031.96 1112.79
  -4 -13  -2 4248.42 1539.02
   4  13   2 3474.31 1275.21
   4  13   2 3124.11 1131.80
   4 -13  -2 3657.47 1342.03
   4 -13   3   23.30   11.87
  -4  13   3    3.06    6.56
  -4  13   3    7.62    7.27
  -4 -13  -3    3.27    8.08
   4  13   3   20.97    9.74
   4  13   3    2.11    9.24
   4 -13  -3    5.02    6.54
  -4  13  -3   23.07   11.76
  -4  13   4 1994.04  732.07
  -4  13   4  584.62  212.31
  -4 -13  -4  853.26  309.65
   4  13   4 1032.04  374.04
   4 -13  -4 3055.00 1121.09
   4 -13  -4  690.37  250.56
  -4  13  -4 1274.06  634.27
  -4  13   5   11.24    7.53
   4  13   5   35.07   14.85
   4 -13  -5   10.05    7.59
   4 -13  10   42.03   21.33
   4  13 -10   94.21   42.10
  -4 -13  10   57.48   27.65
  -4  13 -10   62.84   29.42
   4 -13  11  335.91  145.04
   4  13 -11  192.72   83.83
  -4 -13  11  569.64  245.03
   4  13 -12   58.45   26.69
  -4  13 -12   60.74   27.90
   4  13 -13   -1.02    6.78
  -4  13 -13   -0.36    7.75
   4  14   0    0.90    4.10
  -4 -14   0    5.56    7.47
  -4  14   0   10.41    8.21
  -4  14   1   29.31   13.13
   4  14  -1    7.50    7.15
   4  14   1   34.18   14.50
   4  14   1    9.63    7.79
   4  14   1    2.54    5.32
  -4 -14   1    4.52    7.21
  -4 -14   1    1.08    4.80
   4 -14  -1   14.72    9.14
   4  14  -2   19.51    7.51
  -4 -14  -2   18.09   10.01
   4  14   2   23.11   11.20
   4  14   2   18.83   10.91
  -4 -14   2   16.24    6.93
   4 -14  -2   14.99    9.66
   4 -14  -2   11.06    9.32
  -4  14   3    8.23    7.26
  -4  14   3    7.87    7.01
  -4 -14  -3    9.15    8.24
   4  14   3    8.86    8.66
   4 -14  -3    3.25    5.79
   4 -14   4    1.86    2.58
  -4  14   4    3.91    6.80
  -4  14   4    0.46    6.87
  -4 -14  -4    4.61    8.19
   4  14   4    5.13    8.28
   4 -14  -4    5.42    7.61
   4 -14  -4    2.94    6.18
  -4  14  -4    2.73    2.75
  -4  14   5   70.59   27.53
  -4 -14  -5   46.04   18.66
   4 -14  -5   50.84   20.83
  -4  14  -5   52.43   26.30
  -4 -14  -6   21.08   11.35
   4 -14  10    4.67    9.28
  -4 -14  10   -7.20    9.78
   4  14 -11   18.04   13.09
  -4  14 -11   -0.97   11.04
   4  14 -12   -2.23    6.55
  -4  14 -12    1.21    7.75
   4  15   0  612.50  151.94
  -4 -15   0  627.47  230.86
   4 -15   0  842.20  305.85
  -4  15   0  928.94  336.84
  -4  15   1   -0.64    7.01
   4  15  -1    0.61    6.40
  -4 -15  -1    2.68    6.65
   4  15   1    1.43    6.28
  -4 -15   1   -2.75    7.01
  -4 -15   1    5.31    4.86
   4 -15  -1    5.72    7.09
  -4  15   2   91.26   34.92
  -4  15   2  153.44   56.85
   4  15  -2   57.29   15.51
  -4 -15  -2   89.00   34.13
  -4 -15  -2   80.84   30.57
   4  15   2   75.87   28.91
  -4 -15   2   62.53   16.59
   4 -15  -2  107.58   40.71
   4 -15  -2   95.97   36.09
  -4 -15  -3   31.55   14.12
  -4 -15  -3   30.25   13.63
   4  15   3   28.94   13.44
   4 -15  -3   24.50   11.66
   4 -15  -3   26.75   13.20
  -4  15   4   19.23   10.48
  -4 -15  -4   70.28   27.04
   4  15   4   75.82   29.39
   4 -15  -4   53.53   21.31
   4 -15  -4   32.58   14.75
   4 -15   5   37.38   18.88
  -4  15   5   29.71   13.67
  -4 -15  -5   37.00   15.62
   4  15   5   30.05   13.89
   4 -15  -5    6.81    8.69
  -4 -15  -6  142.73   52.82
   4  15   6  178.67   65.88
  -4  15  -6  457.09  227.63
   4  15 -12   16.32   12.29
  -4  15 -12   -2.94   10.86
   4  16   0  213.23   53.31
   4  16   0  283.61  104.96
  -4 -16   0  307.69  113.83
  -4 -16   0  186.15   46.68
   4 -16   0  269.55   99.17
  -4  16   0  281.08  102.56
  -4  16   1  712.03  258.38
   4  16  -1  528.98  131.33
   4  16  -1  566.76  208.74
  -4 -16  -1  664.33  244.45
  -4 -16  -1  434.52  108.39
  -4 -16  -1  684.84  249.17
   4  16   1  575.75  211.96
   4  16   1  807.29  292.94
  -4 -16   1  471.03  173.60
  -4 -16   1  530.94  131.79
  -4  16   2   24.69   11.95
  -4  16   2   19.56   11.31
   4  16  -2   25.24    8.75
  -4 -16  -2   12.16    9.16
   4  16   2   48.74   19.87
   4  16   2    4.64    7.76
  -4 -16   2   39.59   11.59
   4 -16  -2   28.89   13.71
   4 -16  -2   26.77   12.79
  -4  16   3  423.12  154.01
  -4 -16  -3  446.04  164.50
   4  16   3  464.12  171.06
   4  16   3  778.72  282.57
   4 -16  -3  634.27  233.51
   4 -16  -3  563.42  204.70
  -4  16   4   27.58   13.02
   4  16   4    9.94    7.58
   4  16   4   20.78   11.50
   4 -16  -4   15.68    9.77
   4 -16  -4   15.55   10.00
   4 -16   5   16.22    8.50
  -4  16   5   21.69   11.80
  -4 -16  -5    9.12    7.51
   4  16   5   10.85    7.83
   4 -16  -5    7.54    8.59
   4 -16  -5   13.54    9.92
   4 -16   6    8.16    4.63
   4  16   6    4.58    7.34
   4 -16  -6    6.52    7.24
  -4 -16  -7   26.66   12.07
  -4  16  -7   56.02   28.03
   4  17   0    6.23    8.74
  -4 -17   0    4.10    4.63
  -4 -17   0   10.60    9.25
   4 -17   0   10.47   15.01
  -4  17   1   28.26   14.07
   4  17  -1   38.29   10.85
   4  17  -1   32.55   15.39
  -4 -17  -1   43.41   18.60
  -4 -17  -1   48.04   24.27
  -4 -17  -1   67.11   18.73
   4  17   1   48.36   20.22
  -4 -17   1   19.48   11.57
  -4 -17   1   32.09    9.40
  -4  17   2   44.35   18.83
  -4  17   2  103.67   39.11
  -4 -17  -2  103.00   39.51
   4  17   2  115.31   43.89
   4  17   2   60.28   24.03
  -4  17   3    7.99    7.60
  -4  17   3   16.18   10.44
  -4 -17  -3   10.22    9.27
   4  17   3    9.11    8.46
   4  17   3   16.92   10.66
   4 -17  -3    7.27    8.43
  -4  17   4    7.65    7.09
  -4  17   4    6.80    7.36
   4 -17  -4   11.99    8.76
   4 -17  -4   23.48   11.25
  -4  17   5    4.80    7.05
  -4  17   5    1.29    6.43
  -4 -17  -5    4.92    6.75
   4  17   5    1.88    5.69
   4 -17  -5    9.74    8.15
   4 -17  -5    2.85    7.24
   4 -17   6  132.13   65.89
  -4  17   6   96.02   36.28
  -4 -17  -6   67.78   25.92
   4 -17  -6   84.85   32.36
   4 -17   7   12.11    6.42
  -4 -17  -7    9.19    7.64
   4  17   7    6.65    7.13
  -4  17  -8   11.77    6.18
  -4  17  -9    2.33    2.01
   4  18   0   77.01   29.78
  -4 -18   0   48.30   19.68
  -4 -18   0   62.16   16.48
   4 -18   0  147.11   55.47
  -4  18   1  462.39  168.07
   4  18  -1  453.88  167.38
   4  18  -1  305.15   76.02
  -4 -18  -1  309.65  114.58
  -4 -18  -1  396.27  144.92
  -4 -18  -1  293.86   73.82
   4  18   1  305.27  113.01
  -4 -18   1  452.15  166.68
  -4  18   2   27.72   12.79
  -4  18   2   33.31   14.62
   4  18  -2   25.27    8.36
  -4 -18  -2   60.42   24.29
   4  18   2   38.76   17.05
  -4 -18   2   26.50    8.35
   4 -18  -2   40.79   17.07
  -4  18   3  109.41   41.42
   4  18   3   96.98   37.16
   4 -18  -3  166.80   62.31
   4 -18  -3  178.32   66.47
  -4  18   4    6.75    7.11
  -4  18   4    7.23    6.78
  -4 -18  -4    0.38    5.17
  -4 -18  -4    4.41    8.49
   4 -18  -4   27.81   12.90
   4 -18  -4    7.43    7.58
  -4  18   5  490.27  180.62
  -4  18   5  150.68   55.63
  -4 -18  -5  125.34   46.57
   4 -18  -5  321.63  118.88
   4 -18  -5  142.96   52.87
  -4  18   6    7.14    6.54
  -4 -18  -6    1.53    6.15
   4  18   6    5.10    6.32
   4 -18  -6    7.06    6.49
   4 -18  -6    4.46    7.94
   4 -18   7  644.64  321.05
  -4 -18  -7  408.37  148.61
   4  18   7  369.08  134.55
   4 -18   8    6.87    3.97
  -4  18  -9   57.13   28.57
  -4  18 -10    5.48    3.18
   4  19   0    0.81    6.12
  -4 -19   0    1.87    7.05
  -4 -19   0    7.25    4.58
   4 -19   0   12.06   11.52
   4  19  -1   -0.68    6.93
  -4 -19  -1    2.15    6.75
  -4 -19  -1    3.79   10.81
   4  19   1    2.39    6.86
  -4 -19   1    5.43    7.24
  -4  19   2    5.95    7.47
   4  19  -2    4.36    4.64
  -4 -19  -2   -0.29    6.36
   4  19   2    8.13    7.23
  -4 -19   2    2.53    4.76
   4 -19  -2    3.89    6.78
  -4  19   3    2.80    6.30
  -4 -19  -3    3.18    5.36
  -4 -19  -3    1.87    6.84
   4  19   3    4.13    5.82
   4 -19  -3    1.79    6.08
   4 -19  -3    3.05    8.89
  -4  19   4   23.67   11.31
  -4 -19  -4    5.45    6.59
  -4 -19  -4    3.02    7.67
   4  19   4    5.99    8.33
   4 -19  -4    8.54    6.70
   4 -19  -4   11.07    9.14
  -4  19   5    1.50    5.73
  -4  19   5    3.00    6.56
  -4 -19  -5    3.21    7.20
   4  19   5    3.28    7.10
   4 -19  -5   -1.33    5.98
   4 -19  -5    2.88    6.56
  -4  19   6   22.26   10.75
  -4  19   6    5.86    7.32
  -4 -19  -6    4.71    5.88
   4  19   6    4.65    6.35
   4 -19  -6    9.11    8.06
   4  19   7    1.51    6.45
   4 -19  -7    4.14    5.67
   4 -19   8   22.29   11.37
  -4 -19  -8   10.75    8.25
   4 -19   9    8.76    4.81
  -4  19 -10    4.55    2.98
   4  20   0   10.54    7.45
   4  20   0   18.58    6.14
  -4 -20   0   29.44   13.10
  -4 -20   0   13.40    5.64
   4 -20   0   16.01   12.43
   4  20  -1   47.50   13.03
   4  20  -1   25.33   11.88
  -4 -20  -1   23.72    8.73
  -4 -20  -1   25.79   15.18
  -4 -20  -1   39.80   16.53
   4  20   1   40.23   16.73
  -4 -20   1   36.38   15.11
  -4 -20   1   28.25    8.48
   4 -20  -1   19.24   10.65
  -4  20   2    7.50    7.23
   4  20  -2    0.82    3.83
  -4 -20  -2    0.18    7.42
  -4 -20  -2   17.10    8.74
   4  20   2   14.92    8.57
  -4 -20   2   10.45    5.73
   4 -20  -2    4.66    6.16
   4 -20  -2    1.30    7.19
  -4  20   3   41.08   17.03
  -4  20   3   28.38   14.32
   4  20  -3   13.71    6.38
  -4 -20  -3   37.99   15.89
  -4 -20  -3   28.19   13.04
   4 -20  -3   50.69   20.30
   4 -20  -3   50.19   20.57
  -4  20   4    4.20    6.42
  -4  20   4    6.78    8.88
  -4 -20  -4   13.19    8.20
  -4 -20  -4   12.18    8.90
   4  20   4   13.17    7.95
   4  20   4   14.69   10.32
   4 -20  -4    5.02    5.92
   4 -20  -4    7.12    8.06
  -4  20   5   71.94   27.90
  -4  20   5   26.15   12.26
   4  20   5   47.79   19.11
   4  20   5   72.87   27.95
   4 -20  -5   24.89   11.66
  -4  20   6    5.73    6.14
  -4  20   6   10.16    8.77
   4  20   6   -0.01    5.87
   4 -20  -6    0.43    5.24
  -4 -20  -7    5.46    6.78
   4  20   7   12.93    7.74
   4  20   8    1.91    6.32
   4 -20   9   47.69   23.96
   4  21   0    4.42    3.35
   4  21   0   31.84   13.81
   4  21   0    0.24   12.60
  -4 -21   0   23.07   11.01
  -4 -21   0    5.51    3.89
   4 -21   0   10.72   12.59
   4  21  -1   13.13    4.71
   4  21  -1    3.89    6.03
  -4 -21  -1    9.61    5.88
  -4 -21  -1    2.71   11.95
   4  21   1    5.39    6.28
  -4 -21   1    2.16    5.80
  -4 -21   1   12.29    4.83
   4 -21  -1    1.74    8.57
  -4  21   2   43.42   18.15
  -4 -21  -2   43.03   18.75
  -4 -21  -2   85.29   32.72
  -4 -21  -2  201.71   51.41
   4  21   2   93.19   35.57
   4 -21  -2   41.44   17.15
   4 -21  -2   57.92   23.30
  -4  21   3    4.79    6.52
  -4  21   3    1.73    8.98
   4  21  -3    3.99    4.92
  -4 -21  -3    3.56    7.92
  -4 -21  -3    3.64    6.14
   4  21   3    3.87    5.93
   4 -21  -3    4.34    6.09
   4 -21  -3    2.89    8.08
  -4  21   4   48.82   19.97
  -4  21   4   39.04   16.73
  -4 -21  -4   21.81   10.65
  -4 -21  -4   25.45   12.59
   4  21   4   10.58    7.14
   4  21   4   33.20   15.40
  -4  21   5    5.72    6.43
  -4  21   5    3.19    6.55
   4  21   5    3.75    4.43
   4  21   5   19.86   10.45
   4 -21  -5    2.22    5.40
  -4  21   6   38.53   16.15
  -4 -21  -6   18.62   10.65
   4  21   6   31.07   13.02
  -4  21   7    9.54    6.76
   4  21   7    4.13    6.33
   4  21   8   97.51   37.00
   4  22   0    8.12    4.15
   4  22   0    0.11    5.65
   4  22   0  164.73   62.36
  -4 -22   0    2.15    5.23
   4 -22   0   67.92   28.26
   4  22  -1    9.93    4.22
   4  22  -1    6.38    6.09
  -4 -22  -1    4.00   11.53
  -4 -22  -1    5.14    5.63
   4  22   1    5.97    6.34
  -4 -22   1    2.03    5.89
  -4 -22   1    6.15    4.14
   4 -22  -1    2.95    7.75
  -4  22   2   -0.43    6.45
   4  22  -2   10.85    5.07
  -4 -22  -2    3.03    6.09
  -4 -22  -2   -3.61    8.70
  -4 -22   2    3.90    4.61
   4 -22  -2    4.04    6.33
   4 -22  -2    3.21    7.60
  -4  22   3   27.85   12.87
  -4  22   3   33.30   15.18
  -4 -22  -3   26.32   12.59
  -4 -22  -3   49.82   20.06
   4  22   3   37.07   15.52
   4  22   3   30.29   14.57
   4 -22  -3   48.62   19.77
   4 -22  -3   35.64   15.83
  -4  22   4    4.65    6.49
  -4  22   4    9.52    9.00
   4  22   4    3.69    5.40
   4  22   4   -2.79    7.61
  -4  22   5   10.59    7.33
  -4  22   5   39.56   16.58
   4  22   5   26.26   11.40
  -4  22   6    3.35    5.79
   4  23   0   76.62   29.57
   4  23   0  133.98   33.76
   4  23   0    5.70   13.80
   4  23  -1    3.17    6.11
   4  23  -1    7.69    4.10
   4  23   1    6.40    6.26
  -4  23  -1   11.37   15.78
  -4  23   2   90.88   35.04
  -4  23   2  111.73   42.28
   4  23  -2  229.82   57.49
   4  23   2  137.09   51.42
  -4  23   3   -1.72    6.18
  -4  23   3    5.99    9.49
   4  23   3    7.22    6.27
   4  23   3    1.58    8.06
  -4  23   4    8.99    7.59
   4  23   4   13.16    8.04
   4  23   4   16.16   10.53
   4  24   0    4.14    6.62
   4  24   0  261.95   97.14
   4  24  -1    5.95    7.24
   4  24   1   12.27    7.63
  -4  24  -1   16.22   15.75
  -4  24   2    2.56    7.36
  -4  24   2   -0.11    8.31
   4  24   2    1.41    5.79
  -4  24   3   46.59   19.54
  -4  24   3  103.64   39.95
   4  24   3   77.95   30.25
   4  24   3   60.66   24.62
   5   0   0   -6.18    8.01
  -5   0   0   -0.31    8.30
   5   0   1 3050.39  755.69
   5   0  -7  180.62   60.37
  -5   0  12   50.33   25.26
   5   0 -12   64.08   32.06
   5   0 -13  319.09  158.97
   5   1   0    5.02    7.01
  -5  -1   0   14.02    9.58
   5  -1   0    7.81    8.36
  -5   1   0    8.38   11.00
   5  -1   1   66.63   29.26
   5  -1   1  601.55  149.53
   5   1  -1   57.98   26.03
   5   1  -1  102.95   34.95
  -5  -1  -1  552.83  137.78
  -5  -1  -1   66.58   24.92
   5   1   1   68.28   25.31
   5   1   1  525.06  130.64
  -5  -1   1   58.60   21.59
  -5  -1   1   83.53   36.74
  -5   1  -1  506.17  126.14
  -5   1  -1   76.51   33.19
   5   1  -2 1492.94  640.49
  -5  -1   2 1484.87  636.92
   5  -1  -2 1039.88  382.22
  -5  -1   6   81.92   28.73
   5  -1  -9   24.03   10.55
  -5   1  10 2120.76 1055.89
  -5   1  11   25.23   13.09
  -5   1  11   25.98   12.13
   5  -1 -11   23.72   12.18
  -5  -1  12   56.53   28.32
   5  -1 -12   81.40   40.68
   5   1 -13   10.31    5.63
  -5  -1  13    5.17    3.37
   5   1 -14   27.29   13.79
  -5  -2   0  115.77   30.27
   5  -2   0  108.35   28.27
  -5   2   0  114.23   30.12
   5  -2   1 1031.00  255.61
  -5  -2  -1  881.36  218.87
   5   2   1  829.99  205.86
   5   2   1 1605.83  581.74
  -5   2  -1 1059.35  262.76
   5  -2   2  629.32  270.02
  -5   2   2  169.57   62.39
   5   2  -2  122.34   40.87
  -5  -2   2  165.19   54.98
  -5   2  -2  461.70  198.25
   5  -2   3  760.29  326.58
   5   2  -3 1239.51  407.22
  -5  -2   3 1335.12  572.87
  -5  -2   3 1283.28  421.50
  -5   2  -3 1133.88  486.47
   5  -2   4  165.42   54.22
   5   2  -4  207.12   89.84
  -5  -2   4  193.87   84.20
  -5   2   9  137.32   68.47
  -5   2  10   15.86    8.47
   5  -2 -10    9.39    5.32
   5  -2 -11  676.66  337.07
   5  -2 -11  541.88  178.44
  -5   2  12   47.40   17.19
  -5   2  13   29.01   11.69
  -5  -2  13   31.76   16.02
  -5  -2  14    2.62    2.37
   5   2 -15   55.66   27.84
   5   2 -16    2.36    2.35
   5   3   0    8.40    6.73
  -5  -3   0    5.41    8.20
  -5  -3   0   20.16   15.92
   5  -3   0    9.28    9.19
  -5   3   0    8.11    8.46
  -5   3   0   29.41   11.55
   5  -3   1   98.09   25.69
   5   3  -1   86.66   32.62
  -5  -3  -1   74.64   20.55
  -5  -3  -1  111.64   40.96
   5   3   1  105.67   27.14
   5   3   1   87.03   32.25
  -5  -3   1  100.32   37.60
  -5   3  -1   81.85   21.85
  -5   3   2  579.09  212.65
   5   3  -2  584.96  192.84
  -5  -3  -2  647.98  235.00
   5   3   2  653.40  236.96
  -5  -3   2  613.42  202.98
   5  -3  -2  706.27  259.30
   5  -3   3   63.42   28.78
  -5  -3   3   88.27   30.14
  -5   3  -3  114.90   49.88
   5  -3   4  681.73  292.83
   5   3  -4  758.79  325.66
   5   3  -4  863.50  282.46
  -5  -3   4 1013.15  331.42
  -5   3  -4  773.19  331.77
   5  -3   5    7.50   12.97
   5   3  -5    5.37   13.45
   5   3  -5    3.76    8.28
  -5  -3   5    7.71    7.14
  -5   3  -5    9.24    5.78
   5  -3   6 1481.42  484.28
   5   3  -6 2226.74  954.98
  -5  -3   6 2578.08 1105.76
  -5   3  -6 1960.64  640.49
  -5   3   8   38.34   19.30
  -5   3   9   18.73    9.69
   5  -3 -13   15.39    7.81
  -5  -3  14   89.36   44.62
   5  -3 -14   14.94    8.37
   5   3 -16    6.65    3.94
   5   4   0   41.72   12.81
  -5  -4   0   44.72   13.78
  -5  -4   0   23.37   14.20
   5  -4   0    5.92    6.42
   5   4  -1  372.77  137.20
   5   4  -1  552.94  137.43
  -5  -4  -1  558.93  139.05
   5   4   1  537.85  133.75
  -5  -4   1  542.69  199.52
  -5  -4   1  596.71  148.49
  -5   4   2   13.29    8.04
  -5  -4  -2   19.55    9.81
  -5  -4  -2  118.31   41.03
   5   4   2   25.11   11.15
   5  -4  -2    7.61    6.42
   5  -4   3  147.80   64.20
  -5  -4   3   56.90   26.64
  -5   4  -3   34.44   16.99
   5  -4   4   13.19   10.44
   5   4  -4   18.71   11.17
  -5  -4   4   28.22   15.21
  -5  -4   4    7.36    6.19
  -5   4  -4   24.53   12.74
   5   4  -5  185.00   79.97
   5   4  -5  277.85   91.48
  -5  -4   5  188.57   81.71
   5  -4   6   -0.37    3.92
   5   4  -6    2.69   12.51
   5   4  -6    4.87    8.01
  -5  -4   6    0.02   12.46
  -5  -4   6    5.88    6.70
  -5   4  -6   17.66   13.73
   5  -4   7   12.00   11.59
  -5   4   7   52.56   26.37
   5   4  -7    4.74    7.87
  -5  -4   7   19.70   14.54
  -5  -4   7    9.49    6.88
  -5   4  -7    4.55    4.59
  -5   4  -7   67.49   31.07
  -5   4   8    8.92    5.10
   5   4  -8    7.96   10.69
   5   4  -8   -1.94    6.59
   5  -4  -8    7.91    4.53
  -5   4  -8    5.69    6.09
   5  -4  -9    9.71    5.45
   5  -4 -15   12.83    7.00
  -5  -5   0   20.85    8.61
  -5   5   0   31.67   12.76
   5  -5   1   19.16    6.95
  -5  -5  -1   17.64    7.71
  -5  -5  -1    3.88    6.71
  -5  -5   1   16.43    8.55
  -5  -5   1   41.01   16.90
   5  -5  -1   14.65    7.72
  -5   5   2 4209.25 1543.63
  -5  -5  -2 4271.47 1547.08
   5   5   2 4029.55 1459.54
   5  -5  -2 4232.29 1552.84
  -5   5   3   44.09   17.06
   5   5   3   39.66   17.07
   5  -5  -3   49.45   18.95
   5   5  -4  465.39  200.10
  -5  -5  -4  397.31  131.33
   5   5   4  273.24   90.92
   5   5  -5   72.46   32.37
  -5  -5   5  132.82   57.96
  -5   5  -5  101.79   44.56
   5  -5   6   39.65   18.89
  -5   5   6   53.38   26.78
   5   5  -6   32.28   16.59
   5   5  -6    9.49    7.28
  -5  -5   6  112.70   49.64
  -5  -5   6    5.90    7.28
   5  -5  -6   19.83   10.20
  -5   5  -6  114.60   49.95
   5  -5   7  158.62   69.32
  -5   5   7   91.96   45.94
   5   5  -7   99.59   33.63
  -5  -5   7  138.47   46.24
   5  -5  -7   80.12   40.04
   5  -5   8   40.43   20.12
   5   5  -8   16.67   12.71
   5  -5  -8  127.87   63.78
   5  -5   9   23.73   13.86
   5   5  -9    4.36    9.57
   5   5  -9    4.69    6.94
  -5  -5   9   -0.82   10.51
  -5  -5   9    1.46    6.45
  -5   5  -9   51.52   23.82
   5   5 -10 3504.25 1502.15
   5   5 -10 3201.29 1046.33
  -5   5 -10 3755.39 1226.84
  -5  -6   0    3.55    6.14
   5  -6   0    7.90    6.28
  -5   6   0    9.39    6.11
   5  -6   1  556.05  137.89
   5   6  -1  684.95  251.71
  -5  -6  -1  569.87  206.78
   5   6   1  399.73  145.27
  -5  -6   1  601.21  221.06
  -5  -6   1  679.77  168.64
   5  -6  -1  592.34  214.84
  -5   6  -1  686.33  170.14
  -5   6   2   52.35   20.69
   5  -6  -2   49.22   19.80
  -5   6  -2  172.79   43.77
  -5  -6  -3  102.96   37.97
   5   6   3  115.77   42.71
   5  -6   5   16.38   10.82
  -5   6   5   25.76   13.16
  -5  -6   5   59.53   27.55
  -5   6   6    6.64    4.29
   5   6  -6   10.56   10.17
   5   6   6   10.33    8.04
  -5  -6   6   26.08   14.70
   5  -6  -6    8.86    5.14
  -5   6  -6   36.00   17.42
   5  -6   7  218.07   94.15
   5   6  -7  168.07   55.89
  -5  -6   7  283.26  122.11
  -5  -6   7  179.13   59.51
   5  -6  -7  218.07  108.69
  -5   6  -7  189.27   81.82
   5   6  -8    8.69    7.73
  -5  -6   8    3.15    6.34
   5  -6   9   52.96   25.77
   5  -6   9   29.59   10.99
   5   6  -9   56.04   25.95
  -5  -6   9   36.44   19.91
  -5  -6   9   77.56   26.71
  -5   6  -9   45.30   21.71
  -5   6  -9   45.85   15.91
   5  -6  10   22.49   16.39
   5  -6  10   29.48   11.42
   5   6 -10  137.66   60.56
   5   6 -10   18.60    9.59
  -5  -6  10   60.96   29.73
  -5  -6  10   24.38   11.10
  -5   6 -10   36.41   19.46
  -5   6 -10   20.54    8.65
   5  -6  11  300.55   98.67
   5   6 -11  415.74  179.01
   5   6 -11  401.80  131.90
  -5  -6  11  200.79   87.74
  -5  -6  11  213.00   70.63
  -5   6 -11  260.80  112.81
  -5   6 -11  284.99   93.59
   5   6 -12    5.33    9.39
   5   6 -12    4.17    6.69
   5   7   0    3.72    5.42
   5   7   0   24.76   11.33
  -5  -7   0   12.07    7.82
  -5  -7   0    4.96    5.21
  -5   7   0   11.61    6.95
   5   7  -1   28.99    9.65
   5   7  -1   17.54    9.76
  -5  -7  -1   23.33   10.79
   5   7   1   26.96   12.11
  -5  -7   1   18.90   10.13
  -5  -7   1   29.76    9.32
  -5   7  -1   51.46   13.48
  -5   7   2  124.53   46.55
  -5  -7  -2  130.98   48.32
   5   7   2   78.61   29.76
   5  -7  -2  172.45   64.05
  -5   7  -2   95.32   24.51
  -5   7   3  128.45   47.84
  -5  -7  -3   98.56   36.52
   5   7   3  122.46   45.17
  -5   7   4  237.54  118.31
  -5   7   5   88.41   44.19
  -5  -7   5  132.94   58.52
   5  -7  -5   84.10   42.03
   5  -7   6  582.89  250.33
  -5  -7   6  299.62  129.14
   5  -7  -6  158.39   79.01
  -5   7  -6  775.61  332.92
   5   7  -7   19.11   12.18
  -5  -7   7   28.18   15.15
  -5   7  -7   38.53   18.63
   5  -7   8  129.25   56.17
   5   7  -8  213.69   70.65
  -5  -7   8  193.07   83.52
  -5  -7   8  318.17  104.76
  -5   7  -8  175.56   75.86
   5  -7   9    9.58    9.77
   5   7  -9    8.39    9.16
   5   7  -9    7.15    7.14
   5   7   9   65.22   23.30
  -5  -7   9    8.79    9.42
  -5   7  -9   16.36   10.29
   5  -7  10   41.38   21.45
   5  -7  10   40.81   14.86
   5   7 -10   26.24   14.60
   5   7 -10   22.16    9.97
  -5  -7  10   16.43    9.20
  -5  -7  10   42.85   22.94
  -5   7 -10   52.28   18.12
   5  -7  11   42.69   21.92
   5  -7  11   27.94   10.64
   5   7 -11   22.00   13.95
   5   7 -11   49.00   17.83
  -5  -7  11   39.65   14.86
  -5   7 -11   33.28   17.50
  -5   7 -11   33.15   12.18
   5  -7  12    2.58   11.16
   5  -7  12    7.35    5.56
  -5  -7  12    8.45   13.47
  -5  -7  12   37.06   13.78
  -5   7 -12    3.22   10.00
   5  -7  13    3.22    4.41
   5   7 -13   -4.67    7.86
   5   7 -13   12.63    6.99
  -5  -7  13    4.77   11.27
  -5  -7  13    3.29    5.45
  -5   7 -13   12.11   10.85
   5   7 -14    1.35    7.01
   5   7 -14   12.58    7.61
  -5   7 -14   15.60    7.23
   5   8   0    4.61    6.86
  -5  -8   0   17.21   10.35
   5  -8   1  275.20   68.36
  -5   8   1  385.67  140.08
   5   8  -1  216.92   54.34
  -5  -8  -1  277.73  101.00
   5   8   1  235.81   59.01
   5   8   1  274.28   99.83
  -5  -8   1  247.79   91.56
  -5  -8   1  205.28   51.40
   5  -8  -1  367.13  133.40
  -5   8   2   46.23   18.78
  -5   8   2   79.72   29.76
   5   8  -2   62.98   24.93
  -5  -8  -2   83.47   31.16
   5   8   2   76.90   28.93
   5  -8  -2   59.35   23.25
   5  -8  -2   85.97   32.12
  -5   8  -2   71.28   18.49
  -5   8   3  413.09  205.74
  -5   8   3  225.67   83.36
  -5  -8  -3  289.83  105.38
   5   8   3  306.19  111.31
   5  -8  -3  367.36  135.36
  -5   8   4   83.68   41.84
  -5  -8  -4   19.41    9.44
   5  -8  -4   51.71   20.16
   5  -8  -4   78.89   39.47
   5  -8  -5 1324.75  660.07
   5  -8   6  279.58  120.73
  -5  -8   6   76.03   34.92
  -5   8  -6  122.80   53.74
   5  -8   7  589.34  253.08
   5   8  -7  592.57  254.58
  -5  -8   7  835.17  358.48
  -5   8  -7  613.30  263.33
   5   8  -8   22.32   12.53
  -5  -8   8   47.18   22.19
  -5   8  -8   51.24   23.33
   5  -8   9  588.53  252.97
   5   8  -9  274.85  118.65
  -5  -8   9  308.38  133.05
  -5  -8   9  336.84  110.84
   5   8 -10   38.19   18.86
   5   8 -10   44.27   16.23
  -5  -8  10   47.39   23.25
  -5  -8  10   57.23   20.50
  -5   8 -10   32.88   16.67
   5  -8  11   69.54   32.09
   5  -8  11    5.22    5.48
   5   8  11   32.60   13.04
  -5  -8  11   13.50    7.92
  -5   8 -11   46.95   21.69
   5  -8  12   -1.22   12.79
   5   8 -12    2.26    8.64
   5   8 -12   10.34    6.51
  -5  -8  12   -1.35   12.04
  -5  -8  12   11.25    6.80
  -5   8 -12   11.76   11.88
   5  -8  13    5.43   10.00
   5  -8  13   17.62    7.68
   5   8 -13   30.96   16.08
   5   8 -13   16.57    8.19
  -5  -8  13    9.65   11.74
   5   8 -14   -0.87    7.11
  -5  -8  14   -0.43    5.20
  -5   8 -14    1.77    9.99
  -5   8 -14    2.36    4.42
   5   8 -15  426.34  183.51
   5   8 -15  234.54   77.48
  -5   8 -15  243.18  105.47
  -5   8 -16    3.56    4.83
  -5  -9   0  116.69   44.04
  -5  -9   0    1.30    5.10
   5  -9   0    7.21    6.81
   5   9  -1    2.44    6.47
  -5  -9  -1   10.71    5.56
   5   9   1    2.77    5.97
   5   9   1    0.94    6.67
  -5  -9   1    4.41    6.34
  -5  -9   1   22.67    7.82
   5  -9  -1    8.81    8.80
  -5   9   2  180.05   89.76
  -5   9   2  110.27   40.77
   5   9  -2   81.10   30.96
   5   9   2  135.93   49.91
   5  -9  -2  115.20   42.46
   5  -9  -2   90.42   34.27
  -5   9  -2   73.85   19.02
  -5   9   3    9.33    5.53
  -5  -9  -3   16.25    9.55
   5  -9  -3    3.56    5.73
   5  -9  -3    9.05    5.39
  -5  -9  -4  242.84   88.46
   5  -9  -4  293.17  108.10
   5  -9  -4  460.09  229.24
   5  -9   7    1.66    8.22
   5   9  -7    4.80   10.31
  -5  -9   7    5.29    9.07
  -5   9  -7    8.47    8.75
   5  -9   8   21.94   13.13
   5   9  -8   15.59   11.61
  -5  -9   8    4.89   10.98
  -5   9  -8   12.96   10.15
   5   9  -9    9.40    9.60
  -5  -9   9   24.44   15.27
  -5   9  -9   28.49   15.08
   5  -9  10  135.01   59.00
   5   9 -10  121.99   53.64
  -5  -9  10  167.72   73.48
  -5  -9  10  179.36   59.56
  -5   9 -10   79.95   35.79
   5  -9  11   -4.69    7.97
   5   9 -11   -2.74    7.41
   5   9 -11    3.66    5.88
  -5  -9  11   -2.75    9.19
  -5  -9  11   -2.04    6.21
  -5   9 -11    7.88    9.01
   5  -9  12   25.79    9.86
   5   9 -12   14.47    9.46
   5   9 -12    8.88    6.16
  -5  -9  12   12.80   10.42
   5  -9  13    2.03   11.24
   5  -9  13    6.69    5.06
   5   9 -13    7.62    5.78
   5   9  13   18.47    8.43
  -5  -9  13    9.81   12.13
  -5  -9  13    6.43    6.03
  -5   9 -13    5.36    4.73
   5   9 -14   20.71   11.73
  -5  -9  14   26.74   10.91
  -5   9 -14   10.28   11.14
  -5   9 -14   25.85    9.89
   5   9 -15    7.63    9.14
   5   9 -15    3.70    5.39
  -5   9 -15    4.80    4.25
   5  10   0    5.52    5.00
   5  10   0    1.80    7.25
  -5 -10   0    1.74    4.17
  -5 -10   0    3.57    6.95
   5 -10   0   -1.16    5.96
  -5  10   0    3.26    6.76
   5 -10   1 1384.65  343.06
  -5  10   1 1221.08  607.89
  -5  10   1 1461.84  529.56
   5  10  -1 1308.62  324.39
  -5 -10  -1 1615.05  593.03
  -5 -10  -1 1624.26  402.26
   5  10   1 1683.01  617.68
   5  10   1 1733.70  429.45
  -5 -10   1 1749.83  642.34
   5 -10  -1 1502.15  544.42
  -5  10  -1 2129.97 1060.60
  -5  10  -1 1836.22  454.67
   5 -10   2    8.61    4.13
  -5  10   2   16.95    8.96
  -5  10   2    5.83    6.01
  -5  10   2   12.56    8.06
   5  10  -2   15.27    8.93
  -5 -10  -2    1.87    6.86
   5 -10  -2   12.78    7.77
   5 -10  -2    7.02    6.32
   5 -10  -2   14.55    7.80
  -5  10   3  456.63  167.95
  -5 -10  -3  535.43  194.33
   5 -10  -3  517.23  257.69
  -5 -10  -4   45.13   17.69
   5 -10  -4   32.23   13.58
   5  10  -8   21.39   16.05
  -5  10  -8   19.79   14.30
   5 -10   9 1768.25  758.68
   5  10  -9 1117.29  479.56
  -5 -10   9  921.68  395.70
  -5  10  -9 1648.46  707.30
   5  10 -10  681.04  292.60
  -5 -10  10 1001.17  429.91
   5 -10  11  129.83   56.71
   5  10 -11  152.63   66.42
  -5  10 -11  101.29   44.64
   5 -10  12   -1.15    7.17
   5  10 -12    0.29    6.40
   5  10 -12    2.34    4.57
  -5 -10  12    2.06    8.63
  -5 -10  12    3.31    5.77
  -5  10 -12   18.67   11.46
   5  10 -13   -1.67    5.60
   5  10 -13    4.14    5.06
  -5  10 -13    0.95    7.95
   5  10 -14    2.03    4.97
  -5 -10  14    1.68    5.45
  -5  10 -14    8.09    8.81
  -5  10 -14    4.82    4.15
   5  10 -15   24.79    9.99
  -5  10 -15    1.04    3.68
   5  11   0    3.69    4.25
  -5 -11   0   12.31    8.07
   5 -11   0   15.76    8.36
  -5  11   0  101.63   50.74
  -5  11   0   19.93    9.67
   5 -11   1   71.17   18.03
  -5  11   1   16.86    9.03
  -5  11   1    7.26    4.53
   5  11  -1   78.29   20.12
   5  11  -1   22.62   11.21
  -5 -11  -1    5.39    6.89
  -5 -11  -1   74.04   19.32
   5  11   1   10.23    6.42
   5  11   1    5.75    6.51
  -5 -11   1    6.23    7.07
  -5 -11   1   67.65   17.58
   5 -11  -1   13.77    7.54
  -5  11  -1   73.58   18.66
  -5  11  -1   12.49    6.55
   5 -11   2   53.96   13.82
  -5  11   2   96.02   36.26
  -5  11   2   62.74   23.93
  -5 -11  -2  118.08   44.34
  -5 -11  -2   60.60   23.15
   5  11   2  130.17   48.72
   5 -11  -2   55.85   22.12
   5 -11  -2   54.45   21.17
   5 -11  -2  142.62   71.13
  -5  11   3    6.34    5.59
  -5  11   3   28.12   12.54
   5 -11  -3    3.70    5.79
   5 -11  -3   18.94    9.41
  -5 -11  -4  161.96   59.33
   5  11   4  204.01   74.44
  -5 -11  -5   11.66    8.09
   5  11   5   20.09    9.61
   5 -11  -5    2.82    5.96
   5 -11   8  111.48   49.44
  -5 -11   8   86.40   39.36
   5 -11   9   19.17   13.18
   5  11  -9   -2.60   12.33
  -5 -11   9   18.09   13.93
   5  11 -10   11.85   10.59
  -5 -11  10   18.51   14.16
  -5  11 -10    7.97   10.21
   5  11 -11    8.05    7.86
  -5 -11  11    9.69   11.21
  -5  11 -11   15.00   10.61
   5 -11  12   96.63   42.69
   5  11 -12  106.21   46.57
  -5  11 -12   56.72   26.40
   5  11 -13    3.89    5.54
  -5 -11  13   -0.86    5.65
  -5  11 -13    3.35    7.15
   5  11 -14   10.40    8.75
   5  11 -14   14.75    7.22
  -5  11 -14   17.80   11.83
   5  11 -15   -1.37    4.68
   5  12   0   15.38    5.96
   5  12   0    4.97    6.73
  -5 -12   0    0.55    6.38
  -5 -12   0   11.85    5.26
   5 -12   0   -1.87    5.72
   5 -12   0   19.04    9.84
  -5  12   0   -2.52    5.88
  -5  12   0    4.08    3.11
   5 -12   1  139.05   34.73
  -5  12   1  233.16   85.00
   5  12  -1  125.45   47.06
  -5 -12  -1  206.09   76.41
  -5 -12  -1  175.21   44.00
  -5 -12  -1  106.12   40.41
   5  12   1  131.33   49.22
   5  12   1  189.96   69.64
  -5 -12   1  102.61   38.82
  -5 -12   1  158.74   39.85
   5 -12   2   68.56   17.33
  -5  12   2   74.29   28.53
  -5  12   2   43.05   17.42
   5  12  -2   62.01   16.88
   5  12  -2   38.21   16.36
  -5 -12  -2   58.32   22.77
  -5 -12  -2   88.37   33.14
   5  12   2   51.76   20.39
   5  12   2   40.57   16.68
   5 -12  -2   39.13   16.15
   5 -12  -2   39.19   16.17
  -5  12  -2   65.79   16.61
  -5  12   3  697.63  252.97
  -5 -12  -3  456.17  165.76
   5 -12  -3  666.86  245.14
  -5  12   4   73.09   27.95
   5  12   4  159.20   58.39
   5 -12  -4  106.40   40.10
  -5  12   5   34.77   14.57
  -5 -12  -5   90.00   33.73
   5  12   5   68.88   26.22
   5 -12  -5   50.65   19.97
   5 -12   9   12.79   12.25
   5  12  -9   13.69   11.85
  -5 -12   9    7.23   12.35
  -5  12  -9   12.05   11.95
   5  12 -11   39.79   19.19
  -5  12 -11   61.89   28.49
   5  12 -12   11.16    8.20
  -5  12 -12   26.82   14.79
   5  12 -13   24.78   13.24
  -5  12 -13   19.84   12.03
   5  13   0    4.68    4.42
   5  13   0   19.17   10.07
  -5 -13   0   37.50   15.89
  -5 -13   0    4.24    4.75
   5 -13   0    1.75    6.08
   5 -13   0   14.23    7.57
  -5  13   0    2.75    6.95
   5 -13   1   56.58   28.33
   5  13  -1   81.55   20.87
   5  13  -1   57.43   22.68
  -5 -13  -1   53.80   21.39
  -5 -13  -1   43.41   19.13
  -5 -13  -1   98.45   25.25
   5  13   1   64.29   24.96
  -5 -13   1  106.88   40.40
  -5 -13   1   81.75   20.97
   5 -13  -1   35.79   15.94
  -5  13  -1   70.45   35.25
   5 -13   2  175.56   43.73
  -5  13   2   53.31   21.25
  -5  13   2  111.18   41.41
   5  13  -2   82.45   31.72
   5  13  -2  210.35   52.77
  -5 -13  -2   75.57   28.72
   5  13   2   63.35   24.58
  -5 -13   2  205.39   51.54
   5 -13  -2   83.44   31.92
  -5  13  -2   65.66   32.85
  -5  13   3  209.20   77.50
  -5  13   3  212.31   77.57
  -5 -13  -3  171.29   62.92
   5  13   3  132.48   49.30
   5 -13  -3  196.41   72.88
   5 -13  -3  242.72   88.47
  -5  13   4  131.21   49.11
  -5 -13  -4   66.44   25.91
   5 -13  -4   87.54   33.15
   5 -13  -4   47.92   19.56
  -5  13   5   62.83   24.59
  -5 -13  -5   66.55   25.47
   5  13   5   80.14   30.10
   5 -13  -5   42.52   17.58
  -5 -13  -6 2068.92  749.58
   5 -13  10   41.62   21.05
  -5  13 -10  112.78   50.13
   5 -13  11   43.38   21.69
   5  13 -11  102.01   44.97
  -5 -13  11   68.79   31.89
  -5  13 -11   87.94   39.57
   5  13 -12   42.18   19.87
  -5  13 -12   37.61   18.63
   5  13 -13    4.07    7.25
  -5  13 -13    6.74    8.84
   5  14   0    2.07    6.83
  -5 -14   0   -0.58    6.95
  -5 -14   0   16.93    6.53
  -5  14   0    0.19    7.37
   5 -14   1    6.72    4.29
   5  14  -1    0.61    4.24
   5  14  -1    9.93    8.33
  -5 -14  -1   51.07   20.61
  -5 -14  -1   18.68   13.81
  -5 -14  -1    4.77    5.44
  -5 -14   1    9.85    7.67
   5 -14  -1    9.63    8.35
   5 -14   2   48.32   12.44
   5 -14   2    1.20    2.54
  -5  14   2    4.22    6.79
   5  14  -2    6.59    8.04
  -5 -14  -2    5.91    8.43
   5  14   2   11.49    8.52
   5  14   2    5.39    7.39
   5 -14  -2   12.84    8.50
   5 -14  -2    3.23    8.53
  -5  14  -2   59.81   15.07
  -5  14  -2    1.88    2.80
  -5  14   3  135.70   50.76
  -5  14   3  127.64   47.17
  -5 -14  -3  149.41   54.98
   5  14   3  139.39   51.63
   5 -14  -3  162.77   60.67
   5 -14  -3  148.72   54.71
  -5  14  -3  203.44  101.40
  -5  14   4    1.57    7.16
  -5 -14  -4    1.38    7.65
   5  14   4    0.64    7.48
   5 -14  -4    4.75    7.61
   5 -14  -4   18.44   10.94
  -5  14   5 1052.43  386.60
  -5 -14  -5  969.37  351.47
   5  14   5  901.98  327.16
   5 -14  -5  857.64  315.29
  -5 -14  -6    4.14    8.42
   5  14   6    4.22    8.01
   5 -14  10    2.03    8.62
  -5 -14  10    2.94    9.49
   5  14 -11   14.75   11.46
  -5  14 -11    7.64   11.36
   5  14 -12   -1.29    6.23
  -5  14 -12   -7.00    8.04
   5  15   0    9.68    8.01
  -5 -15   0    2.88    6.42
  -5  15   0   22.45   10.65
  -5  15   1   25.15   11.95
   5  15  -1   36.32   16.17
   5  15  -1   11.99    5.80
  -5 -15  -1   14.66    9.36
  -5 -15  -1   15.18    7.23
  -5 -15  -1   72.56   29.80
   5  15   1    6.37    7.58
   5 -15  -1   40.99   16.89
   5 -15   2   73.64   36.87
  -5  15   2   58.48   23.98
  -5  15   2   23.26   11.67
   5  15  -2   45.92   19.33
   5  15  -2   52.30   14.38
  -5 -15  -2   60.59   24.16
   5  15   2   41.10   13.04
   5  15   2   56.02   22.36
   5  15   2   78.34   29.69
   5 -15  -2   52.92   21.50
   5 -15  -2   42.16   17.73
  -5  15  -2   36.03    9.32
   5 -15   3   13.48    7.34
  -5  15   3   29.70   13.57
  -5  15   3   40.64   16.50
   5  15   3   29.54   13.93
   5 -15  -3   19.54   10.87
   5 -15  -3   30.34   13.93
  -5  15  -3   21.77   11.27
  -5  15   4 1884.60  691.75
  -5  15   4 1558.60  564.80
   5  15   4 1736.00  629.20
   5 -15  -4 1800.51  660.99
  -5  15  -4 1972.15  982.39
  -5 -15  -5    2.88    6.71
   5  15   5    4.14    7.05
   5 -15  -5    5.64    7.51
  -5 -15  -6  181.89   66.68
   5  15   6  145.15   53.61
   5 -15  -6   81.37   31.53
   5  15 -12   13.09   12.28
  -5  15 -12   15.89   13.80
   5  16   0   10.78    9.11
   5  16   0   63.67   16.74
  -5  16   0    8.09    7.94
  -5  16   1 2051.64  743.36
   5  16  -1 1951.42  716.52
  -5 -16  -1 2520.48  913.50
   5  16   1 2018.23  499.95
   5  16   1 1935.29  710.41
  -5 -16   1 2572.33  637.04
   5 -16  -1 2642.59  957.40
  -5  16   2   11.15    9.20
  -5  16   2    7.39    9.85
   5  16  -2   86.93   22.66
   5  16  -2   13.37    9.97
   5  16   2    8.28    8.53
   5  16   2   28.42   13.06
   5  16   2   90.68   24.08
   5 -16  -2   12.13    9.26
   5 -16  -2    9.51    9.31
  -5  16  -2  123.61   30.81
   5 -16   3  101.90   50.89
  -5  16   3   64.05   25.54
  -5  16   3   79.29   30.55
  -5 -16  -3   94.63   36.36
   5  16   3  162.88   60.27
   5 -16  -3   44.94   19.30
   5 -16  -3   97.17   36.83
   5 -16   4   -1.09    2.66
  -5  16   4    6.50    8.58
  -5  16   4    8.00    7.47
   5 -16  -4    4.91    7.54
   5 -16  -4    4.01    7.62
  -5  16  -4    6.79    4.38
  -5  16   5  132.02   49.86
  -5  16   5    4.25    7.02
   5  16   5   15.26    9.13
   5 -16  -5  274.74  101.91
   5 -16  -5    8.66    8.35
  -5  16   6    3.44    6.79
  -5 -16  -6    1.80    5.35
   5  16   6    6.31    6.68
   5 -16  -6   11.74    8.69
  -5 -16  -7    1.63    6.86
   5  17   0    8.22    8.22
   5  17   0    3.23    4.97
  -5 -17   0   14.69    9.13
  -5 -17   0   -0.45    5.47
  -5  17   0    2.73    7.59
  -5  17   1   12.42    9.97
   5  17  -1   10.44   10.38
   5  17  -1   -0.95    5.24
  -5 -17  -1   15.98   16.04
  -5 -17  -1    6.39    8.72
   5  17   1    3.44    8.60
   5  17   1    9.43    6.36
  -5 -17   1   22.77   12.34
  -5 -17   1   15.66    6.99
   5 -17   2   18.66    5.34
  -5  17   2   44.02   18.90
  -5  17   2   18.27   11.38
   5  17  -2   41.86   18.29
  -5 -17  -2    2.78   10.24
  -5 -17  -2   56.25   22.84
   5  17   2   30.72   11.60
  -5 -17   2   22.65    7.70
   5 -17  -2   38.49   16.97
   5 -17  -2   26.25   13.16
  -5  17  -2   27.99    7.33
  -5  17   3    1.34    6.98
  -5  17   3   -0.91    8.04
  -5 -17  -3    2.01    7.61
   5  17   3    3.62    6.87
   5 -17  -3   18.82   10.35
   5 -17  -3    2.92    8.19
   5 -17   4    3.60    3.15
  -5  17   4    8.95    7.95
  -5  17   4    7.95    7.61
  -5 -17  -4   47.99   20.07
   5 -17  -4    9.98    7.49
   5 -17  -4    3.21    6.59
   5 -17   5    6.56    4.04
  -5  17   5   12.07    8.10
  -5  17   5    4.98    7.72
  -5 -17  -5    2.46    6.79
   5 -17  -5    7.32    7.23
   5 -17  -5   15.55    9.51
  -5  17   6    6.32    5.79
  -5 -17  -6   36.63   15.11
   5  17   6   34.46   14.55
   5 -17  -6   15.29    7.95
  -5  17  -6   40.01   20.14
  -5 -17  -7    2.96    7.06
   5  17   7   -0.07    7.26
   5  18   0    8.29    5.51
  -5 -18   0    8.71    6.33
  -5 -18   0    3.60    6.21
   5 -18   0    0.22   11.73
  -5  18   0    3.22    6.52
  -5  18   1  281.65  102.74
   5  18  -1  213.69   79.47
   5  18  -1  207.93   52.10
  -5 -18  -1  345.82  126.60
  -5 -18  -1  152.86   57.30
   5  18   1  253.20   63.48
  -5 -18   1  156.43   58.55
  -5 -18   1  224.17   56.07
   5 -18   2   14.51    4.16
  -5  18   2   18.70   10.38
  -5  18   2   17.07    9.90
   5  18  -2   47.52   19.65
   5  18  -2   18.57    7.15
  -5 -18  -2   36.46   16.16
  -5 -18  -2   13.87    9.42
   5  18   2   29.49   14.00
   5  18   2   19.34    9.32
  -5 -18   2   22.52    7.94
   5 -18  -2   59.28   23.35
  -5  18   3   16.48    9.61
  -5  18   3   49.30   19.81
  -5 -18  -3    9.14    7.99
   5 -18  -3   33.59   14.62
  -5  18   4   16.70    9.70
  -5  18   4   13.54    8.51
  -5 -18  -4   10.70    8.60
   5  18   4    3.23    8.54
   5 -18   5   16.48    8.59
  -5  18   5   45.64   18.53
  -5  18   5   48.65   19.61
  -5 -18  -5   39.45   16.45
   5  18   5   21.53   11.21
   5 -18   6    8.45    4.78
  -5  18   6   12.15    7.60
  -5 -18  -6    7.23    6.95
   5  18   6    6.81    7.07
   5 -18  -6    1.83    6.97
   5 -18  -6    2.82    4.98
  -5  18  -6    6.24    3.83
  -5 -18  -7  115.89   43.00
   5  18   7   74.05   28.33
   5 -18  -7   12.31    7.84
  -5  18  -7   50.92   25.50
  -5 -18  -8    2.57    5.96
   5  19   0    2.66    4.02
  -5 -19   0   12.91    8.31
   5 -19   0    7.73   10.53
  -5  19   0    2.86    5.71
  -5  19   1    4.60    6.45
   5  19  -1   10.29    8.02
   5  19  -1    6.06    4.88
  -5 -19  -1    9.64   11.23
  -5 -19  -1   11.26    8.18
   5  19   1    5.44    6.68
   5  19   1    2.31    5.10
  -5 -19   1   12.61    8.84
  -5 -19   1    0.39    4.58
  -5  19   2   16.82    9.80
  -5  19   2    5.11    7.32
   5  19  -2   15.09    9.54
   5  19  -2    5.95    4.88
  -5 -19  -2   18.47    9.69
  -5 -19  -2    4.05    7.62
   5  19   2   13.25    8.46
   5  19   2    9.35    6.51
  -5 -19   2    3.97    5.17
   5 -19  -2   25.57   11.88
  -5  19   3    8.01    7.24
   5  19  -3   -1.22    5.91
  -5 -19  -3    3.11    5.39
  -5 -19  -3   -1.24    6.59
   5  19   3    1.51    6.07
   5 -19  -3    7.22    9.19
  -5  19   4   54.86   21.85
  -5  19   4   80.84   30.71
  -5 -19  -4   73.09   28.59
  -5 -19  -4   63.50   24.57
   5  19   4   52.33   21.53
   5 -19  -4   42.35   17.71
  -5  19   5    4.60    6.18
   5  19   5    3.58    7.17
   5 -19  -5    1.77    5.65
   5 -19  -5    3.42    7.01
   5 -19   6   34.32   17.34
  -5  19   6   75.59   29.55
  -5  19   6   13.47    8.89
  -5 -19  -6   49.28   19.50
   5  19   6   45.25   17.95
   5 -19  -6   37.78   15.69
   5 -19  -6   31.51   13.90
   5 -19   7    4.70    3.12
  -5 -19  -7    4.13    5.73
   5  19   7    4.23    6.93
   5 -19  -7    0.45    5.12
  -5  19  -7    2.50    2.33
  -5 -19  -8    2.60    6.24
  -5  19  -8   26.96   13.65
  -5  19  -9    2.36    2.33
   5  20   0    8.92    4.45
   5  20   0   -0.89    4.85
  -5 -20   0   -0.09    5.21
   5 -20   0    1.20   11.07
  -5  20   0   -1.89    5.89
  -5  20   1  211.27   77.35
   5  20  -1  160.81   40.46
   5  20  -1  151.82   57.00
  -5 -20  -1  155.05   57.99
  -5 -20  -1  162.31   60.72
   5  20   1  185.12   69.00
   5  20   1  157.35   39.68
  -5 -20   1  166.80   62.31
  -5  20  -1   94.79   37.31
  -5  20   2    4.13    6.88
   5  20  -2   18.02    9.81
   5  20  -2    6.72    4.66
  -5 -20  -2    0.80    7.34
  -5 -20  -2   17.20    9.18
   5  20   2   17.03    9.19
   5  20   2    5.32    5.97
  -5 -20   2    6.28    5.77
   5 -20  -2   13.54    8.05
  -5  20   3   20.30   10.47
   5  20  -3   33.19   10.55
  -5 -20  -3   35.35   15.17
   5  20   3   33.63   14.30
   5  20   3   12.57   10.22
   5 -20  -3   45.00   19.17
  -5  20   4    4.45    6.53
  -5 -20  -4    3.23    5.89
  -5 -20  -4   12.68    9.09
   5  20   4   11.37    8.99
   5 -20  -4    7.50    6.37
   5 -20  -4   23.66   11.74
  -5  20   5  306.88  112.03
   5  20   5  603.40  219.22
   5 -20  -5  313.56  116.00
   5 -20  -5  366.20  133.28
   5 -20   6    5.05    3.39
  -5  20   6    2.01    5.43
  -5  20   6    3.53    7.97
  -5 -20  -6    5.89    6.65
   5  20   6    8.34    6.91
   5 -20  -6    3.05    5.73
   5 -20  -6    3.51    6.70
   5 -20   7   28.79   14.62
  -5  20   7   37.91   15.42
  -5 -20  -7   15.45    9.38
   5 -20   8    1.92    2.33
  -5  20   8    9.34    6.11
   5  20   8    4.12    7.35
  -5  20  -8    2.43    2.46
   5  21   0    5.94    5.87
  -5 -21   0    7.65    6.62
  -5 -21   0    7.11    4.31
   5 -21   0    5.83   13.09
  -5  21   0    1.02    6.76
  -5 -21  -1   11.90    7.71
  -5 -21  -1    1.20   11.63
   5  21   1    2.47    3.99
   5  21   1   33.66   14.53
  -5 -21   1    1.00    4.18
  -5 -21   1    0.97    5.77
   5 -21  -1    1.60    7.86
  -5  21  -1    4.11   13.39
  -5  21   2   39.97   17.10
   5  21  -2   80.66   21.21
   5  21  -2   45.78   18.81
  -5 -21  -2   49.88   20.69
   5  21   2   88.26   33.71
   5  21   2   89.16   23.34
   5 -21  -2   45.57   18.68
   5 -21  -2   29.20   14.31
  -5  21   3    5.40    7.11
  -5  21   3    3.36    8.84
   5  21  -3    1.26    6.00
  -5 -21  -3    3.36    5.80
  -5 -21  -3    1.78    7.25
   5  21   3    2.58    4.95
   5  21   3    3.23    8.36
   5 -21  -3    5.85    6.53
   5 -21  -3    8.19    8.40
  -5  21   4  126.26   47.64
  -5  21   4   93.32   35.61
  -5 -21  -4   66.70   26.01
  -5 -21  -4   98.71   37.28
   5  21   4   63.52   24.73
   5  21   4  111.17   41.90
   5 -21  -4   98.49   37.52
   5 -21  -4   57.18   22.64
  -5  21   5    5.48    7.42
  -5 -21  -5   -1.26    7.84
   5 -21  -5    4.02    6.33
  -5  21   6   14.40    8.33
  -5  21   6    8.71    8.34
   5 -21   7    5.58    3.61
  -5  21   7    8.25    6.15
   5  21   7    5.18    6.61
   5  22   0    0.05    5.38
  -5 -22   0    4.30    5.91
   5 -22   0   -3.25   12.48
  -5  22   0   -0.05    6.90
   5  22  -1    0.15    3.63
  -5 -22  -1    5.80    6.04
  -5 -22  -1    3.89   11.37
   5  22   1    8.64    5.10
   5  22   1   10.08    7.09
  -5 -22   1    2.49    6.00
   5 -22  -1   -1.44    7.73
  -5  22  -1    9.12   13.13
  -5  22   2    1.60    6.78
   5  22  -2    3.06    4.16
   5  22  -2    3.26    6.40
  -5 -22  -2    1.01    7.55
  -5 -22  -2    3.72    5.17
   5  22   2   -1.96    5.58
   5  22   2   -0.19    8.57
   5  22   2   22.29    8.22
   5 -22  -2    0.53    6.01
   5 -22  -2    3.32    7.30
  -5  22   3   16.74    9.60
  -5  22   3   14.43   10.60
   5  22  -3   13.72    7.41
  -5 -22  -3   11.36    8.21
   5  22   3    6.61    8.82
   5 -22  -3    2.52    5.35
  -5  22   4   -0.10    7.88
   5  22   4    1.29    4.98
   5  22   4    0.97    7.48
  -5  22   5    4.29    5.68
  -5  22   5    4.70    7.99
  -5  22   6    1.81    5.46
  -5  22   6    1.70    7.18
   5  22   6    3.75    6.55
   5  23   0   14.48    8.05
   5  23   1    7.82    6.34
  -5  23  -1  116.81   45.81
  -5  23   2   11.48    8.44
   5  23  -2    5.86    6.61
   5  23   2    2.16    4.79
   5  23   2   -0.74    7.55
  -5  23   3    8.12    7.58
  -5  23   3   16.55   11.03
   5  23   3   13.06    7.83
   5  23   3   17.59   10.80
  -5  23   4   43.15   18.27
   5  23   4    5.38    5.45
   5  23   4    9.70    9.17
  -5  23   5    2.11    6.05
   5  24   0    1.75    5.98
   5  24   0   -7.26   14.94
   5  24   1   46.84   19.18
  -5  24  -1    9.80   15.93
  -5  24   2    2.86    7.65
  -5  24   2    4.47    8.28
   5  24  -2    2.19    6.78
   5  24   2   -2.31    9.09
  -5  24   3   13.58   10.49
  -6   0   0 3287.69  814.32
  -6   0   0 3577.99 1534.41
   6   0   1  312.99  113.50
   6   0   1  946.34  309.30
  -6   0  -1  198.02   50.41
  -6   0  -1 1129.96  369.31
  -6   0  -2  218.53   55.36
  -6   0  -3   56.93   19.08
  -6   0   9 1036.65  340.52
  -6   0  10  201.59   67.42
  -6   0  13  293.06  146.07
  -6   0  14  109.60   54.78
   6   0 -15   24.48   12.43
   6   1   0  519.65  129.14
  -6  -1   0  550.06  136.97
   6  -1   0  536.70  133.52
  -6   1   0  563.65  140.31
   6  -1   1   90.75   23.81
   6   1  -1  145.38   62.80
   6   1  -1   91.07   31.29
  -6  -1  -1  108.42   28.51
   6   1   1  115.31   29.71
   6   1   1  105.44   38.59
  -6  -1   1   95.94   32.82
  -6  -1   1  117.73   51.22
  -6   1  -1  108.40   28.46
  -6   1  -1  112.24   48.35
   6  -1   2  375.65   93.75
   6   1  -2  382.45  164.61
  -6  -1  -2  384.87   96.35
   6   1   2  422.08  105.19
  -6  -1   2  452.03  165.99
  -6  -1   2  424.73  182.47
  -6  -1  -3    7.62   11.90
   6   1   3   -1.15   11.57
  -6   1  -3    5.32   11.16
   6   1  -6   34.47   15.57
  -6  -1   6   29.41   13.42
  -6   1  11   47.18   18.29
  -6   1  12   91.42   45.73
  -6   1  13   17.68    9.79
   6  -1 -15    5.33    3.46
   6   2   0   70.43   18.60
  -6  -2   0   64.23   18.37
   6  -2   0   99.22   26.18
  -6   2   0  104.34   28.04
  -6  -2  -1  199.17   50.55
   6   2   1  212.77   53.51
   6   2   1  248.14   90.14
   6  -2   2   97.70   25.88
   6  -2   2  128.33   55.54
  -6  -2  -2   88.33   24.05
   6   2   2  111.60   29.33
  -6  -2   2  169.57   56.34
  -6   2  -2  147.57   63.76
   6  -2   3   83.38   37.55
   6   2  -3    3.74    8.50
  -6  -2  -3   57.85   18.94
   6   2   3    4.34   11.62
  -6  -2   3   11.15    7.29
  -6   2  -3   34.34   13.80
  -6   2  -3   19.36   14.22
   6  -2   4   14.07    5.37
   6   2  -4    8.39   11.76
   6   2  -4   36.00   15.83
  -6  -2   4    7.50   11.05
  -6   2  -4   21.05    7.84
  -6  -2   6   30.95   13.59
  -6   2  11   47.18   23.91
  -6   2  12   51.70   25.97
  -6   2  13   72.60   25.48
   6  -2 -13   67.64   33.83
  -6   2  14   30.41   12.42
   6  -2 -14    8.23    4.67
   6   3   0 1734.85  429.91
   6  -3   0 2067.77  512.51
   6  -3   0 1932.99  700.16
  -6   3   0 2042.42  739.79
   6  -3   1    9.11    6.12
   6   3  -1   20.91    8.39
  -6  -3  -1    3.32    5.96
   6   3   1    9.79    7.45
   6   3  -2 2832.67 1039.18
   6   3  -2 2143.80  703.85
  -6  -3  -2 3136.78  776.99
   6   3   2 2972.06 1076.50
   6   3   2 3225.48  799.00
  -6  -3   2 1740.61  638.65
  -6  -3   2 2356.91  773.77
   6  -3   3   91.58   40.10
   6   3  -3   58.20   26.67
   6   3  -3   67.03   24.91
   6   3  -3   68.21   23.55
  -6  -3  -3   15.04   12.26
   6   3   3    6.41   11.97
  -6  -3   3   84.01   37.17
  -6  -3   3   59.63   21.05
  -6   3  -3   15.67   10.42
  -6   3  -3   93.60   40.85
   6  -3   4  450.77  193.87
   6   3  -4  466.54  200.33
   6   3  -4  338.33  111.14
  -6  -3   4  654.66  281.08
  -6  -3   4  264.49   88.25
  -6  -3   4  413.55  135.70
  -6   3  -4  492.00  211.39
   6  -3   5  266.91  115.31
   6  -3   5   74.15   24.59
   6   3  -5   48.23   24.29
   6   3  -5   70.02   24.92
  -6  -3   5   58.88   20.85
  -6   3  -5   54.26   26.05
   6  -3   6  150.68   49.57
   6   3  -6   70.48   32.87
  -6  -3   6   90.97   40.77
  -6   3  -6  150.57   49.82
  -6   3  11   32.00   16.31
   6  -3 -12   41.14   20.72
   6  -3 -13    7.65    4.54
   6  -3 -14    7.60    7.10
   6   4   0   24.78    8.93
   6   4   0   45.24   18.71
  -6  -4   0   29.06   10.22
  -6  -4   0   46.45   20.62
   6  -4   0   18.50    8.15
  -6   4   0   19.84    8.68
  -6   4   0   29.25   12.01
   6  -4   1   11.46    6.35
   6   4  -1    9.96    7.04
   6   4  -1   10.40   12.07
  -6  -4  -1   13.95    7.74
  -6  -4  -1   -0.16    6.80
   6   4   1    3.93   12.07
   6   4   1    1.84    6.07
   6   4   1    4.09    6.71
  -6  -4   1    6.79    8.48
  -6  -4   1    6.22   12.23
  -6   4  -1   16.50    7.00
   6   4  -2    8.87    6.84
  -6  -4  -2    5.06    9.46
   6   4   2    3.75    6.84
   6   4   2    3.66    8.76
   6  -4   3    9.25    9.08
   6   4  -3   34.80   17.42
  -6  -4  -3   38.92   15.21
   6   4   3    5.59   12.82
  -6  -4   3    9.10    9.97
   6  -4  -3  149.07   55.06
  -6   4  -3   16.07   10.50
  -6   4  -3   18.88   10.14
   6  -4   4   24.47   13.24
   6   4  -4   21.51   11.88
   6   4  -4    9.95    7.79
  -6  -4   4   56.41   25.64
  -6  -4   4   13.85    8.50
  -6   4  -4   59.88   26.62
   6   4  -5   15.86   10.13
  -6  -4   5    9.82    8.79
  -6  -4   5    9.25    7.76
   6   4  -6   39.14   22.14
   6   4  -6   31.40   13.47
  -6  -4   6   37.43   20.31
  -6  -4   6   25.69   10.59
  -6   4  -6   26.55   16.35
   6  -4   7   15.19   11.78
   6  -4   7    6.80    4.32
   6   4  -7   15.29    9.82
  -6  -4   7    7.87   13.13
  -6  -4   7    6.76    6.80
  -6   4  -7   31.13   17.46
  -6   4  -7   12.50    5.99
   6   4  -8   30.67   13.07
  -6   4  -8   10.85    5.54
  -6   4  10   50.48   25.41
   6  -4 -10   63.01   31.59
  -6   4  11   55.25   27.77
   6  -4 -11   78.41   39.24
   6  -4 -12    9.65    5.52
   6   5   0 1861.57  461.12
  -6  -5   0 1914.55  474.37
   6  -5   0 1684.16  610.19
   6  -5   0 1578.18  391.09
  -6   5   0 1559.76  564.80
   6  -5   1  335.11   83.32
   6   5  -1  329.46   82.16
  -6  -5  -1  326.12   81.40
  -6  -5  -1  340.64  123.72
  -6  -5  -1  404.68  134.32
   6   5   1  335.80   83.66
   6   5   1  331.65  120.50
  -6  -5   1  313.45  115.54
  -6  -5   1  278.77   69.74
  -6  -5  -2 1958.33  485.43
  -6  -5  -2 1624.26  533.47
   6   5   2 1938.75  480.36
   6   5   2 2108.08  763.40
  -6  -5   2 1953.73  716.86
  -6   5  -2 1736.00  430.14
  -6   5   3   68.12   25.69
  -6  -5  -3   59.37   18.53
  -6  -5  -3   49.06   18.93
   6   5   3    7.63   12.61
   6   5   3   67.03   24.95
   6  -5  -3   42.50   16.52
  -6   5  -3   35.79   12.66
   6   5  -4   78.09   35.25
  -6   5  -4   61.69   28.25
   6  -5   5   22.58   13.11
   6   5  -5   46.88   21.70
  -6  -5   5  137.78   59.92
  -6  -5   5   25.30   10.28
   6  -5   6  152.40   66.08
   6   5  -6  124.53   54.33
   6   5  -6  128.79   42.96
  -6  -5   6  104.40   46.07
  -6  -5   6  102.21   34.57
  -6   5  -6  110.78   48.27
   6  -5   7 1256.79  539.12
   6   5  -7  405.60  133.05
  -6  -5   7  373.81  122.92
   6  -5   8   23.00   13.89
   6   5  -8   24.23   10.75
  -6   5  -8   23.95    9.14
  -6   5   9  165.99   82.77
   6   5  -9    8.69   10.08
   6   5  -9    3.57    6.65
  -6  -5   9    6.33   12.35
  -6  -5   9    4.47    7.30
   6  -5  -9   98.93   49.40
  -6   5  -9   10.96    5.80
  -6   5  10   50.85   25.68
   6   5 -10  595.91  256.19
   6   5 -10  275.89   91.26
   6  -5 -10   63.46   31.87
  -6   5 -10  169.91   56.12
   6  -5 -11  330.04  164.50
  -6  -6   0  150.45   37.99
  -6   6   0  152.51   55.64
  -6   6   1   19.80    8.96
   6   6  -1   11.84    6.97
   6   6  -1   44.95   17.88
  -6  -6  -1   26.58    8.72
   6   6   1   31.81   13.09
  -6  -6   1   14.43    8.31
   6  -6  -1   57.60   21.62
   6  -6   2    4.79    5.52
  -6  -6  -2    0.67    8.43
  -6  -6  -2    6.05    7.28
   6   6   2    8.98    8.23
  -6  -6   2    6.87    6.95
  -6   6  -2    3.69    6.06
  -6   6   3   88.52   33.13
  -6  -6  -3   37.09   13.72
   6   6   3  123.95   45.53
   6   6   3   89.54   31.75
   6  -6  -3   92.91   34.78
  -6  -6  -4   36.21   15.07
   6  -6   5    0.45    7.49
  -6  -6   5   11.10   10.40
   6   6  -6    5.12    7.46
  -6  -6   6   29.24   15.63
  -6   6  -6   24.82   12.99
   6  -6   7  103.12   45.30
   6   6  -7   88.59   30.10
  -6  -6   7   29.93   16.12
  -6  -6   7  107.48   36.31
  -6   6  -7  101.26   44.32
  -6   6   8  138.81   69.23
  -6  -6   8    8.74    7.46
   6  -6  -8   79.43   39.68
  -6   6   9   20.83   10.93
   6   6  -9   -0.99   10.24
   6   6  -9   38.54   14.95
  -6  -6   9    8.01   12.44
  -6  -6   9   14.89    8.75
   6  -6  -9   35.00   17.76
  -6   6  -9   24.26    9.16
  -6   6  -9    3.35    8.70
   6  -6  10   26.02   16.48
   6   6 -10    8.18   11.07
  -6  -6  10   13.10   14.31
  -6  -6  10    4.28    6.90
   6  -6 -10   28.68   14.72
  -6   6 -10   33.50   17.69
   6  -6  11    7.88    5.28
   6   6 -11    1.31    9.89
   6   6 -11   10.23    7.62
  -6  -6  11   19.10   15.16
  -6  -6  11    7.56    7.17
  -6   6 -11   27.84   15.53
  -6   6 -11   29.23   10.85
   6   6 -12   14.51   12.01
   6   6 -12    5.61    6.71
  -6   6 -12    7.09    4.76
  -6  -7   0   40.55   16.70
   6  -7   0   30.19   12.45
   6  -7   1    8.32    4.74
  -6   7   1   10.66    6.36
  -6  -7  -1   23.60    8.53
   6   7   1   19.62    7.56
   6   7   1   18.32   10.06
  -6  -7   1    2.72    5.77
  -6  -7   1    6.94    6.73
   6  -7  -1    6.31    5.44
  -6   7  -1   12.96    5.25
   6  -7   2  297.32   73.96
   6   7  -2  385.79  142.04
  -6  -7  -2  306.88   76.88
  -6  -7  -2  370.93  134.67
   6   7   2  349.28  126.95
  -6  -7   2  296.63  109.41
  -6   7  -2  330.73   82.24
  -6   7   3   83.90   31.60
  -6  -7  -3   19.32   10.30
  -6  -7  -3   25.34   11.05
   6   7   3   29.97   12.79
  -6   7  -3   12.64    7.71
  -6   7   4  136.51   50.67
   6  -7  -4  108.23   40.34
   6   7   5   35.39   14.95
  -6  -7   5   44.18   22.05
   6  -7   6   18.41   11.85
   6   7  -6    9.36    9.21
  -6  -7  -6   20.02   11.26
  -6   7  -6  111.59   48.81
  -6  -7  -7   65.06   23.43
   6   7   7   51.77   19.28
  -6  -7   7   48.87   22.76
  -6   7  -7   50.14   22.80
   6  -7   8   91.83   40.34
  -6   7   8  187.65   93.59
   6   7  -8   73.69   25.38
  -6  -7   8  152.17   66.08
  -6  -7   8   63.76   22.67
   6  -7  -8  182.58   91.07
  -6   7  -8  112.63   49.03
   6  -7   9   26.99   15.08
   6   7  -9   63.60   29.20
   6   7  -9   69.11   24.25
  -6  -7   9   42.75   21.18
   6  -7  -9  107.20   53.55
  -6   7  -9   30.33   15.33
   6  -7  10   76.47   35.46
   6  -7  10   40.47   14.41
   6   7 -10   73.92   33.27
   6   7 -10   41.60   15.47
  -6  -7  10   37.74   21.25
  -6  -7  10   93.82   32.06
  -6   7 -10   42.96   21.88
   6  -7  11    1.62   10.05
   6  -7  11    6.35    4.75
   6   7 -11    0.46    9.98
   6   7 -11    6.56    6.74
  -6   7 -11    2.19    8.78
  -6   7 -11    4.59    4.34
   6  -7  12   31.23   17.06
   6  -7  12   25.15    9.60
  -6  -7  12   19.53   15.57
  -6  -7  12   42.24   15.41
  -6   7 -12   27.74   15.92
  -6   7 -12   19.47    7.75
   6  -7  13    3.02    4.14
   6   7 -13   -0.46    8.07
   6   7 -13    5.34    5.63
  -6  -7  13    1.05   10.61
  -6  -7  13    1.34    5.01
  -6   7 -13    1.82    9.24
  -6   7 -13    2.17    3.66
   6   7 -14   21.05   12.48
   6   7 -14   18.32    9.16
   6   8   0  399.04  146.99
  -6  -8   0  247.33   91.47
  -6  -8   0  211.04   52.82
   6  -8   0  238.11   86.64
  -6   8   0  213.11   77.58
   6  -8   1   20.61    6.41
   6   8  -1   48.17   19.20
  -6  -8  -1   12.20    6.36
  -6  -8   1   38.74   16.08
  -6  -8   1   12.14    7.10
   6  -8  -1  220.49   80.33
  -6   8  -1   18.57    6.41
   6  -8   2   38.04   10.29
   6   8  -2   42.84   17.41
  -6  -8  -2   32.53   11.06
   6   8   2  108.23   39.89
  -6  -8   2   25.20   11.67
  -6   8   3  375.77  187.19
  -6  -8  -3  143.65   37.17
  -6  -8  -3  649.48  235.58
   6  -8  -3  698.09  256.42
  -6   8  -3  107.39   27.72
  -6   8   4  145.73   54.04
  -6  -8  -4  124.41   45.82
   6   8   4   86.29   32.15
   6  -8   6   73.24   33.23
  -6   8   6   55.93   28.06
  -6  -8   6   80.02   36.47
   6  -8  -6   76.47   38.23
  -6   8  -6  104.79   46.07
   6  -8   7 1950.27  836.21
  -6   8   7 1139.06  567.34
  -6  -8   7 1536.71  659.26
   6  -8  -7 1665.73  829.76
  -6   8  -7 1719.87  737.37
   6   8  -8   74.28   33.20
  -6  -8   8   42.07   20.31
   6  -8  -8   56.77   28.49
  -6   8  -8   46.40   21.52
   6  -8   9  787.25  337.99
   6   8  -9  934.36  401.11
  -6  -8  -9  816.85  268.75
   6   8   9  848.19  278.89
  -6  -8   9  851.65  365.74
  -6  -8   9  588.42  192.95
   6   8 -10   44.74   21.69
   6   8 -10   94.75   32.11
   6   8  10   82.58   28.73
  -6  -8  10   51.91   25.11
  -6  -8  10  134.32   45.09
  -6   8 -10  161.15   70.10
   6  -8  11  119.46   52.90
   6  -8  11  219.68   72.32
  -6  -8  11  314.60  103.65
  -6   8 -11  167.49   72.70
   6   8 -12    2.38    8.93
   6   8 -12   14.76    7.75
  -6  -8  12    6.54   13.65
  -6  -8  12    4.88    5.76
  -6   8 -12    0.63   10.02
  -6   8 -12    4.32    4.36
   6  -8  13   90.74   40.89
   6  -8  13  120.50   40.15
   6   8 -13  149.87   65.28
   6   8 -13  118.54   39.79
  -6  -8  13  152.98   67.24
  -6  -8  13  105.50   35.79
  -6  -8  14    3.01    5.89
  -6   8 -14    2.13    8.82
   6   8 -15    5.74    8.59
   6   8 -15   11.96    6.93
  -6   8 -15    2.89   10.59
   6   9   0   13.28    8.00
   6   9   0   17.59    7.58
  -6  -9   0   14.18    6.14
   6  -9   1    2.32    3.78
   6   9  -1    4.89    6.31
   6   9  -1    2.27    6.44
  -6  -9  -1    6.23    9.27
  -6  -9  -1    1.01    4.85
  -6  -9   1    6.32    6.62
  -6  -9   1    1.19    5.15
  -6   9  -1    3.44    3.88
   6  -9   2    6.07    3.33
  -6   9   2    9.08    6.90
   6   9  -2    8.90    7.50
  -6  -9  -2    5.86    6.55
  -6  -9  -2    1.71    5.91
  -6  -9   2    3.97    6.53
   6  -9  -2   24.58   10.72
  -6   9   3    8.55    5.88
  -6  -9  -3   13.77   10.96
  -6  -9  -3    2.94    6.48
   6   9   3    4.67    6.37
   6  -9  -3    1.88    5.62
  -6   9  -3    4.09    5.69
  -6   9   4   40.25   16.12
   6   9   4   58.57   22.20
   6  -9  -4   44.41   17.76
  -6   9   5   36.83   18.59
   6  -9  -5   28.34   14.41
  -6   9   6  102.67   51.29
   6  -9  -6  144.00   71.80
   6  -9   7    2.13    9.21
   6   9  -7    7.97   11.14
  -6  -9   7    3.32    9.41
   6  -9  -7    5.66    3.81
  -6   9  -7   10.59    9.11
   6  -9   8    6.39    9.72
   6   9  -8    9.15   10.85
  -6  -9   8    6.37   11.92
  -6   9  -8    2.90    8.71
   6   9  -9   52.68   24.53
  -6  -9   9   48.97   23.41
  -6   9  -9   41.44   19.73
   6  -9  10   31.83   16.81
   6   9 -10    5.87    8.94
  -6  -9  10   10.66    6.93
  -6   9 -10   61.22   27.96
   6  -9  11   -2.20    7.55
   6   9 -11    5.82    8.06
   6   9 -11    4.63    5.84
  -6  -9  11    5.04    9.80
  -6  -9  11    3.76    6.46
  -6   9 -11    1.97    8.24
   6   9 -12    2.34    6.48
   6   9 -12   10.31    6.60
  -6  -9  12    5.31    8.57
  -6  -9  12    7.50    6.05
   6  -9  13   -3.94   10.14
   6  -9  13    2.93    4.63
   6   9 -13    1.82    7.45
   6   9 -13   10.31    6.15
  -6  -9  13    3.11   11.21
  -6  -9  13    6.93    6.42
  -6   9 -13    6.50   10.81
  -6   9 -13    5.14    4.05
   6   9 -14    2.83    7.34
   6   9 -14    1.21    5.33
  -6  -9  14    1.34    4.53
  -6   9 -14   -1.71    8.88
   6   9 -15    5.43    8.61
   6   9 -15    2.01    4.92
   6  10   0  271.86   67.76
  -6 -10   0  275.66  101.80
  -6 -10   0  217.84   54.41
   6 -10   1   13.97    4.91
   6  10  -1   17.91    6.70
   6  10  -1   15.33    8.43
  -6 -10  -1   13.57   10.84
  -6 -10  -1   12.33    5.52
  -6 -10   1   17.05    9.13
   6 -10  -1   21.15   10.70
  -6  10  -1   13.44    6.07
   6 -10   2   13.18    4.52
  -6  10   2   27.44   11.85
   6  10  -2   10.27    7.62
  -6 -10  -2   12.71    8.03
  -6 -10  -2   13.36    7.62
  -6 -10   2    7.33    6.67
   6 -10  -2   16.60    8.33
  -6  10  -2   11.31    4.24
  -6 -10  -3   60.27   18.28
   6 -10  -3   53.16   20.85
  -6  10  -3   24.73    8.21
  -6  10   4  148.03   73.83
  -6 -10  -4  144.58   53.07
   6 -10  -4   53.15   20.71
   6 -10  -4  112.52   56.17
  -6  10   5   97.27   48.60
  -6 -10  -5   84.88   31.77
   6 -10  -5   38.86   15.59
   6 -10  -5   52.05   26.14
   6 -10  -6   18.59    9.68
   6 -10   8   59.97   28.71
   6  10  -8   41.65   22.42
  -6  10  -8   41.25   21.27
   6 -10   9  359.64  155.05
   6  10  -9  310.11  133.86
  -6 -10   9  309.30  133.63
  -6  10  -9  228.90   98.96
   6  10 -10   91.44   40.57
  -6 -10  10  146.30   64.18
  -6  10 -10  169.68   73.73
   6 -10  11   19.99   11.69
   6  10 -11   11.31    9.29
  -6 -10  11   18.82    8.74
  -6  10 -11   12.51    9.30
   6 -10  12   16.10   10.15
   6  10 -12   23.38    9.61
   6  10 -12   24.31   12.74
  -6 -10 -12   46.25   17.22
  -6 -10  12   25.99   14.39
  -6 -10  12   54.03   19.32
  -6  10 -12   37.38   18.40
   6  10 -13   19.65   10.65
   6  10 -13    6.05    5.79
  -6  10 -13   23.80   12.89
  -6 -10  14    5.84    6.33
  -6  10 -14   52.35   24.57
   6  10 -15   19.89    8.75
  -6  10 -15    9.38    5.32
   6  11   0   56.30   22.19
  -6 -11   0   65.11   25.29
  -6 -11   0   18.48    6.68
   6 -11   0   19.36    9.58
  -6  11   1   25.67   11.84
   6  11  -1   38.18   10.67
  -6 -11  -1   48.20   13.56
  -6 -11  -1   44.40   19.20
  -6 -11  -1   15.39    9.05
   6  11   1   38.75   15.92
  -6 -11   1   35.78   14.80
  -6 -11   1   35.27   10.10
   6 -11  -1   28.26   12.43
  -6  11  -1   39.14   10.75
  -6  11   2   83.30   41.65
  -6  11   2   68.70   25.87
   6  11  -2   17.34    9.44
   6  11  -2   41.75   12.14
  -6 -11  -2   38.80   15.45
  -6 -11   2   37.38   15.60
   6 -11  -2   42.63   16.77
  -6  11  -2   36.75    9.74
  -6  11   3   30.98   15.71
  -6  11   3   18.85    9.19
  -6 -11  -3    5.04    7.74
  -6 -11  -3    8.12    9.60
   6 -11  -3   28.90   12.58
   6 -11  -3   78.83   39.42
   6 -11  -3    3.90    6.62
  -6  11  -3    3.10    4.80
  -6  11   4   18.68    9.33
  -6  11   4   53.47   26.86
  -6 -11  -4   35.77   14.47
   6  11   4   11.54    7.12
   6 -11  -4   21.01    9.66
   6 -11  -4   31.99   16.23
  -6 -11  -5   29.46   12.99
   6  11   5   24.57   11.22
   6 -11  -5    9.43    6.87
   6 -11  -5   26.03   13.32
   6 -11   8   68.75   31.63
  -6 -11   8   30.58   18.01
   6 -11   9    2.45    9.47
   6  11  -9   -6.42   12.05
  -6 -11   9   10.99   12.21
  -6  11  -9   10.41   13.17
   6  11 -10    5.45    9.07
  -6 -11  10   -1.51   10.55
  -6  11 -10    2.90    8.93
   6 -11  11   -1.29   10.27
   6  11 -11    3.82    7.16
  -6 -11  11   11.22   11.58
  -6  11 -11   13.73   10.40
   6 -11  12    0.99    7.84
   6  11 -12   11.09    9.16
  -6  11 -12   -1.44    8.25
   6  11 -13   11.42    7.69
  -6 -11  13   51.91   18.94
  -6  11 -13    4.58    7.48
   6  11 -14    1.27    6.55
   6  11 -14    4.31    5.13
  -6  11 -14    9.47    9.77
   6  11 -15   -1.08    5.27
   6  12   0   87.01   33.03
   6  12   0   79.44   20.53
  -6 -12   0   82.89   21.31
   6 -12   0   77.80   29.21
  -6  12   0  121.30   60.51
   6 -12   1  122.22   30.57
  -6  12   1  191.45   95.42
  -6  12   1  183.27   67.01
   6  12  -1  132.36   33.41
  -6 -12  -1  336.26  124.07
  -6 -12  -1  147.57   54.89
   6  12   1  337.53  124.41
   6  12   1  121.19   30.72
  -6 -12   1  131.44   33.16
   6 -12  -1  160.23   58.65
  -6  12  -1  135.82   33.97
  -6  12   2   82.64   41.31
   6  12  -2   67.64   18.22
  -6 -12  -2   81.41   31.07
  -6 -12  -2   97.14   36.08
   6  12   2   83.71   31.47
  -6 -12   2   63.48   24.95
  -6 -12   2   55.78   14.95
   6 -12  -2   80.23   40.13
   6 -12  -2   63.53   24.43
  -6  12  -2   55.55   14.36
  -6  12   3  187.31   93.38
  -6  12   3    4.33    6.23
  -6  12   3   10.44    8.14
  -6 -12  -3   19.09   10.46
  -6 -12  -3   33.13   13.12
   6  12   3   15.66   10.03
   6 -12  -3    5.05    6.06
   6 -12  -3  158.85   79.22
   6 -12  -3   33.80   13.96
  -6  12  -3   19.69    6.78
  -6  12   4   22.92   10.40
  -6 -12  -4   60.18   23.32
   6 -12  -4   26.54   11.75
   6 -12  -4   51.27   25.76
  -6  12   5   60.17   23.47
   6  12   5   50.35   19.71
   6 -12   9   54.34   25.80
   6  12  -9   85.21   38.46
  -6 -12   9   43.44   22.42
  -6  12  -9   19.99   13.45
   6 -12  10   73.69   33.28
  -6 -12  10    7.69   10.31
   6  12 -11   47.67   22.45
  -6  12 -11   57.46   26.61
   6  12 -12   16.43    9.64
  -6  12 -12   23.57   13.16
   6  12 -13    9.71    8.92
  -6  12 -13   10.81    9.46
   6  13   0  671.01  166.45
   6  13   0  957.97  352.16
  -6 -13   0  763.51  280.73
   6 -13   0  809.25  293.40
  -6  13   0  508.94  184.89
  -6  13   0  565.84  281.88
   6 -13   1    3.90    4.21
  -6  13   1    9.96    5.68
  -6  13   1   20.15    9.73
   6  13  -1    5.20    6.12
   6  13  -1   13.04    6.21
  -6 -13  -1   16.69   13.16
   6  13   1    7.89    7.38
   6  13   1   15.13    6.18
  -6 -13   1    7.98    7.15
  -6 -13   1    9.71    5.47
  -6  13  -1    8.77    4.84
   6 -13   2 1759.04  435.67
  -6  13   2 1677.25  835.29
  -6  13   2 1663.43  602.59
   6  13  -2 2176.05  539.12
   6  13  -2 1765.96  648.33
   6  13   2 3005.46 1088.48
  -6 -13   2 2090.80  767.32
  -6 -13   2 1810.88  448.69
   6 -13  -2 1890.36  941.38
   6 -13  -2 2462.89  892.07
  -6  13  -2 1935.29  479.33
  -6  13   3   16.31    9.02
  -6 -13  -3   26.23   12.59
  -6 -13  -3   35.54   15.02
   6  13   3   44.49   18.48
   6 -13  -3   13.80    8.76
   6 -13  -3   35.28   17.87
  -6  13  -3   16.29    6.47
  -6  13   4  256.88   95.05
  -6 -13  -4  264.72   96.60
   6  13   4  347.32  126.49
   6 -13  -4  304.81  112.51
  -6 -13  -5   41.92   17.38
   6 -13  -5   67.24   26.07
  -6 -13  -6   39.72   17.06
   6 -13  10  147.11   64.51
   6  13 -10   39.44   20.06
  -6 -13  10   22.01   14.81
   6  13 -11   49.61   23.27
  -6 -13  11   40.79   20.93
  -6  13 -11   74.15   33.86
   6  13 -12   18.72   10.92
  -6  13 -12   20.16   12.21
   6  13 -13    0.16    6.54
  -6  13 -13   13.62   11.43
   6  14   0   66.99   26.00
   6  14   0   43.24   12.01
  -6 -14   0   52.45   21.25
   6 -14   0   19.92   10.37
   6 -14   0   58.14   22.44
  -6  14   0   54.45   27.32
  -6  14   0   49.34   19.76
  -6  14   1  259.88  129.48
   6  14  -1    5.30    6.77
   6  14  -1    8.85    5.32
  -6 -14  -1    9.74   11.46
  -6 -14  -1   12.36    9.32
   6  14   1    4.11    4.92
  -6 -14   1   13.10    8.64
  -6 -14   1    6.25    5.91
   6 -14  -1    8.24    8.41
   6 -14  -1  158.39   79.01
   6 -14   2    5.94    3.07
  -6  14   2    5.10    7.17
   6  14  -2    3.27    6.19
   6  14  -2    4.27    7.58
  -6 -14  -2    1.37    6.97
   6  14   2    4.92    6.45
  -6 -14   2    7.24    8.24
  -6 -14   2    6.27    5.77
   6 -14  -2    6.05    4.16
  -6  14   3   19.88   10.66
  -6  14   3   76.67   29.11
  -6 -14  -3   11.66   11.60
   6  14   3   49.49   20.06
   6 -14  -3   32.36   14.19
  -6  14  -3   20.68    7.10
  -6  14   4   -1.29    6.97
  -6  14   4    4.13    7.32
   6  14   4    3.04    8.30
   6 -14  -4    3.50    6.72
   6 -14  -4   10.63    8.62
  -6 -14  -5   19.81   10.87
   6  14   5   12.81    8.70
  -6 -14  -6   33.40   14.80
   6  14   6   28.07   13.79
   6 -14  -6   37.95   16.31
   6 -14  10    2.74    8.63
  -6 -14  10   13.98   11.44
   6  14 -11    2.58    8.87
  -6  14 -11    3.45   10.11
   6  14 -12    5.12    6.79
  -6  14 -12   -0.31    7.66
   6  15   0  117.73   29.92
   6  15   0  159.20   59.53
  -6 -15   0  117.85   29.97
  -6 -15   0  149.07   55.93
   6 -15   0  157.35   57.75
  -6  15   0  121.76   60.82
  -6  15   0  107.35   39.94
   6 -15   1  105.78   52.84
   6  15  -1    7.35    7.98
   6  15  -1   11.82    6.34
  -6 -15  -1    5.62   11.41
  -6 -15  -1   40.50   17.33
   6  15   1   10.86    6.21
   6  15   1   47.74   19.64
  -6 -15   1   14.68    9.57
   6 -15  -1    4.13    7.11
  -6  15  -1  157.93   78.82
   6 -15   2   31.78    8.52
   6  15  -2   18.53   10.84
   6  15  -2   23.14    8.81
  -6 -15   2   33.44   15.25
   6 -15  -2   35.34   15.93
  -6  15  -2   23.07    6.40
  -6  15  -2  210.69  105.04
  -6  15   3   43.07   18.24
  -6  15   3   29.94   13.14
  -6 -15  -3   13.33   11.55
   6  15   3   56.92   22.62
   6 -15  -3   22.42   11.12
  -6  15  -3   12.91    5.87
  -6  15   4   79.63   30.88
  -6  15   4  100.64   37.92
   6  15   4  122.34   45.66
   6 -15  -4  142.39   52.71
  -6  15   5   51.83   21.23
   6  15   5   85.98   32.54
   6 -15  -5  118.19   44.70
  -6  15   6   20.02   10.63
   6  15   6   14.62    8.74
   6 -15  -6   49.68   20.56
  -6 -15  -7   26.50   12.13
   6  16   0  174.17   65.24
   6  16   0  265.06   66.26
  -6 -16   0  204.01   76.04
  -6 -16   0  236.62   59.29
  -6  16   0  212.08   77.62
   6 -16   1  253.20  126.26
  -6  16   1  122.46   45.73
   6  16  -1  113.76   29.01
   6  16  -1  121.88   46.19
  -6 -16  -1  134.32   50.72
  -6 -16  -1  272.55  100.21
   6  16   1  178.09   66.59
   6  16   1  114.92   29.51
  -6 -16   1  152.51   38.69
  -6 -16   1  154.47   58.07
   6 -16  -1  217.26   79.61
  -6  16  -1  306.08  152.51
   6 -16   2   62.42   31.30
  -6  16   2   36.23   16.73
  -6  16   2   29.70   15.04
   6  16  -2   54.14   15.09
   6  16  -2   32.34   15.32
  -6 -16  -2   26.17   13.74
  -6 -16  -2   28.71   14.71
   6  16   2   51.69   21.15
  -6 -16   2   32.68   15.29
   6 -16  -2   36.84   16.46
  -6  16  -2   72.14   18.26
  -6  16  -2   59.38   29.82
  -6  16   3  400.88  148.03
  -6 -16  -3   40.40   16.28
   6 -16  -3  323.01  119.46
   6 -16  -3  280.15  102.36
  -6  16  -3   87.17   22.44
  -6  16  -3  356.53  177.63
  -6  16   4    6.90    8.06
  -6  16   4   15.30    9.55
  -6 -16  -4   10.25    9.63
   6 -16  -4    5.39    8.02
   6 -16  -4    5.94    7.72
  -6  16   5  163.69   61.25
  -6 -16  -5  160.58   59.06
   6 -16  -5  101.67   38.28
  -6  16   6    3.28    5.51
  -6 -16  -6    1.73    5.86
  -6 -16  -7  111.26   41.41
   6  16   7   70.35   27.24
   6  17   0   57.46   23.55
  -6 -17   0   55.31   22.56
  -6  17   0   96.65   36.51
   6 -17   1   19.85   10.38
  -6  17   1    3.78    8.70
   6  17  -1    7.09    8.65
  -6 -17  -1    5.66    6.36
  -6 -17  -1    5.29   12.88
  -6 -17  -1   28.19   13.18
   6  17   1   17.82   10.74
   6  17   1   14.77    7.15
  -6 -17   1    6.36    8.24
   6 -17  -1   12.83    9.73
  -6  17  -1   17.74   14.30
   6 -17   2   67.39   17.01
   6 -17   2   73.22   36.67
  -6  17   2   84.46   32.47
  -6  17   2   68.20   27.05
   6  17  -2   78.62   30.71
  -6 -17  -2   25.38   12.96
   6  17   2   81.89   31.98
  -6 -17   2   60.87   24.47
   6 -17  -2   72.68   27.96
  -6  17  -2  116.00   57.96
  -6  17  -2   59.26   15.03
   6 -17   3   14.99    7.92
  -6  17   3    1.95    6.34
  -6  17   3    1.75    8.12
  -6 -17  -3    0.62    6.76
  -6 -17  -3    3.65    8.01
  -6 -17  -3   44.42   17.71
   6 -17  -3    3.48    6.50
   6 -17  -3    2.10    7.42
  -6  17  -3   11.08    6.15
  -6  17   4    9.03    6.99
  -6  17   4   23.15   10.95
  -6 -17  -4   13.31    8.38
  -6 -17  -4    9.09    8.05
   6  17   4   11.18   10.91
   6 -17  -4    6.15    6.34
   6 -17  -4   12.61    8.32
  -6  17  -4   21.09   10.89
  -6  17   5    2.91    5.68
  -6  17   5    5.47    7.79
   6  17   5   56.12   22.16
   6 -17  -5    4.07    6.00
   6 -17  -5    6.25    7.13
  -6  17   6   29.82   12.72
  -6 -17  -6   26.06   11.95
   6  17   6   25.90   12.14
   6 -17  -6   24.70   11.42
  -6 -17  -7   14.27    8.34
   6  17   7   16.55    9.40
   6 -17  -7   15.00    8.04
   6  18   0  295.59  109.44
   6  18   0   58.35   15.79
  -6 -18   0  238.23   88.70
  -6  18   0   57.68   22.43
  -6  18   1    3.92    6.92
   6  18  -1    8.72    5.58
   6  18  -1   12.89    8.62
  -6 -18  -1    7.80   11.39
   6  18   1    9.55    8.75
  -6 -18   1    6.59    7.49
  -6 -18   1    7.18    6.41
   6 -18  -1    0.70    6.04
  -6  18  -1   18.26   13.90
   6 -18   2   11.75    6.50
   6 -18   2   12.74    3.98
  -6  18   2    5.93    7.22
  -6  18   2   54.03   21.47
   6  18  -2    7.80    5.66
   6  18  -2   17.43   10.31
  -6 -18  -2    5.13    6.92
  -6 -18  -2    5.88    7.46
   6  18   2    3.33    6.07
  -6 -18   2    8.28    7.92
  -6 -18   2   15.75    7.27
   6 -18  -2   19.62    9.81
  -6  18  -2   10.20    3.75
   6 -18   3   18.17    9.44
  -6  18   3   19.00   10.76
  -6  18   3   44.39   18.39
   6  18  -3    6.31    7.14
  -6 -18  -3   16.01    8.45
  -6 -18  -3    6.03   11.04
  -6 -18  -3    3.85    6.77
   6 -18  -3    8.42    7.29
  -6  18  -3   34.09   17.30
   6 -18   4   11.58    6.25
  -6  18   4    6.09    7.24
  -6 -18  -4    5.22    7.66
   6  18   4    1.82    8.57
   6 -18  -4    5.92    6.54
   6 -18  -4    1.97    6.30
  -6  18  -4   12.67    6.89
  -6  18   5   13.55    9.36
  -6 -18  -5   74.66   28.41
   6  18   5   43.91   18.36
   6 -18  -5   19.32    9.72
   6 -18  -5   39.81   17.03
  -6 -18  -6    2.13    5.62
   6  18   6    3.22    6.54
   6 -18  -6    5.75    6.50
  -6  18   7  196.29   72.92
   6  18   7  101.33   37.96
   6 -18  -7   99.02   37.57
  -6 -18  -8   22.65   11.17
   6  19   0    4.83    4.41
   6  19   0    6.11    7.17
  -6 -19   0    2.48    4.78
  -6  19   0    2.38    6.05
  -6  19   1    6.05    6.87
   6  19  -1   10.21    5.48
   6  19  -1    2.14    6.49
  -6 -19  -1   -0.78   10.20
  -6 -19  -1    1.70    6.05
   6  19   1   -0.14    5.24
  -6 -19   1    1.26    5.48
  -6 -19   1    4.94    4.85
  -6  19  -1    3.39   11.41
   6 -19   2    9.52    3.16
  -6  19   2    8.48    7.11
  -6  19   2    7.81    8.05
   6  19  -2    5.66    7.08
   6  19  -2    5.45    5.01
  -6 -19  -2    5.53    7.11
  -6 -19  -2    5.87    6.51
  -6 -19   2   10.41    7.84
  -6 -19   2    9.01    5.87
  -6  19  -2   15.22    4.74
   6 -19   3    3.95    3.13
  -6  19   3    5.83    7.68
   6  19  -3   -0.29    6.73
  -6 -19  -3    1.42    6.02
  -6 -19  -3   21.03   11.34
  -6 -19  -3    0.25    6.31
   6  19   3    3.10    5.48
   6  19   3    1.41    7.98
   6 -19  -3   -0.75    5.63
   6 -19   4    7.97    4.69
  -6  19   4    2.48    7.06
  -6 -19  -4   30.25   13.55
   6  19   4   12.69    7.04
   6  19   4   24.43   12.40
   6 -19  -4    1.63    5.43
   6 -19   5   12.34    6.57
  -6  19   5   13.47    7.53
  -6  19   5    3.48    6.52
  -6 -19  -5    1.36    4.50
   6  19   5    0.69    7.59
   6 -19  -5   10.17    7.16
   6 -19  -5    4.95    6.66
  -6  19   6   25.65   11.90
   6  19   6   11.99    7.27
   6 -19  -6   18.56   10.06
   6 -19  -6    3.13    7.49
  -6  19  -6   53.12   26.63
  -6  19   7   11.02    7.00
  -6 -19  -7   -0.33    6.31
   6  19   7    3.20    5.79
   6 -19  -7    2.52    5.47
   6  19   8    6.67    6.93
   6  20   0   72.47   28.07
   6  20   0   52.16   14.10
  -6 -20   0   47.18   18.83
  -6 -20   0   56.60   15.19
  -6  20   0   57.63   22.57
  -6  20   1    7.50    7.74
   6  20  -1    2.18    4.47
   6  20  -1    2.64    5.98
  -6 -20  -1    1.16    5.22
  -6 -20  -1    6.95   11.23
  -6 -20  -1    9.09    6.85
   6  20   1    3.51   14.46
  -6 -20   1    8.80    5.17
  -6  20  -1    5.98   12.38
  -6  20   2    1.03    6.24
  -6  20   2    8.08    7.95
   6  20  -2    4.82    6.78
  -6 -20  -2   15.74    9.16
  -6 -20  -2   -3.18    7.81
   6  20   2   25.55   11.70
   6  20   2   -1.63    8.12
  -6 -20   2    2.96    6.17
   6  20  -3   -1.64    5.42
  -6 -20  -3    6.68    8.47
  -6 -20  -3   33.50   14.46
  -6 -20  -3    7.79    8.29
   6  20   3   12.22    7.93
   6  20   3   11.24    9.86
   6 -20  -3   13.86    8.69
   6 -20  -3   20.49   11.73
   6 -20   4    2.46    2.76
  -6  20   4    6.43    6.26
  -6 -20  -4    6.18    8.05
   6  20   4    8.89    9.25
   6  20   4   17.18    8.51
   6 -20  -4    5.64    6.04
   6 -20  -4   -0.64    7.20
   6 -20   5   45.93   23.09
  -6  20   5   35.65   15.18
  -6  20   5   21.22   10.93
   6 -20  -5   88.70   34.02
   6 -20  -5    6.65    7.75
   6 -20   6    8.26    4.82
  -6  20   6   14.96    8.28
  -6  20   6    3.65    7.28
  -6 -20  -6    5.40    7.34
   6  20   6    4.68    5.85
   6 -20  -6   52.11   20.82
   6 -20  -6    2.61    7.79
  -6  20  -6    1.84    2.49
  -6  20   7   42.16   17.00
   6  20   7   24.87   11.11
  -6  20  -7   24.43   12.46
   6  20   8    4.60    7.20
   6  21   0   54.67   14.53
   6  21   0   61.96   24.23
  -6 -21   0   43.52   17.73
  -6 -21   0   53.16   14.51
   6 -21   0  116.46   45.43
  -6  21   0  117.85   44.06
  -6  21   1   12.37    8.91
   6  21  -1    2.40    3.83
   6  21  -1    5.53    6.80
  -6 -21  -1   -1.13   12.21
  -6 -21  -1   13.21    8.12
   6  21   1    9.55    6.60
   6  21   1    1.47   15.78
  -6  21  -1    0.54   13.51
   6 -21   2  129.14   32.20
  -6  21   2  151.03   56.76
   6  21  -2  138.47   35.15
   6  21  -2  104.36   39.75
  -6 -21  -2   98.90   37.39
   6  21   2   65.40   25.49
   6  21   2   69.56   28.07
  -6 -21   2  127.41   48.05
  -6 -21  -3    2.64    6.89
   6  21   3    6.58    6.06
   6  21   3    2.70    7.98
   6 -21  -3    2.27    6.07
   6 -21  -3    2.11    8.30
  -6  21   4   36.56   15.45
  -6  21   4   69.39   27.34
  -6 -21  -4   36.52   15.30
   6  21   4   50.51   20.08
   6  21   4   51.20   20.82
   6 -21  -4   48.28   19.56
   6 -21  -4   92.93   35.19
   6 -21   5   19.80   10.28
  -6  21   5    8.65    7.09
  -6  21   5    9.06    7.62
  -6 -21  -5    2.36    7.71
   6 -21  -5    6.93    7.02
   6 -21   6   47.47   23.88
  -6  21   6   68.20   26.48
  -6  21   6   36.03   16.13
  -6  21   7    4.79    5.68
   6  21   7   12.61    8.66
   6  22   0    3.17    4.08
  -6 -22   0    1.75    5.57
   6 -22   0    5.25   12.73
  -6  22   0    0.58    6.72
  -6  22   1   -0.39    6.00
   6  22  -1    6.73    6.58
   6  22  -1    3.36    5.03
  -6 -22  -1    0.63    5.52
  -6 -22  -1    1.73   11.14
   6  22   1    6.00    5.97
   6  22   1    0.07    4.53
   6  22   1    5.13   14.69
   6 -22  -1    5.54    8.68
  -6  22  -1    4.40   11.68
   6 -22   2    4.92    2.09
  -6  22   2    0.72    6.84
   6  22  -2    2.14    6.33
  -6 -22  -2   -2.10    7.21
   6  22   2    6.16    5.89
   6  22   2   -1.90    8.23
  -6 -22   2   -2.17    5.95
   6 -22  -2   -0.26    7.42
  -6  22   3   10.89    9.46
   6  22  -3    3.69    5.85
   6  22   3   28.99   12.50
   6  22   3   10.06    9.23
  -6  22   4   -0.13    5.48
  -6  22   4    0.19    8.64
   6  22   4    0.56    4.43
   6  22   4   -1.29    7.66
  -6  22   5    6.32    6.47
  -6  22   5    4.09    7.82
   6 -22   6   12.33    7.00
  -6  22   6    1.54    5.52
  -6  22   6   -2.49    7.72
   6  22   6    0.06    7.59
  -6  23   0   17.51    9.93
   6  23  -1    0.53    5.68
   6  23   1    3.71    5.68
   6  23   1   -1.38   15.17
  -6  23  -1   -0.52   14.51
  -6  23   2    6.18    7.71
   6  23  -2   16.12    9.20
   6  23   2   30.04   12.96
   6  23   2    3.30    9.05
  -6  23   3    6.67    9.80
   6  23   3    9.98    9.06
  -6  23   4    1.74    6.42
  -6  23   4    9.17    9.30
   6  23   4   24.71   11.05
   6  23   4   12.90    9.34
  -6  23   5    3.81    7.32
  -6  24   0    3.54    8.07
   6  24  -1    2.52    6.94
   6  24   1    4.34    6.52
  -6  24   2    0.77    7.85
   6  24  -2   -0.20    6.96
   7   0   0   -6.16    9.62
  -7   0   0    6.52    9.08
  -7   0   0   32.66   14.39
   7   0   1  854.76  309.65
  -7   0  -1  548.34  198.71
   7   0   2  113.04   29.46
  -7   0  -2   99.98   26.53
  -7   0  12   34.11   14.07
   7   1   0    3.03    5.99
   7   1   0   13.18    7.10
  -7  -1   0    0.91    6.90
  -7  -1   0   36.33   13.71
  -7   1   0    4.34    8.82
   7  -1   1  185.69   79.77
   7  -1   1  149.07   37.76
   7   1  -1  216.11   92.96
   7   1  -1  159.20   52.79
  -7  -1  -1  146.88   37.80
   7   1   1  155.97   39.65
  -7   1  -1  122.92   31.91
  -7   1  -1  174.63   75.02
   7  -1   2  302.27   75.67
  -7  -1  -2  242.49   61.07
   7   1   2  269.32   67.53
  -7   1  -2  232.24   58.42
  -7  -1   8  154.93   52.37
   7  -1 -11   48.01   18.97
  -7   1  12    4.19    7.04
   7   2   0   10.59    6.97
  -7  -2   0   11.68    8.40
   7  -2   0    9.11    7.40
  -7   2   0    6.44    8.31
   7  -2   1   23.40    8.76
   7   2  -1   23.47    9.18
  -7  -2  -1   38.92   12.41
  -7  -2  -1   31.25   12.25
   7   2   1   42.18   12.61
   7   2   1   25.10   10.47
  -7   2  -1   28.53    9.75
   7  -2   2   84.27   36.83
   7  -2   2   55.73   15.59
   7   2  -2  121.07   44.78
   7   2  -2   97.94   32.84
  -7  -2  -2   92.31   34.01
  -7  -2  -2   52.54   15.26
   7   2   2   52.30   14.87
   7   2   2   67.06   25.00
  -7  -2   2  128.45   47.46
  -7  -2   2  246.75  106.07
  -7  -2   2   94.06   31.81
  -7   2  -2  192.03   82.71
  -7   2  -2   57.33   16.07
   7  -2   3   63.02   28.91
   7   2  -3   39.59   18.79
   7   2  -3   72.65   25.22
  -7  -2   3   33.75   12.98
   7  -2  -3   74.95   27.64
  -7   2  -3   20.27   14.03
   7  -2   4  393.74  128.79
   7   2  -4  423.23  181.89
  -7  -2   4  373.81  160.81
  -7   2  -4  472.07  154.36
  -7  -2   5   42.12   17.05
  -7  -2   6  148.49   50.20
  -7  -2   7   32.75   15.29
  -7  -2   8   34.19   14.56
   7  -2 -15    0.86    2.11
   7  -3   0   22.69    9.34
  -7   3   0   44.79   13.71
   7  -3   1 1221.08  302.50
   7   3  -1 1160.03  287.76
  -7  -3  -1 1179.60  292.60
   7   3   1 1110.03  275.20
   7   3   1 1545.93  560.08
  -7  -3   1 1260.25  312.64
  -7   3  -1 1304.02  323.36
   7  -3   2  412.98  102.72
   7   3  -2  557.31  204.70
  -7  -3  -2  477.14  118.88
  -7  -3  -2  598.67  217.03
   7   3   2  521.61  189.15
   7   3  -3   14.51    8.39
  -7  -3   3  253.08  108.94
  -7  -3   3   31.22   17.37
  -7  -3   3   25.47   11.11
  -7   3  -3  246.87  106.19
   7  -3   4  294.55  126.95
   7   3  -4  410.56  176.36
  -7  -3   4  452.49  194.45
  -7  -3   4  462.16  151.59
  -7  -3   4  295.71   98.34
   7   3  -5  114.89   38.94
  -7  -3   5  416.43  137.78
  -7  -3   5   91.36   31.09
   7  -3   6   65.51   21.77
   7   3  -6   61.98   29.03
  -7  -3   6   61.71   28.93
  -7   3  13   88.36   44.19
   7  -3 -14   54.60   27.38
   7  -3 -15   11.35    6.20
   7   4   0  122.92   31.40
  -7  -4   0  104.05   26.96
   7  -4   0   13.79    6.20
  -7   4   0   11.57    5.98
   7   4  -1    4.31    6.67
   7   4  -1   32.43   16.23
  -7  -4  -1    7.43    7.49
   7   4   1    7.95    6.65
   7   4   1    3.59    7.39
  -7  -4   1   13.13    8.07
   7   4  -2   14.66    7.37
  -7  -4  -2  132.94   34.09
  -7  -4   2   26.89   11.30
   7  -4   3   34.73   17.00
  -7   4   3   23.07    9.47
   7   4  -3   45.53   21.33
   7   4  -3   19.73   13.27
  -7  -4   3   44.85   21.29
  -7   4  -3   33.79   16.47
   7  -4   4   36.59   17.42
   7   4  -4   59.30   27.02
   7   4  -4   14.01    8.94
  -7  -4   4   72.14   32.08
  -7  -4   4   14.75    8.94
  -7   4  -4   61.49   27.37
   7   4  -5    1.88    7.44
   7   4  -5    1.53    6.07
  -7  -4   5   11.55    9.06
  -7  -4   5    6.36    7.08
  -7   4  -5    7.84    7.29
   7   4  -6   14.00    9.63
  -7  -4   6   22.07   15.16
   7  -4   7   85.23   28.27
   7   4  -7   47.32   17.84
  -7  -4   7   42.48   22.13
  -7  -4   7   30.84   12.57
  -7   4  -7   25.82   16.08
   7  -4   8   40.42   14.18
   7   4  -8   72.42   32.32
   7   4  -8   24.35   11.84
  -7   4  -8   80.26   26.82
  -7   4  12   35.81   18.15
  -7   4  13    9.97    5.77
   7  -4 -13   10.35    5.80
   7   5   0   10.80    6.91
  -7  -5   0    5.82    6.70
   7  -5   0    5.22    5.96
  -7   5   0    9.93    6.96
  -7   5   0   51.53   19.31
   7   5  -1  195.49   65.79
  -7  -5  -1  205.86   51.75
  -7  -5  -1  254.92   86.05
  -7  -5  -1  177.74   65.64
  -7  -5   1  221.64   81.80
  -7  -5   1  166.80   42.44
  -7   5  -1  192.61   48.24
   7   5  -2  330.04  121.42
  -7  -5  -2  126.26   46.50
  -7   5  -2  287.99   71.94
  -7   5   3  389.82  143.31
  -7  -5  -3  408.02  148.03
   7   5   3  352.16  127.87
   7  -5  -3  342.83  126.03
   7  -5   5   82.48   36.54
   7   5  -5   98.29   43.41
   7   5  -5  238.69   78.86
  -7  -5   5  124.07   54.10
  -7  -5   5  265.18   87.34
  -7   5  -5  139.51   60.52
   7  -5   6  115.66   50.47
   7   5  -6  123.15   53.55
   7   5  -6  327.97  107.78
  -7  -5   6   94.35   41.49
   7  -5   7 1145.97  491.77
   7   5  -7  154.47   51.42
  -7  -5   7  258.03   85.19
  -7   5  -7  607.89  261.49
   7  -5   8 1407.69  603.86
   7  -5   8 1020.06  333.50
   7   5  -8  755.11  324.16
   7   5  -8  847.50  277.50
  -7  -5   8 1043.10  447.77
  -7  -5   8 1071.66  350.66
  -7   5  -8  958.78  313.45
   7   5  -9   10.31    7.97
  -7  -5   9   24.16   17.30
  -7  -5   9    2.69    7.11
  -7   5  -9   24.34   16.14
  -7   5  -9   10.37    5.54
   7   5 -10   26.44   15.92
  -7   5  11   60.51   30.37
  -7   5  12   23.41   12.14
   7  -5 -12   31.84   16.15
   7  -5 -13   42.01   21.15
   7  -5 -14  121.19   60.55
   7  -6   0   29.48   12.37
  -7   6   0   59.58   22.44
   7  -6   1   47.37   12.95
   7   6  -1   26.60    9.43
   7   6  -1   62.02   23.89
  -7  -6  -1   23.38    8.44
  -7  -6  -1   30.83   15.95
  -7  -6  -1   48.83   19.83
  -7  -6   1   27.62    9.62
   7  -6  -1   25.01   10.37
   7   6  -2   34.41   14.24
  -7  -6  -2   20.86    9.74
   7   6   2   39.97   17.14
   7   6   2   43.80   17.38
  -7  -6   2   15.26    8.20
  -7   6   3   31.23   12.66
  -7  -6  -3   50.79   19.89
  -7  -6  -3   30.29   12.48
   7   6   3   60.13   18.14
   7   6   3   66.04   24.78
   7   6   3   21.78   12.23
   7  -6  -3   28.10   11.58
   7   6   4   16.59    9.93
   7  -6   5   33.75   16.71
  -7  -6   5   44.94   21.28
   7  -6   6   16.33   11.69
   7   6  -6   20.52   11.60
  -7  -6   6   84.63   37.43
  -7  -6   6   26.71   10.89
  -7   6  -6  103.23   45.12
   7  -6   7   30.85   15.26
   7   6  -7   36.37   13.90
  -7  -6   7   21.41   11.90
  -7  -6   7   48.84   18.06
  -7   6  -7   22.56   11.77
   7   6  -8   66.76   23.33
  -7  -6   8   48.46   18.10
   7  -6  -8   99.86   49.87
   7  -6   9   25.10    9.65
   7   6  -9   58.01   20.92
  -7  -6   9    6.59   14.80
  -7  -6   9   36.00   14.36
   7  -6  -9   57.29   28.74
  -7   6  -9   10.37   13.43
   7  -6  10   83.75   38.18
   7  -6  10   10.82    5.73
  -7   6  10   39.24   19.91
   7   6 -10   -1.33    9.98
  -7  -6  10    0.18   13.89
  -7  -6  10    3.95    6.38
  -7   6 -10   62.37   29.79
   7  -6  11    6.48    4.43
  -7   6  11   20.59   10.84
   7   6 -11    4.38    9.86
   7   6 -11    6.60    7.06
  -7  -6  11   10.47   12.45
  -7  -6  11    3.97    6.38
   7  -6 -11   25.54   13.11
  -7   6 -11   16.51    6.86
  -7   6 -11   24.36   13.93
   7   6 -12    8.74   10.08
   7   6 -12   10.55    7.50
   7  -6 -12   23.95   12.34
  -7   6 -12   14.22    6.18
   7  -6 -13   14.13    7.52
  -7  -7   0    5.09    6.07
  -7   7   0   13.54    7.02
   7  -7   1  240.53   59.95
   7   7  -1  353.31   88.12
   7   7  -1  249.40   92.13
  -7  -7  -1  366.66  133.63
   7   7   1  265.75   97.25
  -7  -7   1  277.16  102.33
  -7  -7   1  281.54   70.44
   7  -7  -1  267.83   97.29
   7  -7   2   37.61   10.26
   7   7  -2   28.48   12.19
   7   7   2   39.06   12.46
   7   7   2   55.22   21.14
  -7  -7   2   31.90   13.56
  -7   7  -2   38.51   10.95
  -7   7   3  116.35   43.33
  -7  -7  -3  148.15   50.12
   7   7   3   57.81   21.91
   7   7   3   66.74   19.09
  -7  -7  -4   16.12    8.34
   7   7   4   85.65   30.63
   7  -7  -4   48.68   18.72
  -7  -7  -5  304.35  101.04
  -7  -7   5  604.89  259.88
   7  -7   6   62.86   28.51
   7   7  -6   39.20   18.92
  -7  -7   6   58.04   26.73
  -7   7  -6   34.89   17.07
  -7  -7   7   75.21   33.49
  -7   7  -7  108.78   47.20
   7  -7   8  182.47   78.90
   7   7  -8    8.97    7.19
  -7  -7   8    8.62    8.13
   7  -7  -8   20.92   10.74
  -7   7  -8  179.70   77.72
   7  -7   9    7.40    9.16
  -7   7   9   60.10   30.23
   7   7  -9   17.94   12.15
   7   7  -9   11.62    7.86
  -7  -7   9   10.38   10.48
  -7  -7   9    9.36    8.01
  -7   7  -9    5.09    8.28
   7  -7  10  134.09   59.30
  -7   7  10   42.14   21.36
   7   7 -10   15.34    8.45
  -7  -7  10   29.86   19.03
  -7  -7  10   49.27   18.02
   7  -7 -10   23.45   12.20
  -7   7 -10   68.02   31.74
   7  -7  11   17.46   12.54
   7   7 -11   24.36   14.39
   7   7 -11   45.25   16.68
  -7  -7  11   32.60   19.84
   7  -7 -11   31.58   16.10
  -7   7 -11   14.32    6.34
  -7   7 -11   36.67   18.32
   7  -7  12   -3.10   10.25
  -7  -7  12    5.51   11.83
  -7  -7  12   18.53    8.85
   7  -7 -12   16.55    8.79
  -7   7 -12    4.56    9.66
  -7   7 -12   26.83    9.77
   7  -7  13   36.59   13.27
   7   7 -13   40.21   19.59
   7   7 -13   80.69   27.66
  -7  -7  13   -2.63   10.77
  -7  -7  13   40.55   15.29
  -7   7 -13   79.50   35.90
  -7   7 -13   59.25   20.10
   7   7 -14   22.84   12.78
   7   7 -14   27.14   11.62
  -7   7 -14   35.96   12.82
  -7   7 -15    0.67    3.51
   7   8   0   12.31    6.18
   7  -8   0    0.83    5.41
  -7   8   1  673.09  243.99
   7   8  -1  610.08  151.59
   7   8  -1  477.48  175.67
  -7  -8  -1  646.71  234.77
  -7  -8  -1  639.46  158.74
   7   8   1  501.68  182.35
   7   8   1  457.44  113.76
  -7  -8   1  408.72  150.45
  -7  -8   1  484.17  120.38
  -7   8  -1  559.27  138.70
   7  -8   2   89.00   22.58
   7   8  -2   92.08   34.73
  -7  -8  -2   47.86   18.75
   7   8   2   70.04   18.85
  -7  -8   2  116.35   43.50
  -7   8  -2   80.11   20.50
  -7   8   3 1117.52  410.21
  -7  -8  -3  865.12  313.56
   7   8   3  548.57  136.51
   7   8   3  780.56  283.03
   7  -8  -3 1084.80  398.35
  -7  -8  -4  349.97  127.18
   7   8   4  367.24  133.40
  -7  -8  -5  297.44   98.72
   7  -8   6   68.68   31.01
   7   8  -6  112.18   49.26
  -7  -8   6   42.99   21.01
  -7   8  -6   44.05   20.18
  -7  -8  -7   25.76   12.22
  -7  -8   7  186.04   80.68
  -7   8  -7   85.59   37.51
  -7   8   8  120.38   60.14
   7   8   8  144.58   49.38
  -7  -8   8  244.91  105.85
   7  -8  -8   47.21   23.82
  -7   8  -8  144.81   62.84
   7  -8   9   68.61   31.09
  -7   8   9   27.39   14.22
   7   8  -9   41.41   20.29
   7   8  -9   38.60   14.46
  -7  -8   9   57.40   26.44
  -7  -8   9   17.44    9.99
   7  -8  -9   24.72   12.80
   7   8 -10  529.33  227.51
   7   8 -10  519.65  170.37
  -7  -8  10  492.92  212.08
   7  -8 -10  698.09  347.78
  -7   8 -10  370.93  159.66
   7  -8  11    6.74   11.55
  -7  -8  11    8.22    7.04
  -7   8 -11   16.40   10.57
   7  -8  12    2.53    4.56
   7   8 -12    2.10    8.67
   7   8 -12    3.40    5.30
  -7  -8  12    2.04   12.28
  -7  -8  12    9.37    6.79
  -7   8 -12   -1.53    9.51
  -7   8 -12   32.60   11.62
   7  -8  13   12.49   12.25
   7  -8  13  126.95   42.23
   7   8 -13   94.78   41.92
   7   8 -13  156.89   52.29
  -7  -8  13   91.44   42.28
  -7  -8  13  130.64   43.79
  -7  -8  14   12.72    7.49
  -7   8 -14   22.76   13.65
  -7   8 -14   20.22    8.01
   7   8 -15   11.26   10.25
   7   8 -15    8.45    6.31
  -7   8 -15   -0.26   10.64
  -7   8 -15    2.10    3.65
   7   9   0    9.54    6.53
   7   9   0   -2.48    5.56
  -7  -9   0    5.57    6.08
  -7  -9   0   -1.51    5.53
   7  -9   0    4.05    4.96
  -7   9   0    4.89    5.37
   7  -9   1   31.03    8.60
   7   9  -1   11.65    7.19
  -7  -9  -1   27.05    8.50
  -7  -9  -1   25.62   13.05
   7   9   1   24.92    8.36
  -7  -9   1   26.52   11.37
  -7  -9   1   35.01   10.64
   7  -9  -1   64.21   24.24
  -7   9  -1   27.52    8.18
   7  -9   2   14.77    5.10
  -7   9   2    8.14    6.88
   7   9  -2   10.92    7.21
  -7  -9  -2   16.73    8.53
   7   9   2    8.26    6.60
   7   9   2   31.43   10.79
  -7  -9   2   14.68    8.06
   7  -9  -2   17.80    8.78
  -7   9  -2   30.53    9.22
   7   9   3   12.72    8.38
   7   9   3   24.09   10.71
   7  -9  -3    7.49    6.24
  -7   9   4    8.10    6.05
  -7  -9  -4   11.19    7.46
   7  -9  -4   11.03    6.57
   7  -9  -5    2.76    4.99
   7  -9   7   -0.23    9.61
  -7   9   7   27.47   14.09
  -7  -9  -7   18.42   10.54
  -7  -9   7   -0.13    9.73
   7  -9  -7   31.30   15.90
  -7   9  -7   -4.82    7.98
   7  -9   8   20.46   13.21
  -7   9   8    8.64    5.68
   7   9  -8   22.14   14.31
   7   9   8   21.29   11.73
  -7  -9   8   18.58   14.69
   7  -9  -8   16.33    8.79
  -7   9  -8   21.40   12.49
   7  -9   9   24.42   15.89
   7   9  -9   15.25   10.79
  -7  -9  -9   18.79    9.99
  -7  -9   9   21.28   13.54
   7  -9  -9   68.66   34.44
  -7   9  -9   16.01   10.54
   7  -9  10   11.48    9.76
   7   9 -10   -4.73    8.80
   7   9  10   13.72    8.32
  -7  -9  10    2.74    6.23
  -7   9 -10    6.34    8.15
   7  -9  11    7.06    8.27
   7   9 -11    9.07    8.53
   7   9 -11    2.17    5.43
   7   9  11   16.65    8.97
  -7  -9  11    6.03   10.13
  -7  -9  11    2.89    6.56
  -7   9 -11    0.98    7.93
   7   9 -12    6.49    7.18
   7   9 -12   15.61    7.48
  -7  -9  12    9.21    9.12
  -7  -9  12   12.89    7.33
   7   9 -13    5.19    6.59
   7   9 -13    6.86    5.94
  -7  -9  13    3.32   10.72
  -7  -9  13    9.95    6.91
  -7   9 -13    6.96    9.84
   7   9 -14    8.82    8.64
   7   9 -14    2.07    5.38
  -7  -9  14    1.89    5.08
  -7   9 -14    1.48    9.27
  -7   9 -14    3.67    3.83
   7   9 -15    0.64    4.87
  -7   9 -15    1.21    3.49
   7  10   0    1.72    5.82
  -7 -10   0    2.14    5.15
  -7 -10   0    6.62    4.80
   7  10  -1   23.06   10.47
  -7 -10  -1   63.74   16.75
  -7 -10  -1   55.56   22.44
   7  10   1   68.71   18.15
  -7 -10   1   24.32   10.98
   7 -10   2    6.76    3.57
  -7  10   2   11.75    6.97
   7  10  -2   39.54   16.14
  -7 -10  -2   12.50    7.34
   7  10   2   10.39    6.26
   7  10   2    5.77    6.24
   7 -10  -2   19.49    9.26
  -7  10  -2    6.81    4.14
  -7 -10  -3  121.65   45.11
   7  10   3  353.65   88.38
   7 -10  -3  199.52   73.84
  -7  10   4   73.22   27.72
  -7 -10  -4    9.30    6.66
   7  10   4    9.36    6.84
   7 -10  -4   25.80   11.24
  -7  10   5   10.73    6.65
  -7 -10  -5   37.40   15.37
   7  10   5   32.77   13.81
   7 -10  -5   12.42    7.15
  -7  10   6  125.68   62.75
   7 -10  -6   95.23   47.58
  -7  10   7  206.89  103.20
   7 -10  -7  151.94   75.79
   7 -10   8   79.16   35.87
   7  10  -8   45.36   23.30
   7 -10  -8   64.00   32.16
  -7  10  -8   55.58   25.95
   7 -10   9   35.27   19.25
   7  10  -9   56.16   26.46
  -7 -10  -9   37.30   15.37
  -7 -10   9  150.91   66.23
  -7  10  -9  117.50   51.61
   7 -10  10   17.12   12.99
   7  10 -10   13.36    9.78
  -7 -10  10   19.39   13.60
  -7  10 -10   20.71   12.29
   7 -10  11   -1.41    7.18
   7  10 -11    0.32    7.08
  -7 -10 -11   18.27    9.14
  -7 -10  11    8.87    6.24
  -7  10 -11   15.30   10.02
   7 -10  12   -6.34    8.05
   7  10 -12   -3.80    6.67
   7  10 -12   16.02    7.90
  -7 -10  12   -4.15    8.22
  -7 -10  12   13.66    7.73
  -7  10 -12    6.63    8.43
   7  10 -13   25.48   12.96
   7  10 -13   26.03   10.88
  -7  10 -13   16.75   10.32
  -7  10 -14    2.07    8.85
   7  10 -15   10.87    6.53
   7  11   0    0.23    5.52
  -7 -11   0   34.98   14.86
  -7 -11   0    5.11    5.05
   7  11  -1   12.71    7.90
   7  11  -1   15.26    6.35
  -7 -11  -1   11.67    7.01
  -7 -11  -1    8.86    5.17
  -7 -11  -1   22.11   12.46
   7  11   1    4.63    4.74
  -7 -11   1   21.93   10.48
  -7 -11   1    6.00    4.55
   7 -11  -1   10.68    8.07
  -7  11  -1   10.15    5.31
   7 -11   2   24.34    6.99
  -7  11   2   97.43   36.11
   7  11  -2   21.24    8.62
   7  11  -2   26.36   11.75
   7  11   2   23.65    8.77
  -7 -11   2   18.57    7.08
   7 -11  -2   57.43   21.76
  -7  11  -2   28.61    8.11
  -7 -11  -3   54.19   21.08
   7  11   3   12.40    8.32
   7 -11  -3    2.17    5.86
   7 -11  -4   26.56   11.75
  -7  11   5   45.89   18.29
  -7  11   5   66.76   33.46
  -7 -11  -5   57.48   22.00
   7 -11  -5   36.51   14.89
   7 -11  -5   74.55   37.30
  -7  11   6   25.07   13.02
   7 -11  -6   23.96   12.38
   7 -11  -7   45.50   23.02
   7 -11   8   31.15   17.28
  -7 -11   8   42.43   22.21
   7 -11   9   -2.58    8.94
   7  11  -9   -0.79   10.81
  -7 -11   9    7.79   10.93
  -7  11  -9    3.04   10.94
   7  11 -10   23.40   13.33
  -7 -11  10   26.48   15.75
  -7  11 -10   29.19   15.30
   7 -11  11   33.36   17.62
   7  11 -11   18.07   10.59
  -7 -11 -11   19.89   10.34
  -7 -11  11   33.74   17.97
  -7  11 -11   22.07   12.80
   7  11 -12   -0.44    6.93
  -7 -11  12   11.16    6.63
  -7  11 -12    1.26    7.98
   7  11 -13    3.97    6.57
   7  11 -13    4.97    5.07
  -7 -11 -13    7.50    6.99
  -7 -11  13    5.43    6.51
  -7  11 -13   -2.05    7.68
   7  11 -14    1.45    7.31
   7  11 -14    1.39    4.74
  -7  11 -14    8.71   10.46
   7  12   0   55.56   14.99
  -7 -12   0   54.67   14.54
   7 -12   0    2.50    5.96
   7 -12   1  136.86   34.25
  -7  12   1  144.34   53.12
   7  12  -1  169.10   42.44
  -7 -12  -1  141.81   52.99
  -7 -12  -1  141.23   35.75
  -7 -12  -1  234.66   86.10
   7  12   1  149.76   37.90
  -7 -12   1  239.73   88.72
  -7 -12   1  182.70   45.77
   7 -12  -1  296.28  107.80
  -7  12  -1  376.34  137.20
  -7  12  -1  205.62   51.34
  -7  12   2   84.50   31.43
   7  12  -2   53.98   21.44
   7  12  -2   67.95   18.11
  -7 -12   2   70.95   27.39
  -7 -12   2   73.77   19.54
  -7  12  -2   65.74   16.83
  -7  12   3   99.45   37.51
  -7  12   3   52.07   20.42
  -7 -12  -3  166.68   61.20
   7  12   3   88.97   23.86
   7 -12  -3   99.17   37.42
   7 -12  -3   58.53   22.57
  -7  12   4  925.95  461.24
  -7  12   4  689.45  253.54
  -7 -12  -4  542.69  197.10
   7  12   4  497.65  180.86
   7 -12  -4  917.54  456.98
  -7  12   5  102.79   51.40
  -7 -12  -5   24.21   11.27
   7  12   5   40.56   16.71
   7 -12  -5   29.08   12.89
   7 -12  -5   89.82   44.93
  -7 -12  -6   19.96   10.96
   7 -12  -6   17.81    9.61
   7 -12  -6   68.14   34.22
   7 -12   9    5.90    9.83
   7  12  -9   13.66   11.25
  -7 -12   9    3.55   10.89
  -7  12  -9   29.65   16.27
   7 -12  10   88.84   39.58
  -7 -12  10  136.97   60.10
   7  12 -11   38.29   18.42
  -7  12 -11    3.67    8.47
   7  12 -12   10.86    8.03
  -7  12 -12   38.35   18.66
   7  12 -13   16.04   11.26
  -7  12 -13   20.89   12.57
   7  13   0   43.58   17.82
  -7 -13   0   37.58   16.37
  -7 -13   0    9.13    5.35
   7 -13   0    7.30    7.69
  -7  13   0   82.41   41.19
   7 -13   1 1039.88  257.69
  -7  13   1  816.97  406.87
  -7  13   1 1348.95  489.00
   7  13  -1 1184.21  434.87
  -7 -13  -1 1209.56  444.31
  -7 -13  -1 1148.85  284.76
  -7 -13  -1 1527.50  553.64
   7  13   1  813.63  299.05
  -7 -13   1  775.38  192.38
   7 -13  -1 1472.20  533.24
  -7  13  -1 1093.32  270.94
  -7  13  -1 1850.05  670.32
   7 -13   2  262.64   65.24
  -7  13   2  243.99   89.14
  -7 -13   2  242.61   60.74
   7 -13  -2  262.64   95.83
  -7  13  -2  273.13   67.93
  -7  13   3  166.68   83.15
  -7  13   3   40.09   16.40
  -7  13   3   37.88   15.76
  -7 -13  -3   76.21   28.97
   7  13   3   14.41    9.21
   7  13   3   74.31   28.59
   7 -13  -3   48.28   19.38
   7 -13  -3  153.44   76.57
  -7  13   4  484.51  241.34
  -7  13   4  330.38  121.88
  -7 -13  -4  380.03  138.24
   7  13   4  352.85  128.45
   7 -13  -4  279.58  103.28
   7 -13  -4  480.71  239.50
  -7  13   5  310.57  114.72
  -7 -13  -5  259.42   94.69
   7  13   5  309.19  112.70
   7 -13  -5  670.21  246.52
   7 -13  -5  374.27  186.50
  -7  13   6  149.53   55.86
  -7 -13  -6   51.99   21.17
   7  13   6   41.11   17.39
   7 -13  -6   95.04   36.15
   7 -13  10   15.02   11.74
   7  13 -10   68.16   31.61
  -7 -13  10   70.28   32.70
  -7  13 -10   85.42   38.53
  -7  13 -11  163.92   71.65
   7  13 -12    5.81    7.55
  -7  13 -12   24.25   13.80
   7  14   0   13.89    5.99
   7  14   0   12.37    8.72
  -7 -14   0   18.30    6.82
   7 -14   0    2.20    6.01
  -7  14   0   53.54   26.88
   7 -14   1    9.52    4.85
  -7  14   1   18.19    9.62
   7  14  -1   18.37   10.47
   7  14  -1   11.58    5.99
  -7 -14  -1    0.00    6.68
  -7 -14  -1   19.24    7.30
  -7 -14  -1   16.14   12.44
   7  14   1    0.85    6.67
  -7 -14   1   13.02    8.99
  -7 -14   1    2.01    5.24
  -7  14  -1   57.38   28.78
  -7  14  -1   15.57   12.19
   7 -14   2    6.66    3.29
  -7  14   2   19.72   10.75
   7  14  -2    7.66    6.81
  -7 -14  -2    7.45    7.09
  -7 -14  -2    1.97    7.78
   7  14   2    7.75    6.76
  -7 -14   2   40.68   17.34
  -7 -14   2    3.97    6.08
  -7  14  -2    7.38    3.55
  -7  14   3  219.80  109.61
  -7  14   3  117.39   44.18
  -7  14   3  119.92   44.40
   7  14   3  140.77   52.09
   7 -14  -3  111.55   42.07
   7 -14  -3  226.82  113.11
   7 -14  -3  158.85   58.46
  -7  14  -3   85.82   21.99
  -7  14   4   27.77   12.80
   7  14   4   16.69    9.99
   7 -14  -4   26.61   12.37
   7 -14  -4    9.93    8.50
   7 -14  -4   32.20   16.55
  -7  14   5    8.82    8.19
  -7 -14  -5    3.71    6.99
   7  14   5    5.34    7.96
  -7  14   6   20.04   10.44
  -7 -14  -6   25.17   11.54
   7  14   6    9.97    9.17
   7 -14  -6   15.38    9.07
  -7 -14  10   -3.14    9.54
   7  14 -11   12.04   10.57
  -7  14 -11   17.28   12.53
   7  14 -12    6.67    7.55
  -7  14 -12    1.54    8.10
   7  15   0    0.18    5.00
   7  15   0   14.01    8.94
  -7 -15   0    1.82    6.00
  -7 -15   0   23.80   12.03
   7 -15   0    3.44    6.46
  -7  15   0    0.76    6.59
  -7  15   0   11.13    6.47
  -7  15   1  204.59  102.02
   7  15  -1  153.21   57.57
   7  15  -1   94.54   24.56
  -7 -15  -1  120.27   45.44
  -7 -15  -1   71.03   19.02
  -7 -15  -1   77.17   31.09
   7  15   1  116.12   43.89
  -7 -15   1  108.58   41.37
   7 -15  -1  113.58   56.75
   7 -15  -1   68.10   26.51
  -7  15  -1  103.01   39.96
   7 -15   2   90.52   22.81
  -7  15   2   29.58   15.27
  -7  15   2  100.65   38.14
   7  15  -2   59.08   16.58
  -7 -15  -2   48.06   19.76
  -7 -15  -2   39.02   16.96
  -7 -15  -2   73.10   20.07
   7  15   2   48.52   19.61
   7  15   2   85.71   23.05
  -7 -15   2   38.74   17.06
   7 -15  -2   34.97   17.83
  -7  15  -2   72.47   18.51
  -7  15   3   65.63   25.86
  -7  15   3   80.96   30.53
   7 -15  -3   95.57   36.56
   7 -15  -3  152.40   76.10
   7 -15  -3   94.45   35.34
  -7  15  -3   66.35   17.21
  -7  15   4   26.53   13.20
  -7 -15  -4   61.99   24.99
   7 -15  -4    8.95    8.17
   7 -15  -4   19.47   10.64
  -7  15   5   10.73    8.04
  -7 -15  -5    6.41    7.48
   7  15   5   11.16    7.84
   7 -15  -5   16.65    9.69
  -7  15   6  102.67   39.07
  -7 -15  -6  133.86   49.33
   7  15   6  165.76   60.87
   7 -15  -6   87.78   33.64
  -7 -15  -7    3.69    6.89
   7  16   0    5.29    5.83
  -7 -16   0    4.40    8.30
   7 -16   0    6.29    8.39
  -7  16   0    4.69    9.08
  -7  16   0   22.77   11.87
  -7  16   1  170.26   84.95
   7  16  -1  129.02   33.00
  -7 -16  -1   64.20   25.98
  -7 -16  -1  110.53   43.08
   7  16   1  104.16   40.02
  -7 -16   1  129.25   48.99
  -7 -16   1  137.55   35.11
   7 -16  -1   93.29   35.41
   7 -16  -1  167.72   83.71
  -7  16  -1  184.54   92.02
  -7  16  -1  135.82   51.91
   7  16  -2   11.69    7.04
  -7 -16  -2   32.34   11.72
  -7 -16  -2    5.18    7.86
  -7 -16  -2    3.15    9.43
   7  16   2   11.07    8.29
   7  16   2   13.66    8.72
  -7 -16   2   20.17   12.14
  -7 -16   2   16.44    7.60
   7 -16  -2   13.40   11.15
   7 -16  -2   24.78   12.93
  -7  16  -2   12.96    4.50
  -7  16   3  221.18   82.25
  -7  16   3  336.61  122.57
  -7 -16  -3  192.38   71.00
   7 -16  -3  247.45   91.75
   7 -16  -3  217.26   79.74
  -7  16   4   86.48   32.88
  -7  16   4   34.17   14.85
  -7 -16  -4   41.91   17.82
   7 -16  -4   76.21   29.32
  -7 -16  -5   72.38   27.60
   7 -16  -5   48.27   19.40
  -7 -16  -6   95.82   35.76
   7  16   6   70.49   26.74
   7 -16  -6   27.14   11.95
  -7 -16  -7    3.52    6.15
   7  16   7    4.26    7.76
   7 -16  -7    7.45    6.25
   7  17   0    0.53    5.13
   7  17   0    3.69    7.36
  -7 -17   0    8.72    8.25
  -7 -17   0    2.57    5.88
   7 -17   0    1.03    6.37
  -7  17   0    2.21    6.88
  -7  17   0   28.34   14.57
   7 -17   1  105.66   52.79
  -7  17   1   36.78   15.93
   7  17  -1   44.00   12.63
   7  17  -1   52.09   20.97
  -7 -17  -1   43.27   13.12
  -7 -17  -1   92.50   36.40
  -7 -17  -1  103.54   39.70
   7  17   1   36.90   16.40
   7  17   1   32.66   10.20
  -7 -17   1   50.43   20.56
  -7 -17   1   52.70   14.64
   7 -17  -1   55.79   21.98
   7 -17  -1   49.98   25.18
  -7  17  -1  111.84   42.91
  -7  17  -1   82.18   41.14
   7 -17   2    8.75    3.55
  -7  17   2    9.18    8.72
  -7 -17  -2   19.28   10.03
  -7 -17  -2   -1.43    8.06
  -7 -17  -2   83.17   32.47
   7  17   2   79.00   30.85
  -7 -17   2    8.35    6.48
   7 -17  -2   19.11   10.88
  -7  17  -2   14.05    5.06
  -7  17  -2   18.20    9.53
  -7  17   3    2.22    6.45
   7  17  -3   18.37    8.55
  -7 -17  -3    7.76    7.55
   7  17   3   22.05   11.77
   7 -17  -3   -0.10    5.94
   7 -17  -3   16.28    9.70
  -7  17   4    1.85    6.23
  -7 -17  -4    3.06    6.97
   7  17   4    0.02    8.87
   7 -17  -4    5.59    6.94
   7 -17  -4    9.95    7.93
  -7  17   5   15.85    8.61
  -7  17   5    5.05    7.41
  -7 -17  -5   21.82   10.63
   7  17   5   11.39    9.12
   7 -17  -5   20.00   10.11
   7 -17  -5   12.00    8.78
  -7  17   6   21.30   10.08
  -7 -17  -6   13.65    8.01
   7  17   6   23.13   11.29
   7 -17  -6   68.18   26.46
  -7  17   7   19.35    9.14
  -7 -17  -7    3.01    5.99
   7  17   7    3.88    6.66
   7 -17  -7   15.03    8.42
  -7 -17  -8   13.31    8.18
   7  18   0    1.51    7.09
  -7 -18   0    4.55    7.09
   7 -18   0    3.89    6.42
  -7  18   0    4.50    6.59
   7 -18   1   40.33   20.36
  -7  18   1   29.81   13.19
   7  18  -1   20.21   10.50
  -7 -18  -1   28.82   13.49
  -7 -18  -1   49.95   21.53
   7  18   1   27.24   12.48
   7  18   1   23.29    7.96
  -7 -18   1   32.82   10.44
  -7 -18   1   37.91   16.38
   7 -18  -1   24.61   11.35
   7 -18  -1   42.17   21.37
  -7  18  -1   61.48   25.12
  -7  18  -1   32.11   16.39
   7 -18   2   48.77   24.58
  -7  18   2   20.71   11.19
   7  18  -2   65.43   17.67
  -7 -18  -2   27.01   10.32
  -7 -18  -2   52.51   20.83
  -7 -18  -2   40.20   16.68
   7  18   2   35.45   14.85
   7  18   2   13.69   10.18
  -7 -18   2   37.07   16.15
   7 -18  -2   25.82   12.01
  -7  18  -2   46.77   12.21
  -7  18  -2   20.38   10.59
  -7  18   3  125.34   47.29
  -7  18   3   62.18   24.40
   7  18  -3   94.88   25.03
  -7 -18  -3  101.95   38.80
  -7 -18  -3   84.10   31.78
   7  18   3  149.18   38.44
   7  18   3   62.87   24.92
   7 -18  -3  139.28   51.45
   7 -18  -3  120.96   45.71
  -7  18  -3   54.53   27.37
  -7  18   4   62.94   24.55
  -7  18   4   91.38   34.36
  -7 -18  -4  133.28   50.21
  -7 -18  -4   46.95   19.01
   7  18   4   51.61   21.46
   7 -18  -4   41.89   17.31
   7 -18  -4   59.50   23.29
  -7  18   5   60.39   23.64
  -7  18   5   31.01   13.93
   7  18   5   34.47   15.29
   7 -18  -5  123.84   46.55
   7 -18  -5   33.93   14.76
   7  18   6   10.98    7.22
  -7  18   7   11.80    7.08
  -7 -18  -7    8.25    6.45
   7  18   7   16.25    8.77
   7 -18  -7    3.54    5.46
  -7 -18  -8    8.64    7.10
   7  19   0    3.25    6.45
  -7 -19   0    1.19    5.65
  -7  19   0    0.86    5.80
   7 -19   1    1.50    2.89
  -7  19   1   18.39    9.42
   7  19  -1   24.79    8.01
   7  19  -1    6.40    6.48
  -7 -19  -1    8.17    6.83
  -7 -19  -1   30.88   16.07
   7  19   1    8.53    6.91
   7  19   1    5.02    4.65
  -7 -19   1    3.62    6.11
   7 -19  -1    2.91    5.92
  -7  19  -1   56.40   23.70
   7 -19   2    0.75    2.59
   7 -19   2    5.69    3.93
  -7  19   2    9.29    8.37
   7  19  -2    1.96    4.88
   7  19  -2   13.45    8.25
  -7 -19  -2    4.84    6.47
  -7 -19  -2    1.50    6.62
  -7 -19  -2    1.54    5.28
   7  19   2    4.34    6.11
   7  19   2    3.73    8.56
  -7 -19   2    6.89    7.00
   7 -19  -2    0.40    6.47
  -7  19  -2    5.74    3.95
  -7  19  -2    2.88    3.28
  -7  19   3    9.80    7.48
  -7  19   3   35.57   15.44
   7  19  -3    6.23    7.10
   7  19  -3    3.31    7.38
  -7 -19  -3    4.16    6.00
  -7 -19  -3   12.74    8.98
   7  19   3    7.01    9.00
   7  19   3   35.03   11.57
   7 -19  -3    5.57    6.24
  -7  19  -3    9.98    3.62
  -7  19  -3   39.66   20.02
  -7  19   4    1.43    5.55
  -7  19   4    8.60    7.59
  -7 -19  -4    0.29    6.71
   7  19   4    8.77    9.43
   7 -19  -4    5.64    6.52
  -7  19  -4   32.91   16.66
  -7  19   5    4.57    6.15
  -7  19   5    5.05    7.34
   7  19   5   13.98    8.76
   7 -19  -5    1.86    5.16
  -7  19   6    1.05    5.59
  -7 -19  -6    2.18    6.17
   7  19   6    2.42    5.72
   7 -19  -6    5.46    7.51
  -7  19   7    0.48    4.79
  -7 -19  -7    1.19    5.84
   7 -19  -7   -1.67    4.76
   7  19   8   -0.48    6.98
   7  20   0   31.91   14.08
  -7 -20   0   21.06   10.20
  -7  20   0    2.56    6.48
   7 -20   1   19.76   10.25
  -7  20   1   22.94   11.05
   7  20  -1   20.63   10.30
   7  20  -1   16.61    6.39
  -7 -20  -1   43.77   20.53
   7  20   1   11.75    7.63
   7  20   1   16.20    6.06
  -7 -20   1   58.02   23.02
   7 -20   2   15.57    8.29
   7 -20   2    9.34    3.37
  -7  20   2   34.52   15.39
   7  20  -2    6.11    6.13
   7  20  -2    2.21    4.94
  -7 -20  -2    2.78    8.30
  -7 -20  -2    3.44    5.91
  -7 -20  -2    7.65    6.41
   7  20   2   -1.79   10.22
  -7 -20   2    2.52    5.95
  -7  20  -2   11.78    4.52
   7 -20   3   97.24   48.60
  -7  20   3   68.55   26.58
  -7  20   3   57.74   22.91
   7  20  -3   48.59   19.80
   7  20  -3   79.98   21.40
  -7 -20  -3   99.55   37.59
  -7 -20  -3   72.02   28.04
   7  20   3   80.95   31.06
   7  20   3   58.74   16.59
   7  20   3  124.41   46.93
  -7 -20   3   68.05   19.03
   7 -20  -3   49.98   20.11
  -7  20  -3   94.54   23.71
  -7  20  -3   56.55   28.41
  -7  20   4    3.01    5.82
  -7  20   4    1.60    5.98
   7  20   4    6.46    8.84
   7 -20  -4    3.35    5.72
   7 -20  -4    1.65    6.57
  -7  20  -4   35.68   18.05
  -7  20   5    5.27    6.26
  -7 -20  -5   15.97   10.39
   7 -20  -5    2.13    6.86
  -7  20  -5   15.41    8.17
  -7  20   6   18.55    9.32
  -7  20   6   10.94    8.29
  -7 -20  -6   15.78    9.25
   7 -20  -6   17.39    8.75
  -7  20   7   41.57   16.73
   7  20   7   59.83   23.44
   7  20   8   37.89   16.00
   7  21   0    6.33    6.85
   7  21   0    2.81    3.82
  -7  21   0   -2.22    7.41
  -7  21   1   81.29   31.03
   7  21  -1   62.91   16.57
   7  21  -1   38.91   16.32
  -7 -21  -1   85.88   34.33
  -7 -21  -1   71.89   27.88
   7  21   1   49.17   19.69
   7  21   1   70.23   18.59
  -7 -21   1   58.85   23.35
  -7  21  -1   85.53   34.87
   7 -21   2   14.76    4.52
   7 -21   2   21.97   11.33
  -7  21   2   11.73    9.06
   7  21  -2   11.85    7.55
   7  21  -2   27.00    8.50
  -7 -21  -2   10.39    8.45
   7  21   2   53.66   21.23
   7  21   2   10.51   10.64
  -7 -21   2    7.11    6.88
   7 -21   3   39.95   20.15
  -7  21   3    9.03    7.48
   7  21  -3    3.54    5.92
  -7 -21  -3   27.23   12.33
   7  21   3   28.04   12.33
   7  21   3   18.20   10.90
   7  21   3   21.81    8.89
   7 -21  -3    6.04    6.56
   7 -21  -3   10.42    9.86
   7 -21   4    4.15    3.31
  -7  21   4   -1.30    5.57
   7  21   4    3.55    8.10
   7  21   4    7.98    5.44
   7 -21  -4    1.36    5.09
   7 -21  -4   20.75   11.93
  -7  21  -4   29.17   14.87
  -7  21   5   38.84   16.33
  -7  21   5   65.28   25.31
  -7 -21  -5   39.24   17.42
  -7  21   6   53.43   21.14
  -7  21   6   25.12   12.81
   7  21   6   39.81   16.93
   7  21   7   13.66    9.04
   7  22   0    1.78    5.39
   7  22   0    1.47    3.95
  -7  22   0   -0.96    6.92
  -7  22   1    7.11    7.50
   7  22  -1    3.14    6.01
   7  22  -1    3.01    4.46
  -7 -22  -1    7.24   12.10
  -7 -22  -1   15.03    8.91
   7  22   1   12.67    5.56
   7  22   1   25.31   18.11
  -7 -22   1    1.42    5.83
  -7  22  -1   57.43   25.60
   7 -22   2    1.85    2.43
  -7  22   2   25.34   12.15
   7  22  -2   -0.66    5.06
  -7 -22  -2    0.04    6.52
   7  22   2    2.59    5.62
   7  22   2    0.26    7.90
  -7 -22   2    1.46    6.29
   7 -22   3    5.02    3.63
  -7  22   3    4.07    6.54
   7  22  -3    6.19    6.14
   7  22  -3    2.48    6.68
   7  22   3    6.64    6.12
   7  22   3    0.65    8.11
   7 -22   4    3.66    3.31
  -7  22   4    2.76    5.87
  -7  22   4    7.72    8.80
   7  22   4    9.22    8.81
   7 -22   5   -1.83    2.60
  -7  22   5    1.85    5.83
  -7  22   5    2.25    6.76
   7  22   5    2.14    7.80
   7  23   0   -0.28    5.65
  -7  23   0    1.45    7.13
  -7  23   1   60.39   23.65
   7  23  -1    8.92    7.28
   7  23   1   15.80   17.26
  -7  23  -1   20.30   16.69
   7  23  -2    2.72    6.16
   7  23   2   17.04    8.78
   7  23   2   -2.46    8.43
  -7  23   3    1.71    6.83
  -7  23   3    3.52    8.66
   7  23  -3   -1.80    5.50
   7  23   3    6.20    5.74
   7  23   3    4.20    8.15
  -7  23   4    3.08    6.98
  -8   0   0 7241.21 1792.44
  -8   0   0 8796.36 3773.82
   8   0   1   10.85    7.07
   8   0   1   20.63    8.59
   8   0   1   33.43   11.84
  -8   0  -1    6.03    6.66
  -8   0  -1   37.21   14.03
  -8   0  -2 2135.73  529.44
   8   0  -3  408.25  149.99
  -8   0  -4 2400.68  595.10
   8   0 -10  633.93  208.97
  -8   0  11   64.27   23.32
   8   0 -11   55.29   20.37
  -8   0  12  624.82  205.86
   8   0 -12  786.32  258.96
   8   1   0   16.78    7.49
   8   1   0    4.80    5.52
  -8  -1   0   19.19    9.03
  -8  -1   0    5.00    5.71
  -8   1   0    9.05    7.92
   8  -1   1  756.61  324.51
   8   1  -1  626.67  268.86
   8   1  -1  793.12  196.87
  -8  -1  -1  793.01  196.87
  -8  -1  -1  868.92  314.83
   8   1   1  815.01  202.17
   8   1   1 1151.96  417.36
  -8  -1   1  706.84  231.32
  -8  -1   1 1109.11  475.64
  -8   1  -1  697.39  173.14
  -8   1  -1  818.35  351.01
   8   1  -2   15.34   10.79
  -8   1  -2   21.27    8.71
   8   1  -3  172.91   63.62
  -8  -1  -4   90.80   25.68
  -8   1  -4   73.81   21.67
   8   1  -8  115.20   39.57
   8   1  -9  173.94   58.39
   8   1 -10   16.63   10.89
   8   1 -11   49.47   19.20
  -8  -1  12   35.11   15.14
   8  -1 -12   14.66    8.68
   8  -1 -13   75.34   26.35
   8  -1 -14    3.10    6.60
   8   2   0 1325.91  328.66
  -8  -2   0 1380.04  341.91
   8  -2   0 1335.12  330.85
  -8   2   0 1457.23  361.02
   8   2  -1  110.36   28.52
  -8  -2   1  114.48   30.23
  -8  -2   1  130.06   43.54
   8  -2   2   72.83   19.30
   8   2  -2   57.09   19.88
  -8  -2   2   54.25   19.28
  -8   2  -2   69.88   18.78
  -8   2  -2  135.70   58.55
   8  -2   3  143.19   62.45
  -8   2   3  116.81   43.01
   8   2  -3   93.30   34.63
   8   2  -3   61.66   22.04
  -8  -2   3   51.00   18.35
  -8   2  -3   53.00   25.26
  -8   2  -3  101.65   26.85
   8  -2   4  473.80  155.16
   8   2  -4  167.84   72.90
  -8  -2   4  182.01   79.12
   8   2  -6  291.44   96.85
   8   2  -8  615.72  203.21
   8   2  -9   28.15   13.47
  -8  -2   9   21.92   11.39
  -8  -2  10  217.26   72.90
   8  -2 -14   17.83    9.19
  -8  -3   0  308.96   77.10
   8  -3   0  393.85   98.01
  -8   3   0  323.59   80.74
   8  -3   1   87.88   22.81
   8   3  -1  126.60   32.45
  -8  -3  -1   80.15   21.51
  -8  -3  -1  189.73   69.47
   8   3   1   90.14   23.68
   8   3   1  115.66   42.81
  -8  -3   1  135.24   34.96
   8  -3   2   64.69   17.48
   8   3  -2   37.28   14.47
  -8  -3  -2  160.46   58.47
   8   3   2   50.19   14.53
  -8  -3   2   14.39    7.06
  -8   3  -2   45.88   13.32
   8  -3   3 1279.82  548.68
  -8   3   3 1280.97  469.88
   8   3  -3 1217.62  447.08
   8   3  -3 1477.96  483.01
  -8  -3   3  953.94  409.18
  -8   3  -3  888.96  381.30
  -8   3  -3 1156.57  286.95
   8  -3   4   73.10   33.26
   8   3  -4   99.01   35.78
   8   3  -4   59.79   26.58
  -8  -3  -4   86.32   24.34
  -8  -3   4   78.40   34.62
  -8  -3   4   79.22   27.24
  -8  -3   4   46.15   20.23
  -8   3  -4   79.83   22.15
   8  -3   5  599.82  257.69
   8   3  -5  438.78  188.57
   8   3  -5  326.12  108.15
   8   3  -5  398.69  130.87
  -8  -3   5  404.22  132.71
  -8  -3   5  417.47  138.24
  -8   3  -5  324.16  139.51
   8  -3   6  387.29  126.72
   8   3  -6  286.72   95.36
   8   3  -6  499.03  214.38
  -8  -3   6  481.40  206.89
  -8   3  -6  419.43  137.20
   8   3  -7  402.03  133.17
   8   4   0   40.31   12.05
   8  -4   0   63.43   17.27
   8  -4   0   34.97   13.18
  -8  -4  -1   56.12   15.91
  -8  -4  -1    4.43    8.64
   8   4   1   60.27   16.44
   8   4   1    7.82    8.60
  -8  -4   1   64.50   17.99
  -8   4  -1   63.27   16.88
  -8   4  -1    4.84    5.71
   8  -4   2  186.39   46.82
   8   4  -2   85.26   31.91
  -8  -4  -2  149.07   37.99
  -8  -4  -2  126.37   46.49
   8   4   2  184.20   46.63
  -8  -4   2  127.75   44.24
  -8   4  -2  150.80   38.11
   8  -4   3    1.30    7.54
  -8   4   3   33.83   13.36
   8   4  -3    7.41    8.48
   8   4  -3  117.16   41.42
   8   4  -3   27.76   11.89
  -8  -4  -3   25.45   10.77
  -8  -4   3   33.89   14.15
  -8  -4   3   15.30   10.49
  -8  -4   3   54.58   21.71
  -8   4  -3  221.75   55.84
  -8   4  -3    6.71    8.21
   8  -4   4  353.76  152.05
   8   4  -4  452.15  149.53
   8   4  -4  446.16  146.42
  -8  -4   4  313.79  135.01
  -8  -4   4  421.50  138.35
  -8   4  -4  312.76  134.44
   8  -4   5   43.34   20.79
   8   4  -5   23.03   10.27
   8   4  -5   20.07   11.14
   8   4  -5  102.10   36.69
  -8  -4   5   23.78   12.73
  -8  -4   5   21.15    9.87
  -8  -4   5   54.25   22.38
  -8   4  -5   18.26   10.18
   8   4  -6   18.79   10.40
  -8  -4   6   55.01   26.45
  -8   4  -6   48.70   24.00
   8  -4   7   20.74    7.58
   8   4  -7   18.42    9.49
  -8  -4   7   46.04   22.83
  -8  -4   7   21.62   10.30
  -8   4  -7   20.77    7.82
   8  -4   8   40.02   13.82
   8   4  -8  192.38   83.22
  -8  -4   8   98.52   43.66
   8   5   0   29.26    9.96
  -8  -5   0   17.65   12.63
  -8  -5   0    2.17    6.24
   8  -5   0    4.93    6.30
   8  -5   0   31.55   12.49
  -8   5   0    7.80    6.98
  -8   5   0   21.69    8.78
   8  -5   1  283.26   70.63
   8   5  -1  220.26   55.42
  -8  -5  -1  365.63  133.05
  -8  -5  -1  192.15   48.43
   8   5   1  197.10   49.65
   8   5   1  393.74  143.19
  -8  -5   1  298.70   99.33
  -8   5  -1  255.73   63.85
  -8   5  -1  397.89  144.34
   8  -5   2  403.07  100.23
   8   5  -2  109.90   38.81
   8   5  -2  197.91   73.09
  -8  -5  -2  346.97   86.57
  -8  -5  -2  364.13  132.25
   8   5   2  388.32   96.85
   8   5   2  377.72  137.20
  -8  -5   2  126.37   44.66
  -8   5  -2  343.98   85.64
  -8   5   3 1519.43  557.43
   8   5  -3 1511.37  554.56
  -8  -5  -3 1860.42  673.66
   8   5   3 1914.55  693.25
  -8  -5   3 1727.94  567.45
  -8   5  -3 1818.94  450.77
   8  -5   4 1488.33  638.30
  -8   5   4   44.44   17.06
  -8  -5  -4   43.08   14.86
  -8   5  -4   59.26   17.01
  -8   5  -4 3013.52 1292.50
   8  -5   5 1520.59  652.01
   8   5  -5 1759.04  754.54
   8   5  -5 1633.48  533.94
  -8  -5   5  878.94  377.15
  -8  -5   5 1653.06  540.62
  -8   5  -5  834.94  358.25
   8  -5   6 1059.12  454.33
   8   5  -6 1006.58  431.87
   8   5  -6  853.61  279.35
  -8  -5   6  834.02  357.91
  -8  -5   6 1033.08  338.10
   8  -5   7 3467.40 1487.18
   8   5  -7 4832.46 1579.33
  -8  -5   7 5764.40 1883.45
   8  -5   8   70.64   32.70
   8  -5   8   79.20   26.32
   8   5  -8   51.35   24.24
   8   5  -8   74.47   26.14
  -8  -5   8   81.43   37.29
  -8  -5   8   69.69   24.26
   8  -5   9  982.85  321.40
   8   5  -9  595.68  256.08
   8   5  -9  608.00  199.29
  -8  -5   9  726.08  312.07
  -8   5  -9  649.59  279.12
  -8   5  -9  848.77  277.50
   8   5 -10   36.16   14.25
  -8   5 -10   58.73   19.78
  -8   5  13  707.53  352.50
   8  -5 -14   22.82   11.73
   8  -5 -15  208.39  103.96
   8   6   0  502.02  124.87
  -8  -6   0  362.86   90.43
  -8  -6   0  314.49  104.78
   8  -6   0  424.15  105.50
  -8   6   0  407.91  101.60
  -8   6   0  471.15  170.83
   8  -6   1    8.53    6.05
   8   6  -1    8.05    7.76
  -8  -6  -1    4.32    6.06
  -8  -6  -1   27.57   13.84
  -8  -6  -1   13.29   10.78
   8   6   1    3.65    6.13
   8   6   1    3.96    8.69
  -8  -6   1   14.22    8.54
  -8  -6   1    2.91    5.75
  -8  -6   1   68.31   25.56
  -8   6  -1   12.96    7.68
  -8   6  -1   13.70    6.48
   8  -6   2   42.67   11.88
  -8  -6  -2   19.85    8.25
   8   6   2   15.02    8.24
   8   6   2   59.10   23.07
   8   6   2   50.59   19.40
   8  -6   3   77.01   20.55
  -8   6   3   58.01   22.19
   8   6  -3   58.78   22.69
  -8  -6  -3   55.50   20.99
   8   6   3   67.18   25.14
  -8  -6   3   77.61   29.56
  -8   6  -3   78.62   21.00
  -8   6   4  201.71   74.38
  -8  -6  -4  148.15   38.59
  -8   6  -4  242.72   61.15
   8  -6   5   -1.48    7.14
  -8  -6   5    6.17    8.23
   8  -6   6  121.65   53.11
   8   6  -6  103.75   45.38
  -8  -6   6  106.78   46.84
  -8  -6   6   87.93   29.97
   8  -6   7   18.13   10.51
   8   6  -7   21.73   10.00
  -8  -6   7   25.29   13.07
  -8  -6   7   24.35   10.97
  -8   6  -7   18.67   10.18
   8  -6   8  449.96  193.76
   8   6  -8  504.56  216.80
   8   6  -8  405.95  133.28
  -8  -6   8  474.95  155.97
   8  -6   9   28.95   10.51
   8   6  -9   67.18   23.65
  -8  -6   9   51.68   26.38
  -8  -6   9   37.30   14.56
  -8   6  -9  169.80   74.26
   8  -6  10   75.02   34.62
   8  -6  10  129.14   42.61
   8   6 -10  120.15   53.30
  -8  -6  10  142.27   63.22
  -8  -6  10  149.41   49.85
  -8   6 -10  146.07   64.20
  -8   6 -10  115.54   38.16
   8  -6  11    4.57    3.47
   8   6 -11    0.96    9.14
   8   6 -11    5.51    6.62
  -8  -6  11    7.17   12.45
  -8  -6  11    7.55    6.95
  -8   6 -11   26.41   16.35
  -8   6 -11    8.58    4.67
  -8   6  12  121.30   60.59
   8   6 -12   70.42   31.86
   8   6 -12   31.44   12.74
  -8   6 -12   44.39   15.23
  -8   6  13    8.74    5.40
   8  -6 -13    7.95    4.71
   8  -6 -14   20.61   10.71
   8  -6 -15    1.43    3.20
   8   7   0   48.00   13.72
  -8  -7   0   37.75   11.93
  -8   7   0   62.97   23.63
   8  -7   1  143.08   36.00
  -8   7   1  159.31   58.17
   8   7  -1  182.12   46.18
   8   7  -1  134.67   50.05
  -8  -7  -1  236.62   86.57
  -8  -7  -1  228.44   57.29
   8   7   1  180.97   45.62
   8   7   1  231.20   84.55
  -8  -7   1  176.36   44.67
  -8  -7   1  108.69   40.78
   8  -7  -1  146.99   53.64
  -8   7  -1  243.30   88.50
   8  -7   2   26.96    8.11
   8   7  -2   31.91   13.31
  -8  -7  -2    5.40    5.76
  -8  -7  -2   11.70    6.39
  -8  -7  -2   12.78   10.21
   8   7   2   22.52    9.11
  -8  -7   2   24.89   10.71
  -8   7  -2   21.82    7.77
   8  -7   3  121.30   30.87
  -8   7   3  261.14   96.26
   8   7  -3  210.35   77.77
  -8  -7  -3   72.26   27.16
  -8  -7   3  518.96  190.88
  -8  -7  -4   38.21   13.64
  -8  -7  -4   38.01   15.17
   8   7   4   26.71   11.36
   8   7   4   62.79   23.41
   8  -7  -4   21.16    9.07
   8   7   5  406.41  134.44
  -8  -7   5  438.90  188.80
   8  -7   6   28.36   14.31
   8   7  -6    7.56    7.33
  -8  -7   6   18.97   11.19
  -8   7  -6   27.19   13.37
   8  -7   7   70.70   31.66
   8   7  -7   63.81   28.52
  -8  -7   7   68.52   30.45
  -8  -7   7   59.87   21.22
  -8   7  -7   88.67   38.69
   8  -7   8    5.34    8.95
   8   7  -8    1.61    8.22
   8   7  -8    7.35    7.04
  -8  -7   8   17.79   11.45
  -8  -7   8   19.49   10.49
  -8   7  -8   10.83    9.14
   8  -7   9  140.31   61.15
   8   7  -9  105.31   35.90
  -8  -7   9   74.46   33.28
  -8  -7   9   87.89   30.37
   8  -7  -9   94.53   47.26
  -8   7  -9   68.23   30.52
   8  -7  10   -2.85   11.88
   8   7 -10   10.85    8.62
   8   7 -10   17.46    8.77
  -8  -7  10   22.18   16.14
  -8  -7  10   23.42   10.49
  -8   7 -10   23.91   16.83
   8  -7  11   11.63   11.72
  -8   7  11  216.34  107.88
   8   7 -11   31.63   16.70
   8   7 -11   46.78   16.99
  -8  -7  11   11.32   13.98
  -8   7 -11   20.11   14.55
  -8   7 -11   71.93   24.08
   8  -7  12   -2.44    9.69
   8  -7  12    3.33    3.70
  -8   7  12   14.27    7.86
  -8  -7  12    0.00    5.17
  -8  -7  12   -5.24   10.53
   8  -7 -12    8.18    4.82
  -8   7 -12    4.86    3.75
  -8   7 -12   10.10   10.40
   8  -7  13   11.11    5.71
   8   7 -13   35.61   17.80
   8   7 -13   26.09   11.03
  -8  -7  13   -1.75   12.11
  -8  -7  13    6.75    6.68
   8  -7 -13   21.41   11.12
  -8   7 -13   44.72   21.80
  -8   7 -13   15.49    6.49
   8   7 -14    8.02    8.40
   8   7 -14   19.51    9.34
   8  -7 -14   11.09    6.22
  -8   7 -14   11.11    5.33
  -8   7 -15    5.78    4.00
  -8  -8   0 1601.22  396.73
  -8   8   0 2124.21  769.16
  -8  -8  -1   68.32   18.14
  -8  -8  -1   53.87   21.92
  -8  -8   1   51.75   14.85
  -8  -8   1   59.64   22.97
   8  -8  -1  162.31   59.16
  -8   8  -1   60.35   15.93
  -8   8  -1   63.42   24.05
   8   8  -2  140.31   52.17
  -8  -8  -2  111.08   40.83
  -8  -8  -2  147.34   37.37
   8   8   2   99.71   36.93
   8   8   2  104.36   27.06
  -8   8  -2  138.81   34.93
   8  -8   3  174.86   43.89
  -8   8   3  203.44   75.17
   8   8  -3  175.79   65.19
   8   8   3  224.29   81.74
  -8  -8   3  194.80   72.15
  -8   8  -3  227.17   56.85
  -8   8   4  705.00  258.96
  -8  -8  -4  505.36  126.14
  -8  -8  -4  440.51  145.84
   8   8   4  893.57  323.82
   8   8   4  478.98  158.27
   8  -8  -4 1000.71  367.36
  -8   8  -4  756.04  187.77
   8   8   5  627.93  207.35
   8  -8  -5  595.91  218.87
   8  -8   6  936.78  402.03
   8   8  -6  504.90  216.92
   8   8   6  425.65  140.54
  -8   8  -6  915.23  392.70
   8  -8   7   99.82   43.88
   8   8  -7  178.90   77.54
   8   8   7   70.57   26.26
  -8  -8   7  269.55  116.23
  -8   8  -7  196.98   85.03
   8  -8   8  249.17  107.80
  -8  -8   8  138.70   60.58
   8  -8  -8  658.80  328.20
  -8   8  -8  216.22   93.37
   8  -8   9   39.32   19.36
   8   8  -9    3.28    9.44
   8   8  -9    6.61    6.28
  -8  -8   9   24.78   13.51
  -8  -8   9    1.00    7.26
  -8   8  10   29.25   15.02
   8   8 -10   82.49   36.74
   8   8 -10   24.81   10.58
  -8  -8  10   84.51   38.06
  -8   8 -10   63.89   29.08
   8  -8  11  112.19   50.00
  -8   8  11   17.12    9.12
   8   8 -11   46.53   16.78
   8   8 -11   77.90   35.00
  -8  -8  11   30.87   12.34
   8  -8 -11   25.30   13.03
  -8   8 -11   86.93   38.96
   8  -8  12  110.89   36.90
  -8   8  12   84.48   42.35
  -8  -8  12  146.42   48.97
  -8  -8  12  115.15   51.40
   8  -8 -12  111.22   55.56
  -8   8 -12  246.75  106.80
  -8   8 -12   90.87   30.25
   8   8 -13    7.87    9.20
   8   8 -13    2.50    5.48
  -8  -8  13    3.20    5.10
   8  -8 -13    3.76    3.41
  -8   8 -13    1.91    3.33
   8   8 -14   20.59    9.34
  -8  -8  14    9.39    6.76
  -8   8 -14   93.91   42.06
  -8   8 -14   17.77    7.01
   8   8 -15    5.37    5.80
  -8   8 -15    9.99    4.77
   8   9   0   29.33    9.16
  -8  -9   0   20.07    7.28
   8  -9   0   18.66    8.90
   8  -9   1   99.25   25.11
  -8   9   1  150.45   55.01
   8   9  -1   70.33   18.79
   8   9  -1  291.79  107.61
  -8  -9  -1  106.51   27.19
  -8  -9  -1  298.70  108.99
  -8  -9   1  154.82   57.57
  -8  -9   1  109.36   28.03
  -8   9  -1  323.01  117.39
  -8   9  -1   92.71   23.62
   8  -9   2   36.51   10.09
   8   9  -2   15.38    7.40
  -8  -9  -2   19.77    7.73
  -8  -9  -2   14.58    7.21
   8   9   2   34.78   10.82
   8   9   2   19.54    9.40
  -8  -9   2   22.52   10.05
   8  -9  -2    9.15    6.18
  -8   9  -2   22.31    7.18
   8  -9   3  140.77   35.43
  -8   9   3  156.09   57.91
   8   9  -3  151.59   56.40
  -8  -9  -3   79.27   30.27
  -8  -9   3  288.56  106.53
  -8   9  -3  134.55   34.16
  -8   9   4    9.42    6.53
  -8  -9  -4  125.57   33.03
  -8  -9  -4   11.89    7.52
   8   9   4   15.02    8.17
  -8   9  -4  150.68   38.36
  -8   9   5   16.73    8.37
  -8  -9  -5   19.30    9.52
   8   9   6   35.34   15.93
   8  -9   7   12.90   12.72
   8   9  -7   32.16   18.83
   8   9   7   99.39   34.95
  -8  -9   7    4.02    9.78
  -8   9  -7   28.33   15.26
   8  -9   8    6.50    9.36
  -8  -9   8    5.98    8.99
  -8   9  -8   12.23    9.33
   8  -9   9   60.44   28.45
  -8   9   9   34.82   17.80
   8   9  -9   47.20   22.43
  -8  -9   9   72.58   33.21
  -8   9  -9  119.69   52.29
   8  -9  10    7.48    8.50
  -8   9  10    5.43    4.17
   8   9 -10    5.47    8.30
   8   9 -10    1.78    5.44
  -8  -9  10    1.63    6.27
   8  -9 -10    8.88    5.41
  -8   9 -10    1.66    8.36
   8  -9  11   82.54   36.59
  -8   9  11   95.89   47.98
   8   9 -11   64.53   29.11
   8   9 -11   93.11   31.62
  -8  -9  11   58.22   27.16
  -8  -9  11   97.72   33.40
   8  -9 -11   97.05   48.52
  -8   9 -11   55.72   25.53
   8  -9  12   -3.38   10.38
   8   9 -12   -2.19    6.25
   8   9 -12    4.89    5.53
  -8  -9  12    0.38    7.90
  -8  -9  12    2.61    5.66
   8  -9 -12   -0.76    2.75
   8   9 -13    3.34    6.11
   8   9 -13    7.23    6.30
  -8  -9  13    4.74    5.99
  -8   9 -13    3.26    9.00
   8   9 -14   -1.39    7.94
   8   9 -14    0.12    5.04
  -8   9 -14   -2.04    9.13
  -8   9 -14    1.15    3.34
   8   9 -15    3.85    5.32
   8  10   0   42.16   11.98
   8  10   0   39.82   16.00
  -8 -10   0   35.22   14.60
   8 -10   0   57.49   21.67
  -8  10   0   48.38   18.44
   8 -10   1  110.31   27.75
   8  10  -1  111.35   41.71
   8  10  -1   82.55   21.44
  -8 -10  -1  160.69   59.38
  -8 -10   1  135.13   50.41
   8 -10  -1  171.06   62.49
  -8  10  -1  163.23   59.84
   8 -10   2  258.61   64.33
   8  10  -2  274.62   68.75
   8  10  -2  254.58   94.01
   8  10   2  311.38  113.19
  -8 -10   2  159.31   59.14
  -8 -10   2  258.03   64.54
   8 -10  -2  220.37   80.25
  -8  10  -2  196.87   49.19
   8 -10   3   57.07   15.00
  -8  10   3  116.35   43.47
   8  10  -3  113.43   42.58
  -8 -10  -3   32.78   13.85
   8  10   3   28.63   12.63
  -8 -10   3  181.43   67.41
  -8  10   4 1760.20  645.91
  -8 -10  -4  564.23  140.66
   8  10   4 2088.50  756.27
   8 -10  -4 1831.62  672.16
  -8  10  -4  431.76  107.50
  -8 -10  -5  403.99  146.76
   8  10   5  317.94  115.66
   8 -10  -5  246.18   90.87
   8 -10  -7   15.61    8.25
   8 -10   8  619.87  266.44
  -8  10   8  923.30  459.86
   8  10  -8  358.02  154.59
  -8  10  -8  333.96  143.88
  -8  10   9   23.57   12.31
   8  10  -9   10.00   10.90
  -8 -10   9   73.17   33.75
   8 -10  -9   15.00    8.09
   8 -10  10   32.14   16.97
  -8  10  10   15.36    8.26
   8  10 -10   29.78   15.06
  -8 -10  10   56.10   26.48
   8 -10 -10   29.69   15.16
  -8  10 -10   56.09   25.54
   8 -10  11   10.32    8.39
   8  10 -11   11.51    8.63
   8  10  11   21.30   10.39
  -8 -10  11    4.92    6.19
   8 -10 -11    5.20    3.92
  -8  10 -11   10.37    8.33
   8 -10  12   26.14   14.30
   8  10 -12   67.41   30.18
   8  10 -12   67.60   23.41
   8  10  12   81.11   28.34
  -8 -10  12   28.10   15.34
  -8 -10  12  112.71   38.18
  -8  10 -12   36.36   17.89
   8  10 -13   -1.21    5.82
   8  10 -13    1.80    5.49
  -8 -10  13    3.79    5.99
  -8  10 -13    6.18    7.23
  -8  10 -14    5.38    9.96
   8  11   0   25.40   11.28
  -8 -11   0   48.31   19.39
   8  11  -1  178.32   66.18
  -8 -11  -1  122.92   45.88
   8  11   1   33.71   10.08
  -8 -11   1   73.10   27.89
  -8 -11   1   40.30   11.28
  -8  11  -1   31.49    9.49
   8 -11   2    9.93    4.13
   8  11  -2    4.90    6.26
  -8 -11  -2   12.11    6.67
   8  11   2    4.58    5.25
  -8 -11   2    8.50    6.72
   8 -11  -2   11.05    6.85
   8 -11   3   22.12    6.90
  -8  11   3  207.81   76.97
   8  11  -3  199.75   74.09
  -8 -11  -3   45.16   17.95
   8  11   3   32.69   14.25
  -8 -11  -4   26.81   12.04
  -8 -11  -4   12.95    8.50
   8 -11  -4   10.02    7.00
  -8  11  -4   11.74    7.03
  -8  11   5  102.29   38.53
   8  11   5  200.44   73.31
   8 -11  -5  217.72   80.57
   8 -11  -6    8.94    6.77
   8 -11  -6   12.51    6.75
  -8  11   7  204.24  101.89
   8 -11   8    7.07   10.86
  -8  11   8   23.76   12.45
  -8 -11   8    3.45   11.87
   8 -11  -8    7.50    4.85
   8 -11   9   73.44   33.23
  -8  11   9   63.04   31.67
   8  11  -9   14.83   12.11
  -8 -11   9   83.62   37.74
   8 -11  -9   72.42   36.29
   8  11 -10   -0.33    7.72
  -8 -11  10    4.72   10.03
   8 -11 -10   -0.31    2.71
  -8  11 -10    3.46    7.90
   8 -11  11   53.76   25.11
   8  11 -11   40.94   19.47
   8  11  11   15.95    9.79
  -8 -11  11   26.13   15.34
  -8  11 -11   33.20   16.55
   8  11 -12    2.70    6.93
   8  11  12   17.16    9.75
  -8 -11  12    2.22    4.86
  -8  11 -12   -6.08    7.42
   8  11 -13    8.31    5.75
  -8 -11  13    5.84    6.30
  -8  11 -13   -1.51    7.80
   8  11 -14    0.90    4.77
  -8 -12   0  689.33  171.06
   8 -12   1   45.21   12.13
  -8  12   1    9.73    8.85
  -8 -12  -1   31.44    9.28
  -8 -12  -1   27.17   15.38
   8  12   1   39.28   11.54
  -8 -12   1   11.09    7.61
  -8 -12   1   41.99   11.88
   8 -12  -1   11.91    8.07
  -8  12  -1   46.84   13.44
   8 -12   2   60.32   15.44
  -8  12   2   23.44   10.77
   8  12  -2   23.23   10.95
  -8 -12   2   13.28    8.36
  -8 -12   2   41.11   11.98
   8 -12  -2   24.93   10.72
  -8  12  -2   69.36   17.72
   8 -12   3   78.54   20.09
  -8  12   3   87.56   43.77
   8  12  -3   55.90   22.45
  -8 -12  -3  101.23   37.86
  -8 -12   3   42.32   17.98
   8 -12  -3   50.44   19.83
  -8 -12  -4   87.64   25.55
  -8 -12  -4  106.06   39.60
   8 -12  -4   77.88   29.67
  -8  12  -4  123.15   31.44
  -8  12   5   58.34   22.98
  -8 -12  -5  181.55   66.50
   8 -12  -5   94.24   47.12
  -8  12   6  178.67   89.16
  -8  12   6  183.85   68.31
  -8 -12  -6   39.09   16.40
   8 -12  -6  149.87   55.92
  -8  12   7   29.18   15.10
   8 -12  -7   40.54   20.55
  -8  12   8   58.96   29.64
   8 -12  -8   69.67   34.94
   8 -12   9    5.97    9.74
   8  12  -9   14.86   11.74
  -8 -12   9    8.01   10.82
   8 -12  -9   16.14    8.69
  -8  12  -9    8.27    9.88
   8  12 -11    7.83    9.08
  -8  12 -11    8.31    9.05
   8  12 -12   45.66   21.22
  -8 -12 -12    9.05    9.03
  -8  12 -12   82.27   36.69
  -8  12 -13    3.91    8.72
   8  12 -14   31.07   12.25
   8  13   0  445.58  164.27
   8  13   0  304.46   76.10
  -8 -13   0  426.69  157.35
  -8 -13   0  313.91   78.24
   8 -13   1   68.58   17.76
  -8  13   1   62.75   24.33
  -8 -13  -1   35.76   15.46
  -8 -13   1   55.89   22.30
  -8 -13   1   82.27   21.65
   8 -13  -1   61.18   23.47
  -8  13  -1   52.99   14.38
   8 -13   2   33.59    9.36
  -8  13   2   11.98    6.51
  -8  13   2   59.49   23.22
   8  13  -2   10.95    7.49
   8 -13  -2   40.47   16.61
  -8  13  -2   36.94   10.02
   8 -13   3 1120.86  277.73
  -8  13   3 1474.50  541.19
  -8  13   3 1181.91  428.30
   8  13  -3 1532.11  562.50
   8  13   3 1685.31  610.88
  -8 -13   3  861.43  316.91
   8 -13  -3 1096.78  397.54
  -8  13  -3 1289.04  319.55
  -8  13   4   48.61   19.50
  -8 -13  -4   63.67   21.13
   8  13   4   54.91   22.12
   8 -13  -4   29.03   13.02
   8 -13  -4   18.27    9.61
  -8  13  -4   44.88   12.98
  -8  13   5   45.30   22.99
  -8 -13  -5  223.60   81.77
   8  13   5  210.58   77.17
   8 -13  -5  114.47   43.08
  -8  13   6  439.36  218.99
  -8 -13  -6  484.74  176.13
   8  13   6  416.78  151.71
   8 -13  -6  344.09  171.41
  -8  13   7  107.17   53.59
   8 -13  -7  108.01   54.02
   8 -13  -8   35.03   17.86
   8  13 -10  184.89   80.54
  -8 -13  10  132.25   58.40
  -8  13 -10   47.03   22.94
  -8  13 -11   32.54   16.75
   8  13 -12    1.81    7.31
  -8  13 -12   14.55   10.61
  -8 -14   0   47.39   13.14
   8 -14   0   19.27   10.17
  -8  14   1    6.25    7.77
   8  14  -1    6.26    5.54
   8  14  -1    7.39    8.53
  -8 -14  -1    4.39    7.90
  -8 -14  -1    8.67    6.32
  -8 -14  -1   13.10   12.54
   8  14   1    6.47    7.31
   8  14   1    3.65    6.55
  -8 -14   1    9.68    8.60
  -8 -14   1    9.73    6.11
  -8  14  -1   71.70   28.67
   8 -14   2  529.67  131.44
  -8  14   2  572.06  284.99
  -8  14   2  481.98  175.10
   8  14  -2  666.17  165.42
  -8 -14  -2  630.01  156.78
  -8 -14  -2  486.24  176.82
  -8 -14   2  662.72  243.99
   8 -14  -2  565.38  205.28
   8 -14   3   60.20   15.77
  -8  14   3   43.96   18.53
   8  14  -3   34.06   15.95
   8 -14  -3   45.44   18.45
   8 -14  -3   28.43   14.57
  -8  14  -3   81.73   20.94
  -8  14   4    4.79    6.85
  -8  14   4   35.11   17.98
  -8 -14  -4   87.23   26.45
  -8 -14  -4   43.51   18.83
   8 -14  -4    3.08    7.10
   8 -14  -4    6.07    7.93
  -8  14  -4   51.69   14.49
  -8  14   5   24.71   12.42
  -8  14   5   23.38   12.29
   8  14   5   26.53   12.80
   8 -14  -5   29.19   13.39
   8 -14  -5   21.53   11.35
  -8  14   6   95.07   47.56
  -8  14   6  182.58   68.02
   8  14   6   93.07   34.92
   8 -14  -6  171.64   64.06
   8 -14  -6  105.93   52.97
  -8 -14  -7   10.39    8.12
   8 -14  -7   -2.14    6.46
   8 -14  -7    4.80    3.96
   8  14 -11    1.68    9.21
  -8  14 -11    1.12    9.49
   8  14 -12    4.64    7.90
  -8  14 -12    4.49    8.97
   8  15   0   48.01   19.86
  -8 -15   0   29.80   14.31
  -8 -15   0   46.44   13.31
   8 -15   0   11.57    8.79
   8 -15   1  971.44  240.76
  -8  15   1 1351.25  673.32
  -8  15   1 1162.32  421.39
   8  15  -1 1141.48  419.43
   8  15  -1 1095.63  271.63
  -8 -15  -1 1284.43  471.84
  -8 -15  -1  764.67  277.73
  -8 -15  -1  810.98  201.25
   8  15   1  858.43  213.11
   8  15   1 1151.96  423.23
  -8 -15   1 1169.23  429.57
  -8 -15   1 1264.85  313.68
  -8  15  -1 1348.95  489.00
   8 -15   2   25.11    7.16
  -8  15   2   21.77   11.58
   8  15  -2    6.45    8.76
   8  15  -2    8.62    7.52
  -8 -15  -2    9.99    9.97
  -8 -15  -2   22.92   10.08
  -8 -15   2   23.85   12.41
  -8 -15   2   10.24    6.92
  -8  15  -2   18.63    5.90
   8 -15   3  458.24  113.78
  -8  15   3  402.26  200.44
  -8  15   3  488.77  177.63
  -8  15   3  385.67  142.39
  -8 -15  -3  370.58  135.24
   8 -15  -3  403.99  146.88
  -8  15  -3  375.19   93.23
  -8  15   4  104.87   39.80
  -8  15   4   63.16   31.76
  -8  15   4   72.64   27.87
  -8 -15  -4   65.67   22.36
  -8 -15  -4   56.58   22.95
   8 -15  -4   62.10   31.21
   8 -15  -4   78.64   30.00
   8 -15  -4   74.01   28.68
  -8  15  -4   67.39   18.44
  -8  15   5   34.49   17.56
  -8 -15  -5  152.74   56.33
   8 -15  -5   35.45   18.05
  -8 -15  -6    9.67    7.27
   8 -15  -6   15.66    8.51
  -8 -15  -7   85.59   32.23
   8 -15  -7  214.73   79.53
   8  16   0  259.76   96.43
   8  16   0  320.82   80.07
  -8 -16   0  334.88   83.55
   8 -16   0  296.05  108.05
  -8  16   0  608.23  302.97
   8  16  -1   95.57   24.96
   8  16  -1   38.44   17.24
  -8 -16  -1   75.60   20.37
  -8 -16  -1   31.89   18.17
   8  16   1   69.56   18.78
   8  16   1   30.33   14.55
   8 -16  -1   36.44   16.51
  -8  16  -1   69.77   29.20
   8 -16   2  176.82   44.09
  -8  16   2  264.95  132.02
   8  16  -2  174.75   44.29
   8  16  -2  199.86   74.55
  -8 -16  -2  258.38   95.92
  -8 -16  -2  174.86   64.58
   8  16   2   77.08   30.83
   8  16   2  112.58   29.41
  -8 -16   2  214.38   53.91
   8 -16  -2  117.27   44.40
  -8  16  -2  176.02   43.98
   8 -16   3   17.72    6.40
  -8  16   3    9.07    5.68
  -8  16   3   61.91   24.53
  -8  16   3   28.03   12.08
   8  16  -3   58.74   23.65
  -8 -16  -3    8.74    8.89
   8 -16  -3   14.56    7.97
  -8  16   4  206.20  102.87
  -8  16   4  372.43  137.43
  -8  16   4  291.67  106.41
  -8 -16  -4  152.05   41.44
  -8 -16  -4  326.81  119.11
   8  16   4  237.31   87.16
   8 -16  -4  320.48  118.42
   8 -16  -4  240.88  120.15
   8 -16  -4  254.35   92.85
  -8  16  -4  168.53   42.65
  -8  16   5   35.23   14.93
  -8 -16  -5   22.77   10.94
   8  16   5   20.14   10.50
   8 -16  -5   22.31   10.74
   8 -16  -5   36.21   18.42
  -8  16   6  133.86   50.10
  -8 -16  -6   14.48    8.31
   8  16   6   35.69   15.30
   8 -16  -6  142.39   53.24
  -8  16   7   19.23    9.12
  -8 -16  -7    9.83    7.21
   8  16   7    7.89    7.52
   8 -16  -7   28.12   12.21
   8  17   0   18.49    7.27
   8  17   0   10.45    8.67
  -8 -17   0    8.17    5.99
  -8 -17   0    6.24    7.78
   8 -17   0   12.61    8.06
  -8  17   0   12.80    8.51
  -8  17   1   29.89   15.34
   8  17  -1    8.44    7.86
   8  17  -1   12.72    6.61
  -8 -17  -1  131.33   49.58
  -8 -17  -1   14.30   10.36
  -8 -17  -1    2.25    6.13
  -8 -17   1    5.27    5.69
  -8  17  -1  181.32   67.41
   8 -17   2    6.78    3.79
  -8  17   2    3.11    3.44
   8  17  -2   -0.50    6.80
  -8 -17  -2   -0.36    6.65
  -8 -17  -2    7.28    7.69
   8  17   2    3.79    6.90
   8  17   2    1.87    8.77
  -8 -17   2   10.58    6.84
   8 -17  -2    3.29    7.46
   8 -17  -2    4.95    3.81
  -8  17  -2    5.25    3.61
  -8  17   3   91.45   45.77
  -8  17   3   70.51   27.59
  -8  17   3   32.63   14.02
   8  17  -3   32.40   11.62
   8  17  -3   71.12   27.90
  -8 -17  -3   28.02   12.48
   8  17   3   21.21   11.87
   8 -17  -3   26.31   12.28
   8 -17  -3   67.71   33.96
  -8  17   4    4.45    6.90
  -8  17   4    5.37    6.44
  -8 -17  -4   11.82    8.05
   8  17   4   13.10   10.25
   8 -17  -4    2.64    6.43
   8 -17  -4   13.71    7.58
  -8  17   5   10.00    7.24
  -8  17   6   18.05    9.09
  -8 -17  -6   13.95    7.99
   8  17   6   19.87    9.79
  -8  17   7    5.75    5.57
   8  17   7    3.52    6.83
  -8 -17  -8   -1.36    6.24
   8  18   0   88.83   23.03
  -8 -18   0  102.50   39.01
   8 -18   0   28.58   12.40
  -8  18   0   89.68   44.86
  -8  18   0   20.45   10.13
   8 -18   1   18.53    9.62
  -8  18   1    2.51    3.04
   8  18  -1    5.39    6.94
   8  18  -1    4.22    5.20
  -8 -18  -1    6.35   11.07
  -8 -18  -1   16.33    9.46
  -8 -18  -1    6.44    5.64
   8  18   1   12.56    7.44
  -8 -18   1    1.39    6.44
  -8 -18   1    6.24    5.98
   8 -18  -1    4.17    6.60
   8 -18  -1   12.53    6.90
  -8  18  -1    2.47    2.98
  -8  18  -1   28.04   15.31
   8 -18   2   17.99    5.66
  -8  18   2   13.93    7.56
  -8  18   2   22.46   11.78
   8  18  -2    9.13    6.25
  -8 -18  -2  132.71   49.80
  -8 -18  -2    1.19    7.19
   8  18   2   65.60   25.48
   8  18   2   21.66    8.15
   8  18   2    0.79    9.38
  -8 -18   2   12.16    7.51
   8 -18  -2   22.83   11.81
  -8  18  -2    9.44    4.49
  -8  18   3    8.41    7.61
  -8  18   3   46.90   19.18
   8  18  -3    1.05    7.73
   8  18  -3   10.79    8.31
  -8 -18  -3   12.96    8.33
   8  18   3    4.02    8.98
   8  18   3   19.56    9.17
   8 -18  -3   17.83   10.28
   8 -18  -3   15.63    8.41
  -8  18  -3    9.81    3.83
  -8  18   4  209.31   77.76
  -8  18   4  200.67   73.58
  -8 -18  -4  232.01   84.89
   8  18   4  224.29   82.53
   8 -18  -4  237.31   86.74
  -8  18   5  171.29   63.88
   8  18   5  126.03   46.80
   8 -18  -5  154.24   56.88
  -8  18   6    4.74    5.46
  -8 -18  -6    3.99    6.33
   8  18   6    4.70    6.54
   8 -18  -6   22.62   10.22
  -8  18   7   11.21    6.91
  -8 -18  -7   12.93    7.74
   8  18   7   13.31    8.72
   8 -18  -7   10.27    6.72
  -8 -18  -8    8.52    6.90
   8  18   8    9.30    7.58
   8  19   0   13.42    7.92
   8  19   0    2.98    5.00
  -8 -19   0   12.22    7.68
   8 -19   0    2.06    6.41
   8 -19   0    0.39    2.62
  -8  19   0    5.92    7.17
  -8  19   0    2.34    3.18
  -8  19   1  104.59   52.29
  -8  19   1   28.25   12.57
  -8 -19  -1   43.84   17.97
  -8 -19  -1   46.00   20.84
   8  19   1   25.79   11.96
  -8 -19   1   35.15   14.91
   8 -19  -1   31.58   13.78
   8 -19  -1   62.85   31.53
  -8  19  -1   53.59   23.22
  -8  19  -1  102.69   51.33
   8 -19   2    8.04    4.58
   8 -19   2   16.09    5.05
  -8  19   2   11.02    8.83
   8  19  -2    0.59    5.22
   8  19  -2   24.73   11.88
  -8 -19  -2    0.98    5.71
  -8 -19  -2    1.52    7.56
   8  19   2   -0.48    5.19
   8  19   2   -1.50    9.55
   8  19   2    9.49    5.90
  -8 -19   2   11.81    7.83
  -8 -19   2    8.78    6.21
   8 -19  -2    3.13    8.03
   8 -19  -2   -0.79    2.85
  -8  19  -2    2.51    2.63
  -8  19  -2    5.84    4.13
  -8  19   3   62.62   24.58
  -8  19   3   49.35   19.91
   8  19  -3   65.05   25.63
   8  19  -3   15.71    7.45
  -8 -19  -3   31.70   13.85
   8  19   3   51.26   21.52
  -8 -19   3   26.46   10.27
  -8  19  -3   35.26    9.34
  -8  19   4    0.11    5.51
  -8  19   4    4.10    6.07
   8  19   4    6.71    9.20
   8 -19  -4    2.89    5.45
   8 -19  -4    0.39    5.59
  -8  19   5    1.84    5.38
  -8  19   5    7.17    7.90
  -8 -19  -5   13.19    9.31
   8 -19  -5    2.20    5.30
  -8  19   6    0.87    4.81
  -8 -19  -6    7.68    7.08
   8 -19  -6   -0.60    5.44
   8 -19  -6    0.97    6.47
  -8 -19  -7   16.16    8.79
   8  19   7   18.77    9.45
   8  19   8    0.85    6.85
   8  20   0  110.49   28.13
   8  20   0  203.21   75.61
  -8 -20   0  149.76   38.07
  -8 -20   0  140.89   52.91
   8 -20   0  106.72   40.21
   8 -20   0  162.31   81.02
  -8  20   0   95.21   36.00
  -8  20   0  181.55   90.61
   8 -20   1    3.18    3.12
  -8  20   1    4.97    8.15
   8  20  -1   21.82    7.17
  -8 -20  -1    8.95    7.38
  -8 -20  -1   11.62   13.71
   8  20   1   17.42    9.22
  -8 -20   1   15.94    8.95
  -8 -20   1   22.96    8.90
   8 -20  -1    4.77    7.69
   8 -20  -1    2.29    3.12
  -8  20  -1   28.06   17.37
  -8  20  -1    5.40    3.80
   8 -20   2  597.17  148.15
  -8  20   2  461.70  168.07
   8  20  -2  432.68  159.77
   8  20  -2  475.99  118.54
  -8 -20  -2  477.25  173.60
   8  20   2  471.38  173.71
   8  20   2  444.08  110.65
   8  20   2  423.69  154.70
  -8 -20   2  431.87  159.43
   8 -20  -2  568.83  206.89
  -8  20  -2  345.36  172.10
  -8  20   3    3.01    6.69
  -8  20   3   25.75   12.51
   8  20  -3    1.46    7.05
  -8 -20  -3    6.61    6.17
   8  20   3   26.81   13.70
  -8  20  -3   17.91    5.46
  -8  20  -3    8.17    4.78
  -8  20   4    5.34    6.66
  -8  20   4   10.61    7.87
   8  20   4   19.43   11.58
   8 -20  -4    2.03    5.49
  -8  20  -4   39.67   11.45
  -8  20   5    6.70    5.98
  -8  20   5    3.40    6.57
  -8 -20  -5    4.28    7.57
   8 -20  -5    2.31    5.68
   8 -20  -5    7.08    7.60
  -8 -20  -6    7.75    7.18
   8  20   6   26.84   12.74
  -8  20   7    5.53    5.69
   8  20   7    6.02    7.68
  -8  20   8  138.35   51.77
   8  21   0   93.53   35.73
   8  21   0   83.64   21.81
  -8 -21   0   73.54   28.51
   8 -21   0   25.31   13.02
  -8  21   0   31.06   14.08
   8 -21   1   67.95   34.09
  -8  21   1   75.14   28.89
   8  21  -1   96.52   24.88
  -8 -21  -1   50.74   22.72
   8  21   1   86.63   33.12
   8  21   1   68.90   18.17
  -8 -21   1   52.90   21.23
  -8  21  -1   58.38   25.33
  -8  21  -1   85.94   43.08
   8 -21   2   11.51    3.94
   8 -21   2    7.27    4.53
  -8  21   2    9.42    8.51
   8  21  -2    3.74    5.01
   8  21  -2    5.95    6.96
  -8 -21  -2    2.17    5.50
   8  21   2    2.30    5.33
   8  21   2    0.08    9.15
   8  21   2    3.20    4.93
  -8 -21   2    3.74    6.29
  -8  21  -2   15.79    8.44
   8  21  -3   -0.11    6.03
  -8 -21  -3    5.66    6.18
   8  21   3    1.02    4.65
   8  21   3   -3.00    7.60
   8 -21  -3   13.60   10.75
  -8  21  -3    4.76    3.01
  -8  21  -3   15.37    8.27
  -8  21   4   40.89   17.00
  -8  21   4   12.69    8.02
   8  21   4   33.21   15.00
   8 -21  -4    9.14    7.29
  -8  21   5   20.09   10.36
  -8  21   6   54.94   21.63
  -8  21   6   53.49   21.98
   8  21   6   88.14   33.59
  -8  21   7  226.25   84.23
   8  22   0   11.52    7.68
  -8  22   0    5.88    8.00
   8 -22   1    1.07    2.83
  -8  22   1    0.66    6.86
   8  22  -1   -0.23    4.75
   8  22  -1    6.26    4.71
   8  22   1    3.47    5.42
   8  22   1    7.32    4.83
  -8  22  -1    8.47   12.33
   8 -22   2    1.43    3.02
   8 -22   2   -0.34    2.60
  -8  22   2    1.73    7.31
   8  22  -2    0.16    5.09
   8  22   2   -3.68    8.07
   8 -22   3   12.58    6.98
  -8  22   3    0.30    6.56
   8  22  -3    1.19    6.46
   8  22   3   10.68    6.78
   8  22   3    3.66    9.09
  -8  22   4    1.79    6.03
  -8  22   5    7.60    8.23
   8  22   5    4.26    8.22
   8  23   0   12.75    8.12
  -8  23   0   12.21    9.16
  -8  23   1    6.83    7.32
   8  23  -1    3.92    6.29
   8  23   1   10.11    6.89
  -8  23  -1   -1.96   12.57
   8 -23   2    1.96    3.17
  -8  23   2    4.51    7.48
   8  23  -2    1.63    5.86
   8  23   2    2.75    4.48
   8  23   2    0.06    8.36
  -8  23   3    4.42    8.08
   8  23  -3    4.87    7.75
   8  23   3   28.25   12.60
   8  23   3   22.50   12.81
   9   0   0  -27.98   11.87
  -9   0   0    5.34   10.63
  -9   0   0   40.62   17.82
   9   0   1  193.41   48.64
   9   0   1   85.73   28.53
  -9   0  -1  232.12   58.23
   9   0   2  560.42  139.28
  -9   0  -2  636.81  158.16
   9   0   3   69.61   19.26
  -9   0  -3   59.25   16.82
   9   0   4 1051.40  260.91
   9   0 -12  102.27   35.33
   9   1   0   -2.70    6.33
   9   1   0    4.96    5.00
  -9  -1   0   -1.37    6.61
  -9   1   0    0.08    7.31
   9   1  -1   37.93   12.08
  -9  -1  -1   29.05   10.39
   9   1   1   26.22    9.45
  -9  -1   1   31.30   11.63
  -9  -1   1    7.55    6.21
  -9  -1   1  104.36   45.12
  -9   1  -1   24.59    8.92
  -9   1  -1   58.35   25.39
   9   1  -2   37.06   17.73
  -9  -1  -2    5.49    7.03
  -9  -1  -2    3.23    3.86
   9   1   2    8.35    7.00
  -9   1  -2    4.47    6.31
   9  -1   3   52.92   15.69
  -9  -1  -3   55.03   15.86
   9   1   3   65.20   18.49
  -9   1  -3   25.76    9.02
   9  -1   4   19.23    9.73
   9   1   4   27.80   11.43
   9   1 -10    6.56    8.24
  -9  -1  10    8.46    8.85
   9  -1 -14    3.76    6.58
   9   2   0    6.19    6.68
  -9  -2   0   10.88    7.29
   9  -2   0   -3.23    7.40
  -9   2   0   10.71    8.70
   9  -2   1    4.88    6.47
   9   2  -1   15.79    8.34
   9   2  -1   46.83   16.86
  -9  -2  -1   18.45    8.64
   9   2   1   29.09    9.90
  -9  -2   1   18.97   10.07
  -9  -2   1   28.83   11.62
   9  -2   2  299.74  128.79
   9  -2   2  336.26   83.91
   9   2  -2  371.62  159.54
   9   2  -2  317.14  104.11
  -9  -2  -2  386.71   96.44
   9   2   2  381.07  138.12
   9   2   2  410.79  102.36
  -9  -2   2  373.92  160.58
  -9  -2   2  433.37  142.04
  -9   2  -2  382.91   95.35
  -9   2  -2  365.97  157.12
   9  -2   3   46.77   14.07
   9   2  -3   35.30   13.56
   9   2  -3   32.28   13.51
  -9  -2  -3   59.54   17.41
   9   2   3   60.31   17.51
  -9  -2   3   41.31   15.86
  -9  -2   3    7.16    6.91
  -9   2  -3   25.78   14.95
   9   2  -4 1408.84  604.32
   9   2   4 1116.94  277.16
  -9  -2   4 1581.64  678.50
   9   2  -7    4.66    9.38
  -9  -2   8   50.84   19.95
  -9  -2   9   11.21    9.93
  -9  -2  11   10.34   10.89
   9   3   0    0.41    5.98
  -9  -3   0   10.00    7.24
   9  -3   0    7.73    6.98
  -9   3   0    5.42    7.35
   9   3  -1  286.03   71.57
  -9  -3  -1  235.46   59.13
  -9  -3   1  405.60  101.22
  -9   3  -1  250.79   62.72
  -9   3  -1  309.30  112.17
   9  -3   2  146.42   37.07
  -9  -3  -2  103.16   26.91
   9   3   2   98.69   25.76
   9   3   2   73.52   27.24
  -9  -3   2   89.07   30.04
   9  -3   3 1483.72  367.59
   9  -3   3 1913.40  820.54
  -9  -3  -3 1692.22  419.31
   9   3   3 1702.59  422.19
  -9  -3   3 1794.75  658.34
  -9  -3   3 2767.01  904.06
  -9  -3   3 1366.22  585.65
  -9   3  -3 1623.11  695.90
   9  -3   4   24.09   15.47
   9  -3   4   35.45   11.87
   9   3  -4    8.34    6.84
   9   3   4   25.71   11.68
  -9  -3   4   17.45   10.05
  -9  -3   4   13.11    7.26
   9  -3  -4   41.18   15.36
   9   3  -5  700.97  231.09
   9   3  -5  375.31  161.50
   9   3  -5  544.65  178.55
  -9  -3   5  416.55  179.24
  -9  -3   5  454.67  149.18
  -9   3  -5  318.40  137.09
   9  -3   6    3.39    2.38
   9   3  -6    8.54   11.87
   9   3  -6    7.51    9.13
  -9  -3   6   -2.09   10.54
  -9   3  -6    5.94    3.47
  -9  -3   7  733.57  241.45
   9   4   0    7.84    7.48
  -9  -4   0   -2.34    6.89
   9  -4   0    4.85    7.21
  -9   4   0    4.29    8.00
   9  -4   1    9.71    6.32
   9   4   1    9.99   11.51
  -9  -4   1   11.87    9.87
  -9   4  -1   12.63    6.82
  -9   4  -1   11.08    5.63
   9  -4   2    3.91    6.10
   9   4  -2   20.99    9.33
  -9  -4  -2    3.62    6.55
  -9  -4  -2   71.91   26.74
   9   4   2   59.99   22.76
  -9  -4   2   63.27   24.04
  -9   4  -2    4.92    5.55
   9  -4   3    8.03    8.34
   9   4  -3   24.03   12.31
   9   4  -3    4.50    4.58
   9   4  -3   18.53   12.33
  -9  -4  -3    3.69    8.08
  -9  -4  -3   14.72    7.53
   9   4   3   12.54    7.00
   9   4   3    2.14    8.04
  -9  -4   3    8.26    8.81
  -9  -4   3    4.54    4.63
  -9   4  -3    0.09    7.75
  -9   4   4   61.08   22.97
  -9  -4   4  339.14  145.84
  -9  -4   4   44.32   16.55
   9  -4  -4  127.75   47.09
  -9   4  -4  370.58  159.20
   9  -4   5   19.62   12.25
   9   4  -5   12.59    8.51
   9   4  -5    7.32    6.36
  -9  -4   5    2.40    6.96
  -9  -4   5   18.65    9.51
  -9   4  -5    4.80    6.50
   9  -4   6    7.23   13.19
   9   4  -6   22.35   10.22
  -9  -4   6   14.10   12.33
  -9  -4   6   12.82   10.44
  -9   4  -6    5.40   10.88
   9   4  -7   13.39    8.44
  -9  -4   7   46.92   18.80
  -9  -4   7   10.66   10.32
  -9  -4   7    2.27    7.15
  -9   4  -7   17.30    6.54
   9  -4   8   22.30    8.10
   9   4  -8    6.57    8.05
  -9  -4   8   15.86   11.37
  -9   4  -8   38.22   13.31
   9   5   0   12.33    7.36
  -9  -5   0   13.06    7.25
   9  -5   0  112.50   40.99
  -9   5   0    5.37    6.75
   9  -5   1  154.36   39.01
   9  -5   1  347.78  126.26
   9   5  -1  185.35   47.22
   9   5  -1  286.95   95.95
   9   5   1  140.77   35.93
   9   5   1  563.19  204.59
  -9  -5   1  188.11   47.90
  -9  -5   1  282.11   94.52
  -9   5  -1  134.67   34.25
   9   5  -2   79.74   29.88
   9   5  -2   72.77   27.21
  -9  -5  -2   40.81   12.04
   9   5   2   44.11   17.11
  -9  -5   2   78.34   28.82
  -9   5  -2   69.62   18.39
   9   5  -3   57.83   22.04
  -9  -5  -3   75.34   20.75
  -9  -5  -3   54.79   20.80
   9   5   3   55.49   16.69
   9   5   3   45.18   17.27
  -9  -5   3   82.60   30.95
   9  -5   4  109.43   28.17
   9  -5   4  492.92  211.73
   9   5  -4  245.60  105.83
   9   5   4  149.53   38.82
  -9  -5   4  181.32   61.41
   9  -5  -4  238.46   87.71
  -9   5  -4  242.15  104.45
   9  -5   5  301.93  129.94
   9   5  -5  358.48  154.24
   9   5  -5  349.16  114.67
  -9  -5   5  166.11   71.86
  -9  -5   5  371.85  123.38
  -9  -5   5  340.29  111.91
  -9   5  -5  177.28   76.57
   9  -5   6    3.71    7.05
   9   5  -6   -0.80    6.59
  -9  -5   6   30.16   15.07
  -9  -5   6    2.60    6.74
  -9   5  -6   33.07   16.00
   9  -5   7 1161.18  498.34
   9   5  -7  310.80  102.43
  -9  -5   7  403.76  132.71
   9  -5   8    3.28   12.84
   9   5  -8    3.27    8.71
  -9  -5   8   12.82   12.71
   9  -5   9  207.35   68.09
   9   5  -9  248.83   82.32
  -9  -5   9  631.16  271.28
  -9  -5   9  187.08   62.56
  -9   5  -9 1665.73  714.33
  -9   5  -9  186.39   61.36
   9   5 -10   57.23   27.38
   9   5 -10   67.38   23.74
   9   6   0   21.44   12.48
   9   6   0    3.64    6.59
  -9  -6   0    3.60    6.90
  -9  -6   0   24.03   13.78
   9  -6   0    3.60    6.10
   9  -6   0  121.76   44.45
  -9   6   0   -3.95    7.40
   9  -6   1    9.18    6.08
   9  -6   1    6.43    7.95
   9   6  -1   11.48    8.18
   9   6  -1   14.79   14.24
  -9  -6  -1    3.53    5.58
  -9  -6  -1    9.25    9.88
   9   6   1    9.83    6.48
   9   6   1    3.96   11.90
  -9  -6   1    3.81    8.30
   9  -6   2   20.33    6.80
   9   6  -2  248.14   91.45
   9   6  -2   28.55   14.81
  -9  -6  -2   10.76    6.50
  -9  -6   2  136.05   50.50
  -9   6  -2   15.52    6.29
   9   6  -3    8.72    6.30
  -9  -6  -3   34.19   11.44
  -9  -6  -3   12.95    7.77
   9   6   3   21.83    9.75
   9   6   3   27.75   11.31
  -9   6  -3   32.07    9.88
  -9   6   4   43.72   16.71
  -9  -6  -4   76.59   28.59
   9  -6   5   82.27   36.28
  -9  -6   5   72.50   32.23
   9  -6   6   52.07   23.56
   9   6  -6   66.86   29.52
   9   6  -6   13.09    7.36
  -9  -6   6  168.99   73.03
  -9  -6   6   19.91    9.95
  -9   6  -6  135.82   58.72
   9  -6   7   34.18   16.51
   9   6  -7    2.67    6.33
  -9  -6   7   11.23    8.73
  -9   6  -7   26.31   13.66
   9  -6   8  153.78   68.03
   9   6  -8   57.13   26.13
   9   6  -8  162.88   54.22
  -9  -6   8  170.14   56.80
   9   6  -9  107.14   36.25
  -9  -6   9   20.24   15.63
  -9  -6   9  104.45   35.83
  -9   6  -9    4.03   12.20
   9  -6  10   26.52   17.54
   9  -6  10    3.26    3.60
  -9  -6  10   35.53   20.31
  -9  -6  10    2.28    6.21
  -9   6 -10   22.19   14.84
  -9   6 -10    9.54    4.86
   9  -6  11    1.94    3.13
   9   6 -11    4.45    8.87
   9   6 -11   11.29    7.09
  -9  -6  11    1.18   11.17
  -9  -6  11    8.62    6.74
  -9   6 -11    3.38   11.31
  -9   6 -11    2.88    3.35
   9   6 -12    1.94    9.08
   9   6 -12   18.97    8.94
  -9   6 -12    4.49    3.45
   9   7   0  559.39  139.05
  -9  -7   0  594.06  147.57
   9  -7   1  195.14   49.03
   9   7  -1  161.39   41.03
  -9  -7  -1  166.80   42.03
   9   7   1  204.70   68.91
   9   7   1  191.68   48.17
   9   7   1  326.81  119.46
  -9  -7   1  223.83   56.37
  -9   7  -1  272.20   98.98
   9  -7   2   66.13   17.24
   9   7  -2   29.63   12.23
  -9  -7  -2   29.79   12.07
  -9  -7  -2   21.22   13.06
   9   7   2   32.47   13.85
   9   7  -3  411.13  151.26
  -9  -7  -3  532.55  132.59
  -9  -7  -3  383.83  127.06
  -9  -7  -3  425.54  154.47
   9   7   3  435.67  108.81
   9   7   3  352.97  128.22
  -9  -7   3  359.64  132.36
   9  -7   4   56.17   15.80
  -9   7   4   94.69   35.32
  -9  -7  -4   76.95   28.64
   9   7   4   60.03   17.18
   9   7   4   92.20   34.19
   9  -7   5  700.27  300.78
  -9   7   5  957.17  351.47
  -9  -7   5  785.29  337.18
   9  -7   6   10.14    7.97
   9   7  -6   15.53    9.20
  -9  -7   6   30.23   14.87
   9  -7   7  159.66   69.26
   9   7  -7  163.11   70.66
  -9  -7   7  179.13   77.47
  -9  -7   7  166.34   55.40
  -9   7  -7  164.61   71.10
   9  -7   8    4.19    9.35
   9   7  -8    1.36    8.20
   9   7  -8   12.13    8.05
  -9  -7   8   -2.79    8.71
  -9  -7   8   15.42    9.80
  -9   7  -8    7.09    8.64
   9  -7   9   21.06   14.91
   9   7  -9    3.59    8.95
  -9  -7   9   11.39    9.70
  -9  -7   9    5.50    7.00
  -9   7  -9    8.61    8.44
   9  -7  10   31.47   19.21
   9   7 -10   28.05   11.62
  -9  -7  10    6.39   11.91
  -9  -7  10   21.70   10.32
  -9   7 -10   40.30   21.38
   9  -7  11   53.88   25.94
   9  -7  11  154.47   51.03
   9   7 -11  123.84   54.58
   9   7 -11  121.19   40.73
  -9  -7  11  102.16   46.26
  -9   7 -11   94.73   42.86
   9  -7  12   30.48   16.70
   9  -7  12   18.88    7.28
  -9  -7  12   -2.15   11.54
  -9  -7  12    0.05    5.40
  -9   7 -12   22.31   14.95
   9  -7  13  132.94   43.99
   9   7 -13  227.86   98.55
   9   7 -13  169.68   56.47
  -9  -7  13  105.08   36.37
  -9   7 -13  171.06   74.66
  -9   7 -13  196.29   64.57
   9   7 -14   15.91   10.73
   9   7 -14    0.59    5.32
  -9   7 -14    2.72    3.06
  -9   7 -15    1.19    3.13
   9   8   0    6.34    5.65
  -9  -8   0   18.73    8.03
  -9   8   0   29.89   12.23
   9  -8   1    5.60    4.45
  -9   8   1   48.26   18.26
  -9  -8   1   17.79    8.31
   9  -8  -1   14.20    6.86
  -9   8  -1   12.95    5.89
  -9   8  -1    7.37    6.81
   9  -8   2   85.29   21.85
   9   8  -2  144.58   36.86
   9   8  -2  151.49   56.33
  -9  -8  -2  172.33   62.87
   9   8   2  118.08   30.34
   9   8   2  147.22   53.90
  -9  -8   2  125.11   46.56
  -9   8  -2  106.08   26.99
  -9  -8  -3  110.23   28.88
   9   8   3   45.17   18.25
  -9  -8   3  113.61   42.45
  -9   8  -3  138.81   35.11
   9  -8   4 2345.39  581.05
  -9   8   4 4210.41 1544.78
  -9  -8  -4 4527.20 1639.24
  -9  -8  -4 2808.47  921.34
   9   8   4 1985.97  492.12
   9  -8  -4 2877.59 1055.66
  -9   8   5   49.37   19.08
  -9  -8  -5   45.38   18.51
   9   8   5   74.96   27.20
   9  -8  -5   64.15   24.27
   9  -8   6  267.71  115.43
   9   8  -6  536.01  230.28
   9   8   6  439.25  145.38
  -9  -8   6  252.05  108.78
  -9   8  -6  308.96  132.94
   9  -8   7   53.07   24.81
   9   8  -7   14.80   11.25
  -9  -8   7   49.95   23.52
  -9   8  -7   67.02   29.94
   9  -8   8  567.11  243.64
   9   8  -8  439.94  189.27
  -9  -8   8  297.20  128.10
  -9  -8   8  259.88   85.99
  -9   8  -8  289.37  124.64
   9  -8   9    5.87    9.36
   9   8  -9    7.90    6.67
  -9  -8   9   14.49   10.21
  -9  -8   9    7.72    7.43
   9   8 -10  150.57   65.55
   9   8 -10  178.55   59.29
  -9  -8  10  158.85   69.20
  -9   8 -10  158.62   68.88
   9  -8  11   40.54   21.59
   9   8 -11   90.44   39.97
   9   8 -11   60.98   21.27
  -9  -8  11   85.00   29.34
  -9   8 -11   58.66   27.31
   9  -8  12   59.01   19.96
  -9   8  12   82.86   41.53
   9   8 -12   51.99   18.58
  -9  -8  12   22.37   15.36
  -9  -8  12   36.44   13.88
  -9   8 -12   30.27   17.65
   9   8 -13    2.48    7.86
   9   8 -13    9.90    7.02
  -9  -8  13    7.06    6.50
   9  -8 -13    8.12    4.83
  -9   8 -13    7.38    4.42
   9   8 -14   46.29   16.65
  -9  -8  14   17.03    8.72
   9  -8 -14   38.05   19.31
  -9   8 -14   18.14   12.71
  -9   8 -14   10.38    4.81
   9   8 -15    2.24    5.50
  -9   8 -15    1.26    3.18
  -9  -9   0    1.83    5.45
  -9   9   0    3.44    5.14
   9  -9   1  116.93   29.48
   9  -9   1  271.51   99.15
  -9   9   1  185.23   67.52
   9   9  -1   76.54   19.95
   9   9  -1  109.47   40.93
  -9  -9  -1  105.16   27.05
   9   9   1  107.32   27.64
   9  -9  -1  152.74   55.73
  -9   9  -1   90.33   23.15
  -9   9  -1  136.28   50.05
   9  -9   2   11.11    4.80
   9   9  -2    9.14    7.24
   9   9  -2    4.15    5.52
   9   9   2    7.94    5.60
   9   9   2   25.55   10.78
  -9  -9   2    8.42    6.17
  -9  -9  -3    3.54    6.70
  -9  -9  -3    8.78    6.97
   9   9   3    6.03    8.47
  -9  -9   3    3.18    5.27
  -9   9  -3    4.94    5.11
  -9   9   4   11.83    6.92
  -9  -9  -4   10.58    6.99
   9   9   4    9.39    6.67
   9  -9  -4   39.44   15.98
  -9   9   5   15.80    8.20
  -9  -9  -5   11.22    7.44
   9  -9  -5   48.97   19.04
  -9  -9  -6   11.97    9.99
   9   9  -7    4.05   12.91
  -9  -9  -7   28.11   14.46
   9   9   7   19.73   11.39
  -9  -9   7   -0.81   10.22
  -9   9  -7    9.07   10.24
   9  -9   8    8.31    9.61
  -9   9   8   26.44   13.59
   9   9  -8   10.51   10.00
   9   9   8   20.62   11.91
  -9  -9   8   14.62   11.55
  -9   9  -8   16.31   10.37
   9  -9   9   49.85   23.74
  -9  -9   9   23.65   14.08
   9  -9  -9   18.68    9.73
  -9   9  -9   52.81   24.23
   9  -9  10    7.56    8.45
   9   9 -10   16.27   10.78
   9   9 -10   13.79    7.12
  -9  -9  10   12.27    8.16
  -9   9 -10   12.38    9.77
   9  -9  11    7.29    7.72
  -9   9  11   65.58   32.95
   9   9 -11   10.65    8.57
   9   9 -11    1.79    5.64
  -9  -9  11    4.29    7.59
  -9  -9  11   19.28   12.19
  -9   9 -11   13.82    9.80
   9  -9  12   -1.88   10.50
  -9   9  12    2.74    3.42
   9   9 -12    9.70    8.20
  -9  -9  12    3.16    5.71
  -9  -9  12    0.82    8.29
   9  -9 -12    1.26    2.29
   9   9 -13    5.31    5.70
   9   9 -13   22.16    9.67
  -9  -9  13   12.79    7.76
   9  -9 -13   18.41    9.70
  -9   9 -13   10.14   10.01
   9   9 -14    2.15    8.50
   9   9 -14    0.47    4.72
   9  -9 -14    2.97    3.30
  -9   9 -14   -3.69    9.46
  -9   9 -14   -0.57    2.93
   9  10   0    9.12    5.46
  -9 -10   0    2.45    5.03
   9 -10   0    8.98    6.31
   9 -10   1   34.96    9.71
   9 -10   1   18.26   11.35
   9  10  -1   47.61   13.19
   9  10  -1   16.77    8.54
  -9 -10  -1   29.08    9.34
   9  10   1   17.54    6.96
  -9 -10   1   14.53    8.22
   9 -10  -1   19.04    9.08
  -9  10  -1   10.96    8.75
   9 -10   2   25.08    7.35
   9  10  -2   40.63   12.96
   9 -10  -2   38.97   15.36
  -9  10  -2   47.68   12.66
   9 -10   3   23.14    7.18
  -9 -10  -3    8.25    7.82
  -9 -10  -3   42.45   16.83
   9  10   3   37.38   15.54
  -9 -10   3    2.31    5.93
  -9  10  -3   18.55    6.59
  -9  10   4   59.72   22.92
  -9 -10  -4   24.92   11.30
   9  10   4   40.34   16.29
   9 -10  -4  134.32   49.98
  -9  10   5   13.67    7.96
  -9 -10  -5   27.39   11.74
   9  10   5   32.42   13.84
  -9 -10  -6   46.71   19.92
   9 -10  -6  168.99   62.65
  -9  10   7   10.79    6.13
   9  10   7   55.88   21.83
   9 -10   8  402.72  173.48
  -9 -10  -8  328.54  108.91
   9  10   8  345.48  114.99
   9 -10  -8  481.63  239.96
  -9  10  -8  354.57  152.86
   9  10  -9    6.40    9.99
  -9 -10  -9    7.25    9.48
   9  10   9   43.01   17.11
  -9 -10   9   37.23   18.43
  -9  10  -9   35.60   17.36
   9 -10  10   56.47   26.10
  -9  10  10   92.78   46.45
   9  10 -10   58.40   26.53
  -9 -10  10  125.91   55.14
   9 -10 -10   91.05   45.56
  -9  10 -10  130.75   56.87
   9 -10  11    7.92    8.27
  -9  10  11   26.03   13.42
   9  10 -11   18.67   11.66
  -9 -10  11   23.93   10.47
   9 -10 -11   15.34    8.20
  -9  10 -11   11.98    8.80
  -9  10  12   18.72    9.95
   9  10 -12   21.54   11.42
   9  10 -12    6.95    5.75
  -9 -10  12   10.34    9.80
  -9 -10  12   18.19    9.27
   9 -10 -12   15.21    8.10
  -9  10 -12   18.45   10.76
   9  10 -13    4.26    6.44
   9  10 -13    2.45    5.30
  -9 -10  13    4.87    5.89
   9 -10 -13    3.47    3.24
  -9  10 -13    1.26    6.57
   9  10 -14    8.59    5.64
   9  11   0    5.30    5.64
  -9 -11   0    4.98    6.22
   9 -11   0    8.94    6.44
  -9  11   0    3.72    5.02
   9 -11   1   19.79    6.93
   9  11  -1  146.30   54.51
   9  11  -1   30.86    9.58
  -9 -11  -1   36.90   10.93
  -9 -11   1   95.59   36.22
  -9 -11   1   20.08    7.29
  -9  11  -1   23.75    8.26
   9  11  -2   34.63   14.49
   9  11  -2   25.07    9.06
  -9 -11  -2    8.81    7.74
  -9 -11  -2   33.16   10.40
   9  11   2   25.57    8.83
  -9 -11   2   23.07    8.87
  -9  11  -2   26.43    7.84
   9 -11   3    8.56    4.43
   9  11  -3   11.84    7.53
  -9 -11  -3   10.30    8.45
  -9 -11  -3   20.89   10.08
   9  11   3   10.13    8.69
  -9 -11   3   45.20   18.18
  -9  11   4    4.85    6.46
  -9 -11  -4    7.16    7.20
   9  11   4    7.76    7.69
  -9 -11  -5   78.69   29.71
   9 -11  -5   83.04   31.41
  -9  11   6    8.24    7.15
  -9  11   6    0.96    2.65
   9 -11  -6    1.35    5.77
   9 -11   8    9.60   11.27
  -9 -11  -8    9.15   10.16
  -9 -11   8    1.84   11.21
   9 -11   9   26.17   14.34
  -9  11   9  202.51  101.05
   9  11  -9   17.94   12.75
   9  11   9   61.36   22.65
  -9 -11   9   43.36   21.00
   9 -11  -9   80.80   40.43
  -9  11  -9    2.88    9.09
  -9  11  10    7.97    5.06
   9  11 -10    8.17    8.58
  -9 -11 -10   14.65    9.22
   9  11  10   23.27   12.08
  -9 -11  10   18.98   13.42
   9 -11 -10    6.74    4.34
  -9  11 -10   19.88   11.29
   9 -11  11    5.97    8.49
  -9  11  11   29.43   15.13
   9  11 -11   19.23   11.47
  -9 -11 -11   29.87   13.71
  -9 -11  11   10.35   11.03
   9 -11 -11   27.57   14.11
  -9  11 -11   19.02   11.21
   9  11 -12    1.68    7.22
   9  11  12    3.30    6.72
  -9 -11  12    3.76    6.01
   9 -11 -12    8.78    5.23
  -9  11 -12    0.02    6.73
   9  11 -13    3.14    5.22
  -9 -11  13    2.11    6.54
   9 -11 -13    6.28    4.30
  -9  11 -13    0.06    7.88
   9  11 -14    0.38    4.74
   9  12   0   11.09    7.60
   9  12   0    3.32    5.40
  -9 -12   0   39.71   16.74
  -9 -12   0   -0.55    5.77
   9 -12   0    4.04    6.57
   9 -12   1   21.83    7.41
   9 -12   1   22.59   13.82
   9  12  -1   12.52    7.82
   9  12  -1   23.94    8.44
  -9 -12  -1   20.69    7.53
  -9 -12  -1   11.90   11.65
   9  12   1   35.61   10.78
  -9 -12   1   10.54    6.16
  -9 -12   1   24.26   11.08
   9 -12  -1   10.79    8.01
  -9  12  -1    4.23   10.78
  -9  12  -1   16.50    7.28
   9 -12   2  294.21   73.20
  -9  12   2  344.09  125.11
   9  12  -2  310.91  114.77
  -9 -12  -2  295.13   73.77
  -9 -12  -2  288.22  105.14
   9  12   2  298.82   74.79
  -9 -12   2  376.00  138.58
  -9 -12   2  254.58   63.80
   9 -12  -2  331.31  120.38
  -9  12  -2  278.66   69.38
   9 -12   3   57.53   15.02
   9  12  -3   39.66   16.89
  -9 -12  -3   44.53   14.92
   9  12   3   53.91   21.30
  -9 -12   3   51.34   21.02
   9 -12  -3   29.77   12.83
  -9  12   4 1668.03  612.15
   9  12   4 1746.37  632.66
  -9  12   5    9.99    7.07
  -9  12   5    0.64    2.69
  -9 -12  -5   32.76   13.94
   9  12   5   31.30   13.52
   9 -12  -5   16.65    8.97
  -9  12   6  432.10  159.20
  -9 -12  -6  318.75  116.12
   9  12   6  279.23  102.02
   9 -12  -6  399.84  147.34
  -9  12   8   52.79   26.62
   9 -12  -8   44.67   22.53
   9 -12   9   -1.53    8.90
  -9  12   9    4.72    3.97
   9  12  -9    2.42    9.39
  -9 -12   9   -2.26    9.51
   9 -12  -9    4.19    3.47
  -9  12  -9    1.80    8.22
   9 -12  10  163.57   71.25
  -9  12  10  178.55   89.09
  -9 -12 -10  207.01   69.94
  -9 -12  10  152.86   66.84
   9 -12 -10  251.71  125.57
   9  12 -11   21.65   12.51
   9 -12 -11   12.51    6.92
  -9  12 -11   15.47   10.49
   9  12 -12   89.44   39.66
  -9 -12 -12   66.72   23.93
   9 -12 -12   52.22   26.32
  -9  12 -12   58.31   26.66
   9  13   0    2.30    6.15
  -9 -13   0    7.43    5.71
   9 -13   1  423.35  105.15
   9 -13   1  422.43  153.78
  -9  13   1  267.25   97.70
   9  13  -1  489.70  180.39
  -9 -13  -1  447.31  111.35
  -9 -13  -1  719.05  261.03
  -9 -13   1  671.13  246.98
  -9 -13   1  406.99  101.34
   9 -13  -1  414.13  150.45
  -9  13  -1  520.11  129.25
   9 -13   2  127.52   31.97
  -9  13   2  150.22   55.16
  -9 -13  -2  121.99   31.30
  -9 -13  -2   96.05   36.10
   9  13   2  147.80   37.76
  -9 -13   2  161.62   60.34
  -9 -13   2   86.92   22.91
   9 -13   3 2188.72  542.12
  -9  13   3 2156.47  781.14
   9  13  -3 2662.18  976.86
  -9 -13  -3 2262.45  561.00
  -9 -13   3 2573.48  944.49
   9 -13  -3 2606.88  944.49
   9 -13  -4   49.40   19.80
  -9  13   5 1577.03  578.86
   9 -13  -5 1320.15  484.86
  -9 -13  -6    4.77    6.59
   9 -13  -6    7.98    7.20
  -9  13   7  199.29   99.44
   9 -13  -7  268.75   99.41
  -9  13   8   15.16    8.29
   9 -13  -8    9.75    5.71
  -9  13   9  343.52  171.18
   9 -13  -9  337.18  168.07
   9  13 -10   28.26   16.55
  -9 -13  10   13.09   12.27
   9 -13 -10   19.61   10.28
  -9  13 -10   55.62   25.83
   9 -13 -11  197.79   98.71
  -9  13 -11  241.45  104.51
   9  13 -12   36.84   18.28
  -9  13 -12   32.39   16.78
  -9 -14   0    5.29    8.30
  -9 -14   0    3.11    5.54
  -9  14   0   10.51    7.20
   9 -14   1   55.88   14.86
   9 -14   1   36.74   18.19
  -9  14   1   33.91   14.99
  -9 -14  -1   34.72   15.57
  -9 -14  -1   44.83   19.89
   9  14   1   46.94   18.95
  -9 -14   1   44.70   12.83
  -9 -14   1   49.80   20.68
   9 -14  -1   37.40   15.62
  -9  14  -1   44.79   12.69
  -9  14  -1   32.38   16.65
   9 -14   2   12.11    4.74
  -9 -14  -2    9.16    7.15
  -9 -14  -2   24.61   12.23
   9  14   2    5.14    6.50
   9  14   2    7.94   10.01
  -9  14  -2   15.71    5.94
   9 -14   3    4.72    4.38
  -9  14   3    1.29    7.07
   9  14  -3    9.27    9.48
  -9 -14  -3    6.08    9.78
  -9 -14   3    5.82    9.40
  -9  14  -3    0.73    4.04
   9 -14   4  218.30   54.79
  -9  14   4   60.95   24.10
  -9 -14  -4   74.28   29.16
   9  14   4  186.27   48.26
   9 -14  -4   78.62   30.38
  -9 -14  -5    6.59    7.38
   9  14   5    2.94    6.23
  -9  14   6   35.72   18.20
  -9 -14  -6   51.54   20.03
   9  14   6   38.44   15.84
   9 -14  -6   17.36    9.82
  -9  14   7    5.37    4.21
  -9 -14  -7    7.08    6.98
   9 -14  -7    5.86    5.53
   9 -14  -7    6.63    4.48
  -9  14   8    9.67    5.88
   9 -14  -8   13.75    7.51
   9 -14  -9    5.41    3.89
   9 -14 -10   22.43   11.67
   9  14 -11    6.58   10.04
  -9  14 -11   11.87   11.12
   9  15   0    1.15    7.19
  -9 -15   0    6.62    9.26
  -9 -15   0    2.51    5.49
   9 -15   0   -0.80    8.09
   9 -15   1    3.99    5.45
   9 -15   1  127.18   48.84
  -9  15   1   70.87   27.46
   9  15  -1   -4.36    6.14
   9  15  -1    4.17    8.00
  -9 -15  -1   21.50   12.58
  -9 -15  -1  189.61   70.55
   9  15   1   10.58    8.60
  -9 -15   1   31.66   15.30
  -9 -15   1   -1.84    6.10
  -9  15  -1  153.55   57.91
   9 -15   2   34.56    9.58
  -9  15   2   17.73   10.42
   9  15  -2   18.53    9.33
  -9 -15  -2   47.05   14.01
  -9 -15  -2   25.26   13.07
   9  15   2   66.49   18.65
   9  15   2   11.09   12.08
  -9 -15   2   33.03   15.62
   9 -15  -2   70.76   27.13
  -9  15  -2   41.30   11.20
   9 -15   3  195.83   48.90
  -9  15   3  397.08  197.91
   9  15  -3  260.22   96.63
  -9 -15  -3  291.91   73.94
  -9 -15  -3  362.63  132.25
  -9 -15   3  354.11  131.10
   9 -15  -3  271.74   99.06
  -9  15  -3  217.72   54.34
   9 -15   4   77.39   20.52
  -9  15   4   11.75    7.45
  -9 -15  -4    5.54    8.30
   9  15   4   29.54   13.72
   9  15   4    8.88    9.31
   9 -15  -4   21.29   10.44
   9 -15  -4    7.25    7.54
  -9  15   5   31.69   16.22
  -9 -15  -5   45.58   18.29
   9  15   5   30.11   13.75
  -9  15   6   16.69    8.99
  -9  15   6   12.72    7.40
  -9 -15  -6    8.37    6.61
   9  15   6    9.96    7.21
   9 -15  -6   21.25   11.11
  -9  15   7   16.18    8.23
  -9  15   7   16.80    9.06
  -9 -15  -7   16.05    8.72
   9  15   7    5.10    8.00
   9 -15  -7   10.73    6.61
   9 -15  -7   26.30   13.50
   9 -15  -8    8.39    5.06
   9 -15  -9    9.08    5.43
   9  16   0   27.41   13.70
  -9 -16   0   55.89   23.40
  -9 -16   0    7.90    6.21
   9 -16   0   -1.62    7.53
   9 -16   1   22.96    7.76
   9 -16   1   16.15   13.92
  -9  16   1   26.70   12.14
   9  16  -1   31.89   10.26
   9  16  -1   22.84   11.84
  -9 -16  -1   22.95   12.68
  -9 -16  -1    7.23   11.33
   9  16   1    6.21    8.05
  -9 -16   1   39.78   17.35
  -9  16  -1   17.99   13.81
  -9  16   2  607.54  302.62
  -9  16   2  426.80  155.16
   9  16  -2  475.99  175.44
   9  16  -2  466.19  116.12
  -9 -16  -2  485.09  176.25
  -9 -16  -2  486.47  121.42
   9  16   2  385.90  140.89
  -9 -16   2  547.41  201.71
  -9 -16   2  405.37  101.11
   9 -16   3    6.39    3.83
  -9  16   3    9.76    7.24
   9  16  -3    3.26    7.18
  -9 -16  -3   12.38    8.50
  -9 -16  -3   14.16   10.54
   9  16   3    5.52    8.82
  -9 -16   3    4.14    7.52
   9 -16  -3    3.77    5.97
  -9  16  -3    7.38    4.16
  -9  16   4   24.15   12.54
  -9  16   4   20.61   11.21
  -9  16   4    4.32    7.02
  -9 -16  -4    2.73    7.14
   9  16   4    4.69    8.64
   9 -16  -4   17.37    9.55
   9 -16  -4   11.77    8.03
  -9  16   5    8.81    6.87
  -9  16   5    6.04    4.29
  -9 -16  -5   27.06   12.41
   9  16   5   25.14   12.34
   9 -16  -5    6.23    6.12
   9 -16  -5    3.51    3.45
  -9  16   6   36.28   18.48
  -9  16   6   23.63   10.65
  -9 -16  -6   34.01   14.26
   9  16   6   32.85   13.98
   9 -16  -6   58.85   22.83
   9 -16  -6   46.21   23.30
  -9  16   7    7.21    5.72
  -9 -16  -7    7.00    6.24
   9  16   7   11.66    8.50
   9 -16  -7   12.30    6.82
  -9 -16  -8   41.14   17.01
   9 -16  -8   19.12   10.06
   9  17   0    2.08    6.62
   9  17   0   -4.05    4.70
  -9 -17   0    6.45    7.53
  -9 -17   0    0.19    4.77
   9 -17   0   -1.46    5.90
   9 -17   1   18.07    7.29
   9 -17   1   36.25   17.77
   9  17  -1    2.68    6.01
   9  17  -1    7.28    7.72
  -9 -17  -1   64.01   25.80
  -9 -17  -1    8.03    5.44
   9  17   1    7.54    6.77
   9  17   1    7.89    5.65
  -9 -17   1   34.04   14.98
  -9  17  -1   54.36   27.30
  -9  17  -1   54.98   23.06
   9 -17   2   19.30    6.10
   9  17  -2    5.26    6.94
  -9 -17  -2    0.87    6.02
  -9 -17  -2    3.98    5.95
  -9 -17  -2   -1.56    5.95
   9  17   2   -2.69    8.02
  -9 -17   2   21.45    8.97
  -9 -17   2    6.17    7.92
   9 -17  -2    5.04    7.50
  -9  17  -2    5.13    4.01
   9 -17   3   18.12    5.84
  -9  17   3   53.64   27.00
  -9  17   3   31.92   13.13
   9  17  -3   42.63   13.59
   9  17  -3   61.24   24.27
  -9 -17  -3   10.54    8.48
  -9 -17  -3   34.71   14.50
   9  17   3   24.38   12.25
  -9 -17   3   18.20   10.60
  -9  17  -3   29.17    8.26
  -9  17   4   10.87    6.28
  -9  17   4    4.11    6.82
  -9 -17  -4    3.94    6.65
   9  17   4    3.08    8.27
   9 -17  -4    3.19    6.29
   9 -17  -4   10.36    5.98
  -9  17   5  140.77   52.70
  -9  17   5  209.77  104.62
   9 -17  -5  100.21   37.89
   9 -17  -5  239.04  119.23
  -9  17   6    3.52    5.05
   9  17   6    5.49    6.69
   9 -17  -6    3.94    5.20
   9 -17  -6   10.78    6.11
  -9  17   7   14.50    7.60
  -9 -17  -7    6.61    5.92
   9  17   7   19.55    9.68
   9 -17  -7   18.75    9.22
   9 -17  -7    3.52    3.27
  -9 -17  -8    1.91    6.06
   9  18   0   12.68    7.93
   9  18   0    0.99    4.63
  -9 -18   0    8.90    5.77
   9 -18   0    0.64    6.05
   9 -18   1    5.91   11.87
   9  18  -1    9.26    5.74
   9  18  -1   13.13    8.41
  -9 -18  -1    0.84    5.83
  -9 -18  -1    3.29   10.13
  -9 -18  -1   10.59    5.56
   9  18   1    8.21    6.79
   9  18   1    3.83    4.66
  -9 -18   1   22.98   11.23
  -9 -18   1   11.43    6.53
   9 -18  -1   23.22   11.03
  -9  18  -1    6.35   10.50
   9 -18   2  121.65   30.53
  -9  18   2  176.71   88.19
   9  18  -2   63.70   17.39
   9  18  -2  130.64   49.13
  -9 -18  -2   92.93   34.86
  -9 -18  -2   90.86   34.70
  -9 -18  -2  100.37   26.26
   9  18   2   93.76   35.90
  -9 -18   2  114.05   29.66
  -9 -18   2  126.83   47.99
   9 -18  -2   80.05   30.60
  -9  18  -2   94.33   24.04
  -9  18   3   20.32   10.65
   9  18  -3    3.62    6.91
   9  18  -3   26.52   12.25
  -9 -18  -3   22.30    9.53
   9  18   3   33.60   15.22
  -9 -18   3   13.65    8.69
  -9 -18   3    7.69    7.92
   9 -18  -3   14.81    8.02
   9 -18  -3   34.06   14.70
   9 -18   4  414.25  102.99
  -9  18   4  461.93  230.28
   9  18   4  359.29   90.26
   9  18   4  787.94  286.14
   9 -18  -4  452.49  225.56
   9 -18  -4  509.17  185.00
  -9 -18  -5    3.87    8.74
   9 -18  -5    0.55    5.42
   9 -18  -5    4.12    3.46
   9 -18  -5   -0.18    6.54
  -9 -18  -6   29.90   13.16
   9  18   6   37.31   15.42
   9 -18  -6   70.20   27.20
   9 -18  -6   61.96   31.14
  -9 -18  -7    3.56    6.29
   9 -18  -7    4.60    6.23
  -9  18   8    7.75    5.34
  -9 -18  -8   35.32   15.04
   9  18   8   15.69    9.55
   9  19   0   -0.96    4.51
   9  19   0    3.15    5.99
  -9 -19   0   -0.65    4.59
  -9 -19   0    2.99    5.68
   9 -19   0   -0.54    6.59
  -9  19   0   -0.84    6.17
   9 -19   1   12.82   13.65
  -9  19   1   15.95    8.56
   9  19  -1   18.87    7.43
  -9 -19  -1   42.33   19.26
  -9 -19  -1    5.66    5.27
   9  19   1    6.11    4.71
   9 -19  -1    4.91    7.26
  -9  19  -1   45.40   20.42
   9 -19   2    2.39    3.22
  -9  19   2   -0.31    3.10
  -9  19   2    2.63    7.56
   9  19  -2    1.69    6.08
   9  19  -2   19.54    7.63
  -9 -19  -2    3.44    5.86
  -9 -19  -2    1.59    5.25
   9  19   2    2.50    8.73
   9  19   2    0.88    5.30
  -9 -19   2   -0.64    6.04
  -9 -19   2   17.91    7.84
   9 -19  -2    0.99    7.47
   9 -19  -2    2.11    2.86
  -9  19  -2   -0.23    3.99
  -9  19   3   63.68   32.00
  -9  19   3    7.20    7.39
   9  19  -3    7.94    7.17
   9  19  -3   15.94    8.64
   9  19   3   30.67   15.37
  -9 -19   3    8.12    7.36
  -9 -19   3   15.77    8.10
   9 -19  -3   70.22   35.22
   9 -19  -3   13.14    8.65
  -9  19  -3    9.22    3.77
  -9  19   4    4.21    6.45
  -9 -19  -4    2.22    4.51
   9  19   4   -0.42    9.12
   9 -19  -4    0.95    6.04
   9 -19  -4    0.82    6.12
   9 -19  -4    8.15    4.96
  -9  19   5    4.61    5.51
  -9  19   5    4.24    7.41
  -9 -19  -5   32.29   14.83
   9 -19  -5   25.54   11.75
   9 -19  -5    8.52    7.75
   9 -19  -5   10.83    6.16
  -9  19   6    3.23    4.93
  -9 -19  -6    0.83    6.52
   9 -19  -6   -0.28    5.22
  -9  19   7   14.36    7.80
   9  19   7    0.12    6.55
  -9  19   8    2.12    4.48
   9  19   8    1.07    6.70
   9  20   0    1.44    4.20
  -9 -20   0    0.33    5.68
   9 -20   0   -0.15    7.19
  -9  20   0   26.39   13.54
  -9  20   0    2.02    6.94
   9 -20   1   21.41   17.06
  -9  20   1    5.01    3.72
  -9  20   1    3.17    7.02
   9  20  -1    4.79    6.54
  -9 -20  -1    1.54    5.61
  -9 -20  -1    2.93   12.40
   9  20   1    2.32    5.37
  -9 -20   1    5.69    6.41
   9 -20  -1    3.27    7.87
   9 -20  -1    6.32    4.10
  -9  20  -1   42.97   20.70
   9 -20   2   14.62    5.28
  -9  20   2   18.57    9.85
  -9  20   2   10.10    8.71
   9  20  -2    9.65    6.21
   9  20  -2   13.97    8.64
  -9 -20  -2   36.22   15.29
   9  20   2   51.02   20.21
   9  20   2    8.98    9.83
  -9 -20   2   22.57   10.89
   9 -20  -2   23.18   11.98
   9 -20  -2   10.49    8.72
  -9  20  -2   22.34    7.83
  -9  20   3   16.12    9.72
   9  20  -3    6.17    6.96
   9  20   3   13.62    7.29
   9  20   3   13.13   10.46
  -9 -20   3    9.44    7.31
   9 -20  -3    9.04    5.31
  -9  20  -3   19.39    5.88
  -9  20   4    5.29    6.14
   9  20   4   50.69   21.06
   9 -20  -4    9.05    7.18
   9 -20  -4   11.38    6.44
  -9  20   5    1.82    4.99
  -9  20   5   12.99    8.46
  -9 -20  -5   10.53    8.45
   9 -20  -5   21.09   10.48
  -9  20   6   31.67   13.55
   9  20   6   80.72   31.06
  -9  20   7    4.98    5.24
   9  20   7   15.77    8.85
   9  21   0    3.00    4.82
  -9 -21   0   -0.03    5.37
   9 -21   0    1.96    2.72
   9 -21   0    0.09    6.68
  -9  21   0   -0.58    6.21
  -9  21   0    6.59    4.34
  -9  21   1   77.68   38.95
  -9  21   1   72.03   27.72
   9  21  -1   63.39   16.91
   9  21  -1   59.31   23.49
  -9 -21  -1  135.93   51.02
  -9 -21  -1   15.76   12.78
   9  21   1   39.68   16.32
  -9 -21   1   46.08   18.67
   9 -21  -1   62.10   24.42
   9 -21  -1   84.40   42.25
  -9  21  -1   88.38   34.89
  -9  21  -1   79.59   39.89
   9 -21   2    4.30    2.94
  -9  21   2    5.95    7.66
   9  21  -2    4.24    6.62
   9  21  -2    3.40    5.07
   9  21   2   -1.04    8.31
   9  21   2    4.55    5.30
   9  21   2    1.98    5.06
   9 -21  -2    3.84    3.31
  -9  21  -2    0.47    4.18
  -9  21  -2    2.90    2.90
   9 -21   3    3.01    2.61
  -9  21   3    1.07    5.45
   9  21  -3    3.04    6.35
   9  21  -3    2.33    6.62
   9  21   3    2.10    3.68
  -9 -21   3    5.80    7.03
   9 -21  -3   98.90   49.50
  -9  21  -3    5.77    3.80
  -9  21   4    5.21    7.34
  -9 -21  -4    5.24    7.83
  -9  21   5   71.74   27.69
  -9  21   6    3.63    5.73
  -9  21   6   -1.66    7.32
   9  21   6    9.03    7.98
   9  22   0    1.03    5.09
   9 -22   0   23.52   12.18
  -9  22   0    0.06    7.06
  -9  22   1    4.62    7.22
   9  22  -1    0.44    4.85
   9  22   1    3.78    5.69
   9 -22  -1    5.26    3.84
  -9  22  -1   18.36   14.34
  -9  22   2   21.53   11.67
   9  22  -2    8.81    7.18
   9  22   2   15.98    8.49
   9  22   2    0.21    8.06
  -9  22   3   -0.26    5.95
   9  22  -3    1.29    6.39
   9  22   3   -0.36    8.06
  -9  22   4   42.66   18.32
  -9  22   5   -2.37    6.38
   9  23   0    1.84    5.41
  -9  23   0    2.00    7.02
  -9  23   1   18.70   10.25
   9  23  -1   27.01   12.96
   9  23   1    9.24    6.65
   9  23  -2    7.11    7.45
   9  23   2   -4.20    8.68
  10   0   0 5970.60 1477.96
 -10   0   0 5631.92 1395.02
 -10   0   0 8207.71 3521.54
  10   0   1   75.66   25.30
 -10   0   1   36.41   13.26
  10   0  -1   41.30   13.11
  10   0   2 4530.65 1122.01
 -10   0  -2 6780.43 2215.22
 -10   0  -3  149.07   37.96
 -10   0  -5   11.42    9.40
 -10  -1   0  157.01   51.91
  10  -1   1  309.07   77.28
  10   1  -1  304.35   76.27
  10   1  -1  320.48  137.55
 -10  -1  -1  360.10   89.96
  10   1   1  288.68   72.23
 -10  -1   1  318.86   80.06
 -10  -1   1  299.97  128.79
 -10   1  -1  298.47   74.67
 -10   1  -1  290.06  124.53
  10   1  -2    4.38    7.76
 -10  -1  -2    5.28    6.79
 -10  -1  -2    9.12    4.79
  10   1   2   22.97    9.38
  10   1   2   24.86    9.97
 -10   1  -2   12.94    6.95
  10  -1   3   10.82    6.55
  10  -1   3   13.94    5.18
 -10  -1  -3   14.45    7.56
 -10   1  -3    5.73    5.98
 -10   1  -3   15.49    6.05
 -10  -1  -5   41.62   14.45
 -10   1  -5   51.63   15.99
  10   1 -13    5.07    7.37
  10   1 -14    4.24    7.49
  10   2   0  797.62  198.02
 -10  -2   0  949.79  235.69
 -10   2   0  932.74  231.43
  10   2  -1   86.40   23.30
  10   2  -1  106.46   35.56
 -10  -2   1   84.61   23.03
 -10  -2   1  129.60   43.16
 -10   2  -1  112.87   29.10
  10  -2   2   22.13   10.88
  10   2  -2   47.15   20.97
  10   2  -2   17.54    9.20
 -10  -2  -2   20.56    8.29
  10   2   2  112.85   41.18
  10   2   2   21.27    8.59
 -10  -2   2   29.99   11.84
 -10  -2   2   62.19   27.27
 -10   2  -2   36.81   11.33
 -10   2  -2   52.56   23.23
  10   2  -3   28.48   13.73
  10   2  -3   23.04    8.98
  10   2  -3   19.13    9.53
 -10  -2  -3   52.51   14.84
 -10  -2   3    6.04    6.44
 -10   2  -3   21.41   12.93
 -10   2  -3   25.37    8.85
  10   2  -4   62.55   28.83
 -10  -2   4   40.99   20.49
  10  -2  -4  105.52   38.86
 -10  -2  -5    3.07    9.21
 -10   2  -5    9.58    8.37
  10   2 -11    4.97    7.98
 -10  -2  11   31.41   14.01
  10   2 -12   23.63   11.37
  10   3   0  140.20   35.78
 -10  -3   0  139.39   35.86
  10  -3   0  186.50   47.15
 -10   3   0  172.91   44.04
  10  -3   1  110.66   28.42
  10  -3   1  166.22   60.36
 -10  -3  -1  107.54   27.89
  10   3   1  107.48   27.83
 -10  -3   1  117.62   30.94
 -10   3  -1  107.27   27.72
 -10   3  -1  110.93   40.34
  10  -3   2    3.30    5.46
  10   3  -2   15.49    8.08
 -10  -3  -2   15.97    7.73
 -10  -3  -2   10.91    6.25
  10   3   2   13.87    7.65
  10   3   2   10.70    6.67
 -10  -3   2   17.59    9.01
 -10   3  -2   28.89    9.43
  10  -3   3  126.26   32.19
  10   3  -3  130.29   48.06
 -10  -3  -3   45.94   17.61
 -10   3  -3  192.49   82.95
 -10   3  -3  115.77   29.57
  10  -3   4   42.84   21.89
 -10   3   4   41.14   15.40
  10   3  -4   29.44   12.36
  10   3  -4   36.86   17.10
 -10  -3   4   24.03   12.21
  10  -3  -4   25.33    9.60
  10   3  -5  532.44  228.78
  10   3  -5  545.11  178.67
 -10  -3  -5  129.60   34.12
 -10  -3   5  349.28  114.89
 -10  -3   5  501.56  215.65
 -10   3  -5   86.43   23.33
 -10   3  -5  433.72  186.39
  10  -3   6   44.53   14.77
  10   3  -6   35.56   17.95
 -10  -3   6   32.63   16.82
 -10   3  -6   27.84    9.47
  10   3  -7   38.65   17.28
 -10  -3   7   38.11   16.15
 -10  -3   8   22.52   13.14
  10   3  -9  139.62   47.58
 -10  -3  10   33.06   14.53
 -10  -3  11   69.18   26.01
 -10  -4   0  338.91   84.68
  10  -4   0  364.25   90.87
 -10   4   0  289.95   72.48
  10  -4   1   12.46    6.77
  10  -4   1    7.69    4.49
  10   4  -1    2.83    7.36
 -10  -4  -1    3.95    7.06
  10   4   1    2.52    5.93
 -10   4  -1    2.17    5.88
 -10   4  -1    8.57    4.23
  10  -4   2   84.86   22.05
 -10  -4  -2  110.93   28.59
  10   4   2   80.90   21.46
  10   4   2  121.42   44.48
 -10   4  -2  132.25   33.45
  10  -4   3    1.80    4.87
  10   4  -3    5.40    6.58
  10   4   3   51.00   19.31
 -10  -4   3    6.79    4.52
 -10  -4   3    5.55    5.65
 -10   4  -3    5.13    5.46
  10   4  -4   18.07   13.42
 -10  -4   4  164.50   71.01
  10  -4  -4   17.49    7.32
 -10   4  -4  189.50   81.67
  10  -4   5    2.19    9.88
  10   4  -5    3.60    6.33
  10   4  -5   10.91    9.88
  10   4  -5    2.76    6.04
 -10  -4  -5   14.13   10.29
 -10  -4   5   26.67   15.41
 -10  -4   5   -3.43    6.74
 -10  -4   5    5.95    6.75
 -10   4  -5   13.45    8.14
 -10   4  -5    1.61    6.52
  10  -4   6    5.13   10.51
  10   4  -6    2.46    7.28
  10   4  -6   37.50   14.32
 -10  -4   6    2.26    8.44
 -10  -4   6   28.55   11.38
 -10  -4   6   12.06   11.74
 -10   4  -6    7.05    8.71
  10  -4   7    3.01    2.84
  10   4  -7   27.51   13.26
  10   4  -7   -0.29    7.19
  10   4  -7   12.59    8.09
 -10  -4   7    1.94    8.68
 -10  -4   7    7.84    7.87
 -10   4  -7   12.58   10.67
  10  -4   8   22.47    8.02
  10   4  -8   14.31   11.22
  10   4  -8    7.67    8.64
 -10  -4   8   18.21   13.57
 -10  -4   8   11.65   11.03
 -10   4  -8   11.13    4.66
 -10  -4   9   17.36   11.17
  10   5   0   65.13   17.81
  10  -5   0   49.38   14.35
  10  -5   0   69.77   25.61
  10  -5   1 1191.12  295.13
  10   5  -1 1354.71  335.91
 -10  -5  -1 1336.27  331.19
 -10  -5   1 1255.64  311.26
 -10   5  -1 1426.13  353.42
  10  -5   2   59.80   15.99
  10   5  -2   44.67   19.03
 -10  -5  -2   42.73   12.56
 -10  -5  -2   19.95    8.83
  10   5   2   56.57   15.68
 -10  -5   2    6.11    5.09
 -10   5  -2   61.49   16.28
  10  -5   3  172.45   43.42
  10   5  -3  199.17   73.46
  10   5  -3  121.07   42.36
  10   5   3  142.04   51.85
 -10  -5   3  153.90   56.93
 -10   5  -3  107.78   27.50
  10  -5   4   18.63   11.04
 -10   5   4   24.04    9.52
 -10  -5   4   42.61   17.83
  10  -5  -4   17.77    7.56
 -10   5  -4   12.37    9.87
  10   5  -5   55.87   21.23
  10   5  -5   67.44   23.29
 -10  -5  -5   46.34   15.59
 -10  -5   5  116.69   50.76
 -10  -5   5   62.03   22.03
 -10   5  -5   63.22   18.09
 -10   5  -5  129.83   56.18
  10  -5   6    4.65    7.90
  10   5  -6   56.07   21.25
 -10  -5   6   35.04   16.40
 -10  -5   6    3.54    7.08
 -10   5  -6   40.69   18.59
  10  -5   7  118.08   52.54
  10   5  -7  148.26   64.28
  10   5  -7  114.61   38.66
 -10  -5   7  274.16  118.42
 -10  -5   7  127.52   42.95
 -10   5  -7  233.51  101.07
  10  -5   8   36.21   12.48
  10   5  -8  134.32   59.04
 -10  -5   8   81.20   37.55
 -10  -5   8   29.99   12.72
  10  -5   9 1581.64  516.89
  10   5  -9 1628.87  532.67
 -10  -5   9 1924.92  825.84
 -10  -5   9 1040.91  340.87
 -10   5  -9 1437.65  616.64
 -10   5  -9 1980.21  647.17
  10   5 -10   10.75   10.07
  10   5 -10   10.79    7.89
  10   6   0  466.08  154.24
  10   6   0  424.61  105.74
 -10  -6   0  332.23   82.94
 -10   6   0  412.63  102.74
 -10   6   0  421.27  152.74
  10  -6   1   18.01    6.95
  10   6  -1   39.54   13.26
  10   6  -1   46.03   19.68
 -10  -6  -1   11.17    6.26
  10   6   1   15.07    6.89
 -10  -6   1   13.57    8.60
 -10   6  -1   16.31    6.98
  10  -6   2   -0.35    4.54
  10   6  -2   16.24    7.41
 -10  -6  -2   16.84    7.55
 -10  -6  -2    3.24    4.50
  10   6   2    3.79    6.22
 -10  -6   2   52.07   20.40
 -10   6  -2   -0.44    4.26
  10  -6   3    4.60    4.84
  10   6  -3    6.03    9.92
  10   6  -3    2.17    4.51
 -10  -6  -3    5.58    5.76
  10   6   3    7.69    6.18
  10   6   3    2.77    5.55
 -10  -6   3    4.19    4.10
 -10   6   4   12.83    5.99
  10   6  -4   49.40   19.93
 -10  -6  -4   10.54    6.84
  10   6   4    8.61    6.33
  10  -6  -4   26.81   10.63
  10  -6   5    3.95    6.57
 -10   6   5   17.21    7.64
 -10  -6  -5   24.15   11.74
 -10  -6   5    4.15    6.90
 -10   6  -5   19.17    9.35
  10  -6   6   51.04   23.03
  10   6  -6   90.61   39.90
  10   6  -6   33.53   12.98
 -10  -6   6   86.62   37.91
 -10  -6   6   30.35   12.93
 -10   6  -6   81.17   35.40
  10  -6   7    7.80    8.24
  10   6  -7    3.78    6.15
 -10  -6   7    3.23    7.54
  10  -6   8  150.91   66.76
  10   6  -8   84.23   37.37
  10   6  -8   57.09   20.56
 -10  -6   8   69.22   24.88
 -10   6  -8   66.40   30.87
  10   6  -9   24.32   10.70
 -10  -6   9   26.30   17.60
 -10   6  -9   12.82   13.51
  10  -6  10   40.55   21.68
  10  -6  10   95.08   31.54
  10   6 -10   51.70   24.39
 -10  -6  10  109.22   48.94
 -10   6 -10   73.61   33.56
 -10   6 -10  104.97   34.66
  10   6 -11    4.08    6.03
 -10  -6  11   -5.52   11.23
 -10  -6  11   -2.79    5.51
 -10   6 -11   10.53   12.14
 -10   6 -11    0.52    2.63
  10   6 -12   -4.32    8.23
  10   6 -12   40.76   15.14
 -10   6 -13    2.63    3.29
  10   7   0   54.42   15.38
 -10  -7   0   33.57   10.46
  10  -7   0   36.62   11.13
 -10   7   0   24.11    9.27
 -10   7   0   40.25   15.34
  10   7  -1   31.46   10.82
 -10  -7  -1   68.51   25.90
  10   7   1   46.09   13.33
  10   7   1   54.87   21.22
 -10  -7   1   48.51   14.38
 -10  -7   1   19.24   12.45
 -10   7  -1   33.42   10.23
 -10   7  -1   51.34   19.19
  10  -7   2   25.64    8.08
  10   7  -2   13.79    7.81
 -10  -7  -2   16.15    7.64
 -10  -7  -2   28.21   15.38
  10   7   2   15.10    6.90
  10   7   2   36.57   15.09
 -10  -7   2   24.03   10.45
 -10  -7   2   23.96   13.17
  10  -7   3   34.77    9.95
  10   7   3   39.13   11.73
  10   7   3   65.42   24.57
 -10   7   4   16.95    7.89
 -10  -7  -4    9.05    7.24
  10   7   4    9.13    6.23
 -10  -7  -5   23.91   11.44
  10  -7  -5   88.37   32.92
 -10   7  -5   25.88   10.66
  10   7  -6   15.32    9.51
 -10  -7   6    5.49    7.58
  10  -7   7   78.51   35.09
  10   7  -7  111.66   49.34
 -10  -7   7   52.94   24.35
 -10  -7   7   41.25   15.89
  10  -7   8  145.50   63.33
  10   7  -8   29.76   15.32
  10   7  -8   21.61   10.16
 -10  -7   8   31.38   15.90
 -10  -7   8   18.70    9.97
 -10   7  -8   87.12   38.39
  10  -7   9   16.42   15.03
  10   7  -9   39.54   19.23
 -10  -7   9   17.42   11.32
 -10  -7   9   25.00   11.41
 -10   7  -9   26.97   14.08
  10  -7  10   12.98   14.57
  10   7 -10   17.77    8.65
 -10  -7  10    9.97   12.42
 -10  -7  10   19.13    9.24
 -10   7 -10   22.12   15.16
  10  -7  11  106.10   47.89
  10  -7  11    5.73    3.85
  10   7 -11   12.87    7.48
 -10  -7  11   12.28   12.91
 -10  -7  11    7.37    6.23
 -10   7 -11  112.36   50.10
  10  -7  12   -1.82    8.75
  10  -7  12    6.02    3.82
  10   7 -12   -2.33    8.80
  10   7 -12    3.52    5.18
 -10  -7  12   -0.73   10.48
 -10  -7  12   -3.96    5.59
 -10   7 -12   -4.88   10.54
 -10   7 -12    4.21    3.74
  10  -7  13    3.36    3.87
  10   7 -13    9.87    9.08
  10   7 -13    8.45    6.91
 -10  -7  13   16.74   13.47
 -10   7 -13   13.06   11.88
 -10   7 -13    0.95    3.23
  10   7 -14   10.19   10.10
  10   7 -14    7.48    6.34
 -10   7 -14   18.65    7.20
 -10   7 -15    3.74    3.50
  10   8   0  109.43   28.10
 -10  -8   0  101.37   26.23
 -10  -8   0  132.25   45.46
  10  -8   0   84.36   22.37
  10  -8   1   46.10   12.52
  10  -8   1   45.84   19.02
 -10   8   1   69.95   26.08
 -10  -8  -1   59.15   16.24
 -10  -8  -1   38.59   16.77
  10   8   1   49.07   13.94
 -10  -8   1   36.13   11.53
 -10   8  -1   47.96   13.34
 -10   8  -1   46.70   17.82
  10  -8   2   11.89    5.39
  10   8  -2   82.33   30.96
 -10  -8  -2   15.22    6.90
  10   8   2   30.30   12.41
 -10  -8   2   29.79   12.48
 -10   8  -2   16.29    6.54
  10  -8   3    5.56    4.44
  10   8  -3   17.35    8.40
 -10  -8  -3    6.39    6.62
 -10  -8  -3   34.36   15.64
  10   8   3   17.07    7.87
  10   8   3   22.50   11.81
 -10  -8   3    3.88    5.16
 -10  -8  -4  163.69   55.67
 -10  -8  -4   93.57   34.66
  10   8   4  108.92   40.25
 -10   8   5   32.61   13.19
 -10  -8  -5    7.32   10.56
  10  -8   6  240.19  103.79
  10   8  -6  350.78  151.03
 -10  -8   6  290.29  125.22
  10  -8   7   40.16   20.06
  10   8  -7   56.03   26.55
 -10  -8   7  132.02   57.92
 -10   8  -7   89.09   39.32
  10  -8   8   58.07   26.69
  10   8  -8   63.35   28.79
 -10  -8   8   49.83   23.11
 -10  -8   8  208.39   69.00
 -10   8  -8   40.72   19.10
  10  -8   9    6.02    8.60
  10   8  -9    6.83    8.75
  10   8  -9    3.09    5.66
 -10  -8   9   36.39   17.73
 -10  -8   9    6.15    7.55
  10   8 -10   18.85    8.74
 -10  -8  10    8.07    9.76
 -10  -8  10   21.74   10.10
 -10   8 -10   18.41   11.52
  10  -8  11   18.92   15.30
  10   8 -11    6.80    7.09
  10   8 -11   22.12    9.65
 -10  -8  11    7.70    7.15
 -10   8 -11   12.40   10.66
  10  -8  12    5.71    3.91
  10   8 -12    8.03    6.47
 -10  -8  12   -5.93   11.25
 -10  -8  12    9.86    6.46
 -10   8 -12   11.42   12.46
  10   8 -13    2.14    7.90
  10   8 -13    1.79    5.71
 -10  -8  13    3.05    5.77
  10  -8 -13    0.75    2.05
 -10   8 -13    1.13    3.20
  10   8 -14   13.62    6.85
 -10   8 -14    8.25   13.14
 -10   8 -14    5.65    3.63
  10   9   0    6.80    5.65
 -10  -9   0   14.16    7.49
  10  -9   0    1.59    5.28
 -10   9   0    6.43    5.71
  10  -9   1    7.82    4.66
 -10   9   1   37.45   14.56
  10   9  -1    6.26    5.13
  10   9  -1    9.46    5.51
 -10  -9  -1   11.05    6.36
  10   9   1    2.96    5.72
 -10  -9   1   12.84    7.38
  10  -9  -1   24.73   10.25
 -10   9  -1   13.57    5.99
  10   9  -2    7.48    7.24
  10   9  -2    7.67    5.82
 -10  -9  -2   -0.24    5.86
 -10  -9  -2    1.26    5.37
 -10  -9  -2   10.66    9.54
 -10   9  -2    2.11    4.42
  10  -9   3   51.72   13.86
  10   9  -3   70.45   26.84
 -10  -9  -3   34.79   15.19
 -10  -9  -3   61.35   23.23
  10   9   3   35.98   11.18
  10   9   3   48.69   19.50
  10   9   3   27.62   15.15
 -10  -9   3   27.39   11.59
 -10   9   4    3.17    5.72
  10   9   4    4.87    5.67
  10   9   4   14.42   12.35
  10  -9  -4    1.29    4.98
 -10  -9  -5  112.19   39.34
 -10  -9  -5   24.43   10.98
  10   9   5   23.59   11.23
  10  -9  -5   12.97    7.06
 -10  -9  -6   15.34   10.52
  10   9   6   50.11   20.59
  10  -9  -6    2.88    5.56
  10   9  -7   18.68   14.25
  10   9   7   15.82   10.86
 -10  -9   7    7.53   10.04
 -10   9  -7    9.59    9.36
  10  -9   8   16.86   12.03
  10   9  -8    6.67   10.43
 -10  -9   8    4.18    9.99
 -10   9  -8    3.80    7.99
  10  -9   9  130.64   57.07
  10   9  -9  159.66   69.46
 -10  -9   9  138.93   60.66
 -10  -9   9  252.05   83.39
 -10   9  -9  145.27   63.02
  10  -9  10   -0.48    7.98
  10   9 -10    4.07    5.46
 -10  -9  10   -0.88    6.49
 -10   9 -10    0.15    7.34
  10   9 -11   41.14   19.54
  10   9 -11   42.92   15.57
 -10  -9  11   30.55   15.44
 -10   9 -11   37.53   18.03
  10   9 -12    1.71    6.08
 -10  -9  12    4.90    7.80
 -10  -9  12    1.63    5.76
  10   9 -13    1.30    5.22
  10   9 -13    2.66    5.13
 -10  -9  13   -1.27    5.22
 -10   9 -13    9.73   11.93
  10   9 -14   -3.75    9.36
  10   9 -14    1.05    4.83
 -10   9 -14    4.93   10.76
 -10   9 -14    2.06    2.98
 -10 -10   0 2535.46  627.93
 -10  10   0 3107.98 1125.35
  10 -10   1   20.25    6.74
 -10  10   1   13.24    6.86
  10  10  -1   17.72    8.62
  10  10  -1   19.87    7.59
 -10 -10  -1    4.40    5.38
  10  10   1    9.18    5.58
 -10 -10   1    3.81    5.46
  10 -10   2   41.16   11.15
  10  10  -2   27.26    9.61
 -10 -10  -2   24.12    8.12
 -10 -10  -2   12.25    8.10
  10  10   2   59.64   16.09
 -10 -10   2   41.15   16.46
  10 -10  -2   12.45    7.03
 -10  10  -2   32.89    9.39
  10  10  -3   34.94   14.46
 -10 -10  -3   27.38   11.84
  10  10   3   30.77   10.46
  10  10   3   35.34   15.07
 -10 -10   3   19.59    9.32
 -10  10  -3   13.50    5.57
 -10  10   4   44.88   17.61
 -10 -10  -4   97.50   34.29
 -10 -10  -4  110.61   40.95
  10  10   4  103.12   38.58
  10 -10  -4   21.40    9.84
 -10  10  -4   51.10   14.94
 -10 -10  -5   10.28   10.11
 -10 -10  -5    5.28   10.58
  10  10   5   29.79   13.63
  10  10   5   20.95   10.17
 -10  10  -5    7.40    8.13
 -10  10   6  110.39   41.45
  10  10   6  139.62   47.54
  10 -10   8  489.70  210.69
  10  10  -8  217.49   94.51
 -10 -10  -8  338.68  112.44
  10  10   8  354.68  117.50
 -10 -10   8  350.20  151.14
 -10  10  -8  191.11   82.89
  10  10   9   18.96   10.54
 -10 -10   9   30.26   15.52
 -10  10  -9   30.37   15.14
  10 -10  10   63.43   28.78
  10  10 -10   68.29   30.93
 -10 -10  10   48.27   22.96
 -10  10 -10   46.64   21.50
  10 -10  11   -2.80    7.30
  10  10 -11    1.17    7.70
  10  10 -11    8.07    5.87
 -10 -10  11    8.55    6.71
 -10  10 -11    4.63    6.95
 -10  10  12   81.56   40.89
  10  10 -12   13.90    8.74
  10  10 -12    9.35    6.23
 -10 -10  12   18.71    9.23
 -10  10 -12   14.51    9.61
  10  10 -13    8.26    7.75
  10  10 -13    3.11    4.74
 -10 -10  13    7.95    6.83
 -10  10 -13    0.01    7.02
  10  10 -14   24.06    9.81
  10  11   0   32.42    9.92
 -10 -11   0   32.13   13.55
 -10 -11   0   27.68    9.07
  10 -11   0   74.12   27.89
  10 -11   1   26.71    8.31
  10 -11   1   55.32   23.00
 -10  11   1   29.54   12.36
  10  11  -1   56.16   21.76
  10  11  -1   58.61   16.02
 -10 -11  -1   29.78    9.39
  10  11   1   21.81    7.78
 -10 -11   1   35.71   15.01
 -10 -11   1   28.99    9.46
  10 -11  -1   34.51   13.94
 -10  11  -1   39.66   11.80
  10 -11   2   10.82    4.78
 -10  11   2    1.87    5.98
  10  11  -2    3.71    5.74
 -10 -11  -2    2.20    5.44
 -10 -11  -2    7.90    7.29
 -10 -11   2    3.41    6.01
 -10 -11   2    3.35    6.08
  10 -11  -2   12.27    6.99
 -10  11  -2    5.45    4.61
  10  11   3   46.38   13.67
  10  11   3   63.30   24.41
 -10  11  -3   47.39   12.87
 -10  11   4    9.62    6.66
  10  11   4    4.16    7.74
  10 -11  -4    8.08    6.64
 -10  11  -4   12.51    6.72
 -10  11   5   21.66   10.33
 -10 -11  -5   24.36   13.09
 -10 -11  -5   43.49   17.53
  10  11   5   40.16   16.30
 -10  11  -5   22.96    9.91
 -10  11   6   10.70    7.43
 -10 -11  -6   13.55    8.73
 -10 -11  -6   34.66   15.34
  10 -11  -6   10.54    7.47
  10 -11   8   35.18   18.28
 -10 -11   8    1.78   10.10
  10 -11   9   -1.46    8.06
 -10 -11  -9   27.14   12.76
 -10 -11   9   19.77   12.18
  10 -11  -9   31.75   16.10
 -10  11  -9    5.29    8.89
  10  11 -10   -3.73    7.59
 -10 -11 -10    9.79    8.25
  10  11  10   15.64   10.05
 -10 -11  10    2.50    7.25
 -10  11 -10   -4.44    6.68
 -10  11  11   46.38   23.42
  10  11 -11   48.49   22.77
 -10 -11  11   23.95   13.48
 -10  11 -11   16.55   10.01
  10  11 -12    1.22    7.75
 -10 -11  12    2.54    5.93
 -10  11 -12    0.87    7.00
  10  11 -13    0.44    4.69
  10 -11 -13    8.51    5.36
 -10  11 -13    7.51    9.55
  10  11 -14   -1.46    5.18
  10  12   0    4.29    5.95
 -10 -12   0   24.59   11.95
  10 -12   0    4.88    5.85
  10 -12   1   67.99   18.09
  10 -12   1   64.03   26.08
 -10  12   1   74.49   28.21
  10  12  -1   21.33   10.34
  10  12  -1   64.74   17.34
 -10 -12  -1   64.24   17.51
  10  12   1   51.91   14.42
 -10 -12   1   61.16   24.21
 -10 -12   1   64.39   17.36
 -10  12  -1   61.17   16.51
  10 -12   2  164.04   41.07
  10  12  -2  202.40   51.18
  10  12  -2  141.69   52.97
 -10 -12  -2  147.34   54.19
  10  12   2   79.19   30.45
 -10 -12   2  190.30   70.73
 -10 -12   2  186.85   47.13
  10 -12  -2  192.38   70.25
  10  12  -3    9.58    7.96
 -10 -12  -3   12.80    9.24
  10  12   3   16.47    8.68
 -10  12  -3    8.67    5.18
 -10  12   4    8.29    7.13
  10  12  -4   14.35    9.62
  10  12   4   21.53   11.37
  10 -12  -4    7.85    6.85
 -10  12  -4   27.83    9.53
 -10  12   5   22.11   10.99
 -10 -12  -5   20.11   12.91
 -10 -12  -5   26.03   11.78
  10  12   5   30.16   13.47
  10 -12  -5   32.36   13.71
 -10  12  -5   10.66    8.38
 -10  12   6   18.21    9.85
 -10 -12  -6   13.18    8.47
  10  12   6   20.60   11.37
  10 -12  -6   17.71    9.38
  10 -12  -7   63.21   24.51
 -10 -12  -8   11.33    9.45
  10 -12  -8   10.24    5.79
  10 -12   9   12.83   10.93
  10  12  -9    3.85    9.78
 -10 -12  -9    8.87    9.96
 -10 -12   9    5.47   10.10
 -10  12  -9   12.58   10.25
  10 -12  10    9.48    9.78
 -10  12  10   35.02   17.84
 -10 -12  10   14.75   11.17
 -10  12  11    9.31    5.78
  10  12 -11    7.03    8.05
 -10  12 -11    4.73    6.82
  10  12 -12   38.60   19.05
  10 -12 -12   15.94    8.52
 -10  12 -12   26.35   13.86
  10  13   0  201.25   50.64
  10  13   0  198.14   73.88
 -10 -13   0  175.33   65.48
  10 -13   0  324.85  118.08
 -10  13   0  173.83   63.91
  10 -13   1   26.59    8.78
  10 -13   1   88.06   34.43
  10  13  -1   14.79    7.12
  10  13  -1   75.53   29.26
 -10 -13  -1   55.41   22.37
 -10 -13  -1   29.32    9.84
 -10 -13   1  141.69   53.26
 -10 -13   1   23.78    8.92
  10 -13  -1   25.82   12.36
  10 -13   2   51.75   13.72
 -10  13   2   89.21   33.51
  10  13  -2   55.37   16.09
  10  13  -2   49.86   20.42
 -10 -13  -2  119.69   44.37
  10  13   2   63.98   17.56
  10  13   2   67.12   26.62
 -10 -13   2   44.66   18.45
  10 -13  -2   73.37   27.66
 -10  13  -2   56.96   15.14
  10  13  -3   42.37   18.22
 -10 -13  -3   12.30    9.50
  10 -13  -3   12.98    8.99
 -10  13   4   21.69   10.95
  10  13  -4    6.24    7.61
 -10 -13  -4   17.71   11.22
  10 -13  -4   15.06    8.84
 -10  13  -4   26.59    9.41
 -10  13   5  451.46  166.34
 -10 -13  -5  104.32   29.77
 -10 -13  -5  331.54  120.96
  10  13   5  458.13  166.45
  10 -13  -5  305.04  112.66
 -10  13  -5  122.22   31.87
 -10  13   6  104.24   39.49
  10  13   6   38.29   15.90
  10 -13  -6  122.34   46.11
 -10  13   9   12.33    7.01
 -10  13  10   43.91   22.28
  10  13 -10   27.20   16.09
 -10 -13 -10    9.23    8.68
 -10 -13  10   17.82   12.93
 -10  13 -10    1.32    7.93
 -10 -13 -11   11.35    9.52
  10 -13 -11    3.05    3.21
  10 -13 -12   39.27   19.94
  10  14   0   44.22   13.02
 -10 -14   0   52.78   21.82
 -10 -14   0   58.38   15.95
  10 -14   1    5.17    5.13
  10 -14   1   11.80   14.04
 -10  14   1    6.75    9.19
  10  14  -1    5.35    7.95
 -10 -14  -1    1.91    6.07
 -10 -14   1    3.11    6.22
 -10 -14   1   12.61    9.40
  10 -14  -1    3.59    7.92
 -10  14  -1    4.35    6.06
  10 -14   2  171.06   42.85
 -10  14   2  182.47   66.84
  10  14  -2  146.30   37.58
  10  14  -2  167.26   62.65
 -10 -14  -2  159.31   58.72
  10  14   2  123.15   31.81
 -10 -14   2  131.33   33.95
  10 -14  -2  133.05   49.22
 -10  14  -2  144.23   36.32
  10 -14   3    3.89    4.56
 -10  14   3    6.09    7.97
  10  14  -3    7.70    8.41
 -10 -14  -3    7.91    8.67
 -10 -14  -3    4.74    8.05
  10  14   3    8.67    8.63
 -10 -14   3    4.44    7.40
  10 -14  -3   18.53    9.85
 -10  14  -3    7.10    5.24
  10  14  -4   20.16   10.45
 -10 -14  -4    6.67    8.23
  10 -14  -4   11.93    8.35
 -10  14  -4    8.18    6.34
 -10 -14  -5   30.92   16.90
 -10 -14  -5    8.17    7.40
  10 -14  -5    1.41    5.37
 -10  14  -5   19.49    9.26
 -10  14   6   92.33   34.97
 -10 -14  -6   83.40   31.30
  10 -14  -6   97.26   36.63
 -10  14   7    0.10    4.80
 -10 -14  -7    5.68    6.97
 -10  14   8   38.72   19.65
 -10  14   9    2.98    3.61
  10 -14  -9    0.62    2.80
 -10  14  10   11.35    6.60
  10 -14 -10    7.85    4.91
  10  14 -11   12.29   12.08
  10 -14 -11    3.42    3.41
 -10  14 -11   -1.05    8.97
  10  15   0   82.61   32.04
  10  15   0   86.05   22.89
 -10 -15   0   85.49   33.22
 -10 -15   0   84.30   22.28
 -10  15   0  113.37   42.17
  10 -15   1   30.93   17.64
 -10  15   1    3.59    7.87
 -10 -15  -1   19.10    8.16
 -10 -15  -1    5.40    7.78
  10  15   1    1.50    5.86
 -10 -15   1   13.43    7.05
 -10 -15   1    2.06    7.62
  10 -15  -1    7.55    7.21
 -10  15  -1    7.24   12.04
 -10  15  -1   10.79    6.45
  10  15  -2   13.21    9.55
 -10 -15  -2   17.43    9.93
  10  15   2   16.22    8.55
  10  15   2   18.01   12.38
 -10 -15   2    5.52    7.18
 -10 -15   2   14.76    8.05
  10 -15  -2   18.96    9.98
 -10  15  -2   26.02    8.36
 -10  15   3   37.44   18.97
 -10  15   3   35.55   14.65
  10  15  -3   16.83    9.71
 -10 -15  -3   33.83   12.69
 -10 -15  -3   27.21   12.69
  10  15   3    9.23    9.72
  10  15   3   23.49   10.68
 -10 -15   3   40.53   17.05
  10 -15  -3   10.51    7.36
 -10  15   4   10.29    7.22
  10  15  -4    6.94    7.59
 -10 -15  -4   15.33    9.17
  10  15   4    7.62    9.69
  10 -15  -4    7.51    6.74
  10 -15  -4   12.65    7.77
  10 -15  -4   12.15    6.68
 -10  15  -4   10.26    6.56
 -10 -15  -5   16.98   13.50
 -10 -15  -5    8.33    6.74
  10  15   5    8.43    8.22
  10 -15  -5   15.24    8.50
 -10  15  -5   12.41    7.12
 -10 -15  -6    0.50    5.95
  10  15   6    2.17    6.16
  10 -15  -6    1.13    5.09
 -10  15   7   23.70   12.30
 -10 -15  -7   20.33    9.84
  10  15   7   33.81   14.87
  10 -15  -7   29.81   12.54
 -10  15   8    7.79    5.27
  10 -15  -8   10.92    6.72
  10 -15  -8    5.48    3.87
 -10  15   9   58.82   29.62
  10 -15  -9   43.03   21.76
  10 -15 -10    2.69    3.24
  10 -15 -11    5.18    4.16
 -10 -16   0  475.76  175.67
 -10 -16   0  662.37  164.61
 -10  16   0  811.44  294.32
  10 -16   1    9.93    5.70
  10 -16   1    9.26   11.43
 -10  16   1    3.68    6.77
 -10 -16  -1    5.08    8.08
 -10 -16  -1   21.25    8.24
  10  16   1    7.84    7.82
  10  16   1   33.84   10.75
 -10 -16   1    7.25    7.77
 -10 -16   1   28.95    9.74
 -10  16  -1    4.39   10.08
  10 -16   2   86.66   22.07
 -10  16   2   82.39   41.25
  10  16   2   92.76   24.51
 -10 -16   2   83.97   32.35
 -10 -16   2   82.00   21.99
 -10  16  -2   79.42   20.50
  10 -16   3    8.00    3.86
 -10  16   3    4.71    5.99
  10  16  -3    2.69    6.55
 -10 -16  -3    7.67    7.80
 -10 -16  -3    6.79    6.59
  10  16   3    5.90    6.75
  10  16   3    8.17    8.29
 -10 -16   3    8.04    7.91
  10 -16  -3    3.88    5.66
  10 -16  -3   15.59    8.24
 -10  16  -3    6.28    3.92
 -10  16   4   73.52   28.32
 -10  16   4  201.36  100.49
 -10  16   4   59.21   22.88
  10  16  -4   47.82   19.66
 -10 -16  -4  119.23   44.17
  10  16   4   85.04   32.57
  10 -16  -4   50.03   20.00
  10 -16  -4   90.76   34.06
 -10  16  -4   91.91   23.67
 -10  16   5   17.81    8.53
 -10 -16  -5    0.44   11.43
  10  16   5   32.14   14.43
  10 -16  -5    1.44    5.28
 -10  16  -5    1.27    5.12
 -10  16   6   79.50   39.83
  10  16   6   14.49    8.85
  10 -16  -6   72.00   27.66
 -10  16   7   10.55    6.26
  10  16   7    2.85    7.00
  10 -16  -7    2.26    5.20
  10 -16  -7   -0.71    2.51
 -10  16   8   40.77   20.68
 -10 -16  -8    0.39    6.45
  10 -16  -8   37.04   18.79
  10 -16  -9   -0.71    2.90
  10 -16 -10    3.69    3.68
  10  17   0   15.27    8.60
 -10 -17   0   24.88   11.75
 -10 -17   0    4.23    5.43
  10 -17   0    0.99    6.52
  10 -17   1    8.36    5.92
  10 -17   1    4.17   11.17
 -10  17   1   27.08   11.87
  10  17  -1    4.77    6.70
  10  17  -1    0.13    6.02
 -10 -17  -1   10.94    8.18
 -10 -17  -1    2.99    4.99
  10  17   1    5.00    5.65
 -10 -17   1   19.73   10.60
 -10  17  -1    8.81    9.96
  10 -17   2   -0.71    3.60
 -10  17   2    9.38    7.63
  10  17   2    1.28    4.42
  10  17   2   -1.86    5.10
  10  17   2    1.91    8.40
 -10 -17   2    5.76    6.73
 -10 -17   2    4.51    7.01
  10 -17  -2   13.13    7.03
 -10  17  -2    2.74    3.93
  10 -17   3   13.10    4.61
 -10  17   3   10.89    6.06
 -10  17   3   10.78    7.31
  10  17  -3    2.49    7.75
 -10 -17  -3    5.14    6.85
  10  17   3   35.05   11.46
  10  17   3   15.08    9.71
 -10 -17   3   23.30   11.34
 -10  17  -3   23.89    7.10
 -10  17   4    5.28    6.07
 -10  17   4    2.04    6.61
  10  17  -4    3.67    7.23
  10  17   4    1.39    8.55
  10 -17  -4    6.93    6.34
  10 -17  -4    5.54    6.65
 -10  17   5    7.04    4.68
 -10  17   5   -0.25    5.02
 -10 -17  -5    7.23   11.09
  10  17   5   14.45    9.57
  10 -17  -5   16.46    8.65
 -10  17  -5    7.73    5.01
 -10  17   6   23.56   12.22
 -10  17   6    3.31    5.32
 -10 -17  -6    5.29    6.10
  10  17   6    1.62    5.61
  10 -17  -6    1.53    5.40
  10 -17  -6   18.25    9.57
 -10  17   7   18.35    8.79
 -10  17   7    7.58    4.91
 -10 -17  -7   10.90    7.51
  10 -17  -7    8.29    6.93
  10 -17  -7   15.00    8.10
 -10  17   8   10.89    6.13
 -10 -17  -8   -0.30    5.94
  10  17   8    3.32    6.53
  10 -17  -8    5.86    4.17
  10 -17  -9    1.92    3.27
  10  18   0   51.85   20.87
 -10 -18   0   69.60   27.24
 -10 -18   0   93.64   24.33
  10 -18   0   34.42   14.60
  10 -18   1   30.34    9.60
  10 -18   1   33.65   17.45
  10  18  -1   31.52   10.02
  10  18  -1   39.36   16.38
 -10 -18  -1   48.06   19.31
 -10 -18  -1   23.90    9.28
  10  18   1   35.66   14.92
 -10 -18   1   30.52   10.60
 -10 -18   1   31.06   13.84
  10 -18  -1   43.82   22.07
  10 -18  -1   14.66    8.96
 -10  18  -1   19.81   12.78
  10 -18   2    9.18    4.34
  10  18  -2   17.81    7.36
  10  18   2   -1.15    9.13
 -10 -18   2    6.09    6.63
 -10 -18   2    2.04    6.42
  10 -18  -2    9.27    8.59
 -10  18  -2   28.10    8.54
  10 -18   3    4.32    3.05
 -10  18   3    3.31    5.81
 -10 -18  -3    1.41    6.47
 -10 -18  -3    7.19    5.80
  10  18   3    4.23    8.30
 -10 -18   3    5.17    7.03
  10 -18  -3    6.63    7.10
 -10  18  -3   14.69    5.21
 -10  18   4   15.09    8.19
 -10  18   4   12.88    7.66
 -10  18   4   27.62   11.87
  10  18   4    9.10    9.99
  10 -18  -4    7.40    6.74
  10 -18  -4    5.75    6.65
 -10  18   5   10.25    5.96
 -10  18   5    1.22    4.93
 -10 -18  -5    0.74    7.77
  10 -18  -5   11.81    7.34
  10 -18  -5   13.54    7.35
  10 -18  -5    2.71    6.47
 -10  18  -5    2.66    5.09
 -10  18   6   38.43   19.54
 -10 -18  -6   28.26   12.81
  10 -18  -6   47.59   24.00
 -10  18   7   16.60    8.32
 -10 -18  -7   14.38    8.52
  10  18   7   21.01   10.17
  10 -18  -7    9.00    5.42
 -10  18   8   27.07   11.50
  10  18   8    8.06    7.86
  10 -18  -8    4.15    3.73
  10 -18  -9    2.95    3.48
  10  19   0    1.38    3.84
  10  19   0    2.65    5.96
 -10 -19   0    1.93    4.61
 -10 -19   0    2.40    5.39
  10 -19   0    0.59    7.18
  10 -19   0    4.53    3.19
  10 -19   1    3.80   13.43
  10  19  -1    1.51    4.87
  10  19  -1    2.72    5.95
 -10 -19  -1   15.61    9.14
  10  19   1    2.18    5.66
  10  19   1    4.21    4.48
 -10 -19   1    4.01    6.32
 -10 -19   1    9.72    6.28
  10 -19  -1    5.99    7.85
 -10  19  -1    5.14   11.62
  10 -19   2   14.40    5.45
  10  19  -2   -2.78    5.79
  10  19  -2   12.31    7.44
 -10 -19  -2    5.04    5.89
  10  19   2    0.35    9.25
 -10 -19   2    4.91    6.65
 -10 -19   2    2.01    6.46
  10 -19  -2    1.30    7.46
 -10  19  -2    1.71    5.03
  10 -19   3    3.75    2.79
 -10  19   3   26.47   13.64
  10  19   3    3.26    9.12
 -10 -19   3    6.16    7.62
  10 -19  -3   15.66    9.24
 -10  19   4    1.15    5.34
 -10  19   4    1.13    2.86
 -10  19   4    2.79    7.11
  10  19  -4    2.34    6.50
  10  19   4    9.85    9.98
  10 -19  -4    1.35    5.59
  10 -19  -4   -0.07    2.52
  10 -19  -4    1.25    6.26
 -10  19   5   -0.95    5.07
 -10  19   5   13.85    7.70
 -10  19   5    3.62    6.32
 -10 -19  -5   -0.03    6.82
  10 -19  -5    2.90    5.53
  10 -19  -5   28.86   14.78
  10 -19  -5    4.24    7.52
 -10  19  -5    4.40    5.11
 -10  19   6    0.07    5.06
 -10 -19  -6    2.95    6.47
  10  19   6    0.65    6.58
  10 -19  -6   11.28    6.41
 -10  19   7   12.29    7.07
  10  19   7   24.88   11.74
  10 -19  -7    9.09    5.58
 -10  19   8   -0.69    4.23
  10 -19  -8    4.31    3.66
  10  20   0    7.14    4.78
  10  20   0   12.42    7.99
  10 -20   0    1.53    7.31
  10  20  -1   27.51   12.57
 -10 -20  -1   11.88    8.00
  10  20   1   10.83    6.89
  10  20   1    9.20    5.41
 -10 -20   1   26.84   12.43
  10 -20  -1   10.48    8.90
 -10  20  -1    6.19    3.85
 -10  20  -1    5.15   11.17
  10 -20   2    5.64    3.67
 -10  20   2   11.57    6.67
 -10  20   2    7.07    7.76
  10  20  -2    8.65    5.73
  10  20  -2    6.37    6.54
 -10 -20  -2    4.97    5.69
  10  20   2    2.68    4.79
  10  20   2   -2.07    9.00
  10  20   2    2.97    4.99
 -10 -20   2   10.05    7.64
  10 -20  -2   13.74    9.78
 -10  20  -2    7.48    5.50
  10 -20   3    7.55    3.51
 -10  20   3    1.25    2.85
 -10  20   3   -0.03    6.77
  10  20  -3   -1.90    6.15
  10  20   3    1.42    7.75
 -10 -20   3    0.07    6.16
  10 -20  -3    2.36    7.64
  10 -20  -3    7.64    4.72
 -10  20  -3    4.29    3.72
 -10  20   4   10.35    6.14
 -10  20   4   -1.08    5.54
 -10  20   4   16.99    9.02
  10  20  -4    2.97    6.35
 -10 -20  -4    8.62    7.87
  10 -20  -4    3.88    6.02
  10 -20  -4   29.74   15.24
 -10  20  -4   10.39    4.58
 -10  20   5   -0.69    5.11
 -10  20   5    1.04    6.96
 -10 -20  -5   -2.57    7.39
  10  20   5    0.37    8.03
  10 -20  -5    3.88    3.53
 -10  20   6    3.55    5.51
  10  20   6   45.57   18.89
  10 -20  -6   -0.52    3.13
 -10  20   7    2.02    4.80
  10  21   0    4.20    5.51
  10  21   0    2.65    4.60
 -10 -21   0   -0.13    5.35
 -10  21   1   17.48    9.30
 -10  21   1   11.89    8.54
  10  21  -1   13.87    8.36
  10  21   1    9.35    5.20
 -10 -21   1   12.16    7.78
 -10  21  -1    6.31   11.13
  10 -21   2   -0.52    3.35
 -10  21   2    1.22    3.05
 -10  21   2    1.40    7.15
  10  21  -2    1.67    5.83
  10  21  -2    2.54    6.04
 -10 -21  -2   -4.31   11.18
  10  21   2    2.14    4.76
  10  21   2   -5.47    8.63
 -10 -21   2    1.08    6.02
  10 -21  -2   -2.93    2.94
 -10  21  -2   -2.60    6.19
 -10  21   3   18.71   10.41
  10  21  -3    1.31    8.14
 -10 -21  -3    0.83    7.29
  10  21   3   14.36    9.83
  10 -21  -3   15.54    8.39
 -10  21   4   -0.58    5.40
 -10  21   4    3.38    6.66
  10  21  -4   -1.19    5.96
  10 -21  -4    1.72    3.11
 -10  21   5    1.19    5.84
 -10  21   5   22.52   11.10
  10  21   5    4.18    8.97
  10 -21  -5    1.63    3.28
 -10  21   6    0.27    6.06
  10  22   0    7.39    5.98
 -10  22   0   -2.44    6.54
 -10  22   1   -1.16    6.22
  10  22  -1    0.39    5.50
  10  22   1   15.11    8.26
  10 -22  -1   12.58    7.06
 -10  22  -1   -0.98   11.11
 -10  22   2   26.61   12.83
  10  22  -2    2.99    6.46
  10  22   2    8.13    5.93
  10  22   2   -5.21    8.09
  10 -22  -2   11.03    6.36
 -10  22   3    2.29    7.14
  10 -22  -3    1.09    3.46
 -10  22   4   -2.72    6.23
  10  22  -4   -1.73    7.39
  11   0   0   10.48    8.53
 -11   0   0   13.94   10.63
 -11   0   0   33.30   14.71
  11   0   1  273.93   89.88
 -11   0   1  638.30  158.74
  11   0  -1  508.47  126.60
 -11   0  -1  234.31   76.92
  11   0   2   89.21   23.35
  11   0   2  825.73  269.90
 -11   0  -2   82.34   21.82
 -11   0  -2  735.41  240.42
 -11   0  -2  157.58   57.25
  11   0   3  410.79  102.37
 -11   0  -3  436.37  108.73
 -11   0   4  231.32   85.03
  11   0  -4  238.92   87.83
 -11   0  -4  131.33   33.88
  11   0   5    8.01    7.33
 -11   0  -5   13.82    8.02
  11   1   0   -2.08    7.29
  11   1   0    4.31    4.93
 -11  -1   0   -5.91    8.46
 -11  -1   0    2.95    5.35
  11  -1   0   -3.72    8.21
 -11   1   0    2.04    8.72
  11   1  -1   76.69   33.21
  11   1  -1   47.50   14.56
  11   1  -1  102.50   34.18
  11   1   1   66.34   18.15
 -11  -1   1  151.59   65.30
 -11  -1   1   52.62   18.45
  11  -1  -1   61.99   17.48
 -11   1  -1   61.35   16.90
 -11   1  -1  112.12   48.28
  11  -1   2   16.16    7.48
 -11  -1  -2   25.17    9.32
 -11  -1  -2   31.24   12.04
 -11  -1   2    5.51    9.51
 -11   1  -2   19.46    7.75
  11  -1   3   78.41   25.94
 -11  -1  -3   58.73   16.13
  11   1   3   60.09   16.84
 -11   1  -3   73.60   24.40
  11   1  -4    7.38    3.91
 -11  -1  -4   14.79    8.20
 -11  -1   4    5.89    3.37
 -11   1  -4    7.48    7.29
  11  -1   5   11.45    7.65
 -11  -1  -5   18.98    8.65
  11   1   5    6.48    7.37
 -11   1  -5   10.06    7.66
  11   1 -13    8.44    7.30
  11   2   0   35.70   11.67
 -11   2   0   16.50    9.31
  11   2  -1   18.66    9.52
  11   2  -1   27.05   10.55
 -11  -2  -1   14.45    7.45
  11   2   1   15.64    7.77
 -11  -2   1   20.83    9.61
 -11   2  -1   11.01    7.27
  11  -2   2   14.60    7.94
  11   2  -2   15.01    8.14
  11   2  -2   32.72   12.58
 -11  -2  -2   10.13    6.58
 -11  -2  -2   15.70    7.03
 -11  -2   2   11.69    6.80
 -11  -2   2   62.90   27.53
 -11   2  -2   17.37    6.84
 -11   2  -2   54.26   23.81
  11   2  -3   20.80   10.47
  11   2  -3   11.61    7.29
 -11  -2  -3    9.54    6.61
  11   2   3    4.80    6.53
 -11  -2   3    9.43    6.89
 -11   2  -3   43.68   21.61
  11   2  -4   44.71   16.80
 -11  -2  -4   74.96   20.53
 -11  -2   4   55.37   20.63
 -11   2  -4   97.31   25.38
  11  -2   5    1.29    6.49
 -11  -2  -5    7.54    7.10
 -11   2  -5    2.84    7.05
  11   2 -11    9.39    8.10
 -11  -2  11    7.49    9.40
 -11  -2  12   49.61   20.06
  11   3   0    4.72    7.24
 -11  -3   0    0.37    6.84
  11  -3   0    1.33    8.80
 -11   3   0    2.62    7.52
  11  -3   1 1386.96  343.75
  11  -3   1 1806.27  654.89
  11   3  -1 1580.48  391.78
 -11  -3  -1 1427.28  353.88
  11   3   1 1330.51  329.69
 -11  -3   1 1064.98  264.37
 -11   3  -1 1300.56  322.44
 -11   3  -1 1776.32  643.72
  11  -3   2   61.19   16.45
  11   3   2   49.52   18.67
 -11   3  -2   63.36   16.75
  11  -3   3  123.03   31.51
  11   3  -3  207.01   68.21
 -11  -3  -3  141.46   36.14
 -11  -3  -3  321.86  116.81
  11   3   3   97.29   25.62
  11   3   3  135.24   49.34
 -11  -3   3  179.36   66.09
 -11  -3   3  208.51   89.78
 -11  -3   3  179.93   59.59
 -11   3  -3  207.35   89.18
  11   3  -4   15.44    8.65
  11   3  -4   32.84   12.97
 -11  -3   4   22.80    9.12
  11   3  -5   -2.86    9.00
  11   3  -5   18.74    9.49
 -11  -3  -5   23.17    9.49
  11   3   5   34.63   12.08
 -11  -3   5    0.50    9.27
 -11  -3   5   23.34   10.69
 -11   3  -5    7.98   10.95
  11  -3   6   40.28   13.34
  11   3  -6    7.98    9.27
 -11  -3   6   -0.03    8.37
  11   3  -9   60.78   22.29
 -11  -3  10   35.18   15.39
 -11  -3  12   11.03    9.96
 -11  -4   0    6.37    7.47
  11  -4   0    7.18    8.11
 -11   4   0   10.15    7.16
  11  -4   1    6.65    6.04
  11  -4   1    8.26    4.19
  11   4  -1   10.34    8.55
 -11  -4  -1    8.48    7.18
  11   4   1    6.79    6.81
 -11  -4   1    4.49    8.94
 -11   4  -1    6.52    5.75
 -11   4  -1   17.04    6.76
  11  -4   2   15.00    6.22
 -11  -4  -2    4.08    4.62
  11   4   2    4.97    6.57
 -11   4  -2   10.53    5.39
  11   4  -3   86.90   38.05
  11   4  -3   30.18   12.16
 -11  -4  -3   16.73    8.10
 -11  -4  -3   32.05   12.66
  11   4   3   13.85    7.78
  11   4   3   69.82   25.80
 -11  -4   3   23.58    9.80
 -11  -4   3   23.64   10.22
  11  -4   4   18.44   11.02
  11  -4   4    7.19    5.72
  11   4  -4   17.19    8.50
 -11  -4  -4    4.10    7.61
 -11  -4   4    9.68    5.12
 -11  -4   4   76.10   33.51
 -11   4  -4  105.88   45.96
 -11   4  -4    8.67    6.62
  11  -4   5    1.94    6.42
  11   4  -5    1.17    5.20
 -11  -4  -5    6.50    7.63
  11   4   5    7.17    8.09
 -11  -4   5    2.98    6.03
  11  -4  -5   14.50    5.94
 -11   4  -5   -1.50    5.69
  11  -4   6   22.30   14.01
  11   4  -6    7.08    6.38
 -11  -4   6    4.47    8.68
 -11  -4   6   11.40   10.62
 -11  -4   6    0.49    6.29
 -11   4  -6    4.15    8.37
  11  -4   7    5.43    2.93
  11   4  -7   13.77   10.52
  11   4  -7    2.30    7.79
  11   4  -7   20.60   10.26
 -11  -4   7   10.46   10.17
 -11  -4   7    4.41    7.43
 -11  -4   7   12.58   13.58
 -11   4  -7   31.78   16.81
  11  -4   8    7.14    3.57
  11   4  -8    5.65   10.50
 -11  -4   8    4.64   10.86
 -11  -4   8   45.28   18.77
 -11   4  -8    6.38    3.63
 -11  -4  11   21.91   12.50
  11   5   0   10.26    6.66
 -11  -5   0   -1.54    6.44
  11  -5   0   26.73   10.57
  11  -5   1  932.28  231.20
  11   5  -1  935.28  232.12
 -11  -5  -1  902.10  223.83
  11   5   1  980.43  243.18
 -11  -5   1  891.73  221.41
 -11   5  -1  795.66  288.22
 -11  -5  -2  298.36   74.65
  11   5   2  269.90   67.63
  11   5  -3  384.29  141.23
 -11  -5  -3  454.79  113.32
  11   5   3  465.62  116.12
 -11   5  -3  472.41  117.50
  11  -5   4   18.72    7.17
  11  -5   4  142.04   61.56
  11   5  -4   12.48    6.14
  11   5  -4   51.67   23.43
 -11  -5   4   68.29   23.53
 -11  -5   4   14.99    7.02
 -11  -5   4   14.23   10.69
 -11   5  -4   59.66   26.81
 -11   5  -4   28.34    9.64
  11  -5   5    9.54    6.92
 -11   5   5   74.84   27.85
  11   5  -5   73.70   26.46
  11   5  -5   61.32   21.41
 -11  -5  -5    7.88    8.25
  11   5   5    8.04    7.91
 -11  -5   5   63.44   22.47
 -11  -5   5   46.26   19.46
 -11  -5   5  166.92   71.96
  11  -5  -5  151.59   55.87
 -11   5  -5  167.38   72.09
  11   5  -6   47.76   17.15
 -11  -5   6  280.04  120.50
 -11  -5   6   41.94   16.13
 -11   5  -6  240.65  103.57
  11  -5   7  632.77  272.09
  11   5  -7  549.14  235.81
  11   5  -7  476.68  156.43
 -11  -5   7  510.89  219.68
 -11  -5   7  430.03  141.35
 -11  -5   7  423.35  141.23
 -11   5  -7  448.69  193.07
  11  -5   8  161.62   70.85
  11   5  -8  216.68   93.83
 -11  -5   8  174.75   76.44
 -11  -5   8  182.58   60.83
  11  -5   9   31.53   10.91
 -11  -5   9    9.82   12.83
 -11  -5   9   12.23    8.27
 -11   5  -9   93.84   42.23
 -11   5  -9   44.98   15.14
  11   5 -10    3.55    8.99
  11   5 -10   27.85   11.87
 -11   5 -10   17.56    6.56
  11   6   0    2.73    6.19
 -11   6   0   13.12    7.18
  11  -6   1   22.20    7.95
  11  -6   1   24.29    9.73
  11   6  -1   36.21   12.89
  11   6  -1   44.74   18.94
 -11  -6  -1   15.83    7.96
  11   6   1   38.79   11.73
 -11  -6   1   33.90   11.69
 -11   6  -1   37.28   10.67
  11  -6   2   18.66    6.98
  11   6  -2   50.59   20.53
 -11  -6  -2   15.54    7.30
  11   6   2   49.87   19.19
  11   6   2   23.79    8.72
 -11  -6   2   28.29   11.81
 -11  -6   2   69.28   26.98
 -11   6  -2   17.87    6.67
  11   6  -3   36.97   16.01
 -11  -6  -3    9.30    7.03
  11   6   3    9.17    6.49
  11   6   3   26.25   11.13
 -11  -6   3   16.22    7.51
 -11  -6   3   30.91   15.33
 -11   6  -3    6.59    5.71
  11  -6   4    6.88    5.70
  11   6  -4    2.51    4.39
 -11  -6  -4   20.80    9.19
  11   6   4   24.00   10.57
 -11  -6   4    4.81    4.61
 -11   6  -4   11.28    7.26
  11  -6   5    4.23    6.37
  11  -6   5   18.15    9.96
 -11  -6  -5    4.21    8.15
  11   6   5    9.55    8.37
 -11  -6   5   41.99   17.86
 -11  -6   5    6.76    6.60
  11  -6   6   30.40   15.00
  11   6  -6   21.70    9.71
 -11  -6   6   84.32   36.98
 -11  -6   6    7.27    7.39
 -11  -6   6   27.64   15.34
 -11   6  -6   95.68   41.67
  11  -6   7   38.75   19.23
  11   6  -7    1.50    9.40
  11   6  -7   12.64    7.77
 -11  -6   7   35.51   17.91
 -11  -6   7    9.81    8.26
 -11   6  -7   38.96   18.87
  11  -6   8   27.51   18.65
  11   6  -8   14.81   10.32
  11   6  -8   25.49   11.14
 -11  -6   8   26.84   11.83
  11  -6   9   26.35   18.85
  11   6  -9    6.57    6.71
 -11  -6   9   -3.41   11.95
 -11   6  -9   35.31   19.03
  11  -6  10    0.75   11.68
  11   6 -10    7.81    6.80
  11   6 -10    2.06    9.39
 -11  -6  10    3.97   12.45
 -11  -6  10    7.26    6.68
 -11   6 -10    5.94   10.73
 -11   6 -10   12.25    5.05
  11   6 -11   14.02   10.64
  11   6 -11   13.26    7.65
 -11  -6  11   -3.03   10.59
 -11  -6  11   -3.94    6.46
 -11   6 -11   10.98   11.42
 -11   6 -11    2.38    2.78
  11   6 -12   10.87    6.63
 -11   6 -13    4.64    3.43
  11   7   0    6.74   10.17
  11   7   0    1.19    6.49
 -11  -7   0    0.78    5.97
  11  -7   0    2.18    7.80
  11  -7   0   19.43    8.29
 -11   7   0    2.88    6.77
 -11   7   0    3.81    4.18
  11  -7   1   45.76   17.39
  11   7  -1   42.06   13.16
 -11  -7  -1   39.75   12.15
  11   7   1   39.90   17.24
 -11  -7   1   44.50   13.67
 -11  -7   1   82.60   29.96
 -11   7  -1   42.98   12.05
 -11   7  -1   21.29    8.86
  11   7  -2   86.14   32.21
  11   7  -2   43.15   14.39
  11   7  -2   76.25   28.29
 -11  -7  -2   20.31    7.96
  11   7   2   22.01    8.24
 -11   7  -2   27.91    8.97
  11   7  -3   37.48   17.66
  11   7  -3    8.24    5.90
 -11  -7  -3    9.51    6.82
 -11  -7  -3   20.49    9.85
 -11  -7   3   32.16   13.04
 -11  -7   3   22.50   12.83
 -11   7  -3    8.89    5.71
  11  -7   4   12.06    6.09
  11   7  -4    4.15    5.56
 -11  -7  -4   11.52    7.30
 -11  -7   4    5.07    5.20
 -11  -7   4   17.76   11.61
 -11   7  -4    2.46    5.97
  11  -7   5   36.33   11.45
  11  -7   5  158.62   68.78
 -11  -7  -5   15.84    9.68
  11   7   5   33.27   11.96
 -11  -7   5   86.97   38.28
  11  -7  -5   72.71   27.26
  11  -7   6   25.78   14.03
  11   7  -6   17.57   10.66
 -11  -7   6   13.33    9.44
 -11   7  -6    8.70    7.52
  11  -7   7   30.38   16.02
  11   7  -7   12.71    7.75
 -11  -7   7   49.89   23.04
 -11  -7   7    3.28    7.89
 -11   7  -7   68.73   30.78
  11  -7   8    9.30    9.77
  11   7  -8    2.98    8.23
  11   7  -8    9.46    7.05
 -11  -7   8   12.87    9.99
  11   7  -9    0.56    7.16
  11   7  -9   10.75    6.97
 -11  -7   9   -2.24    7.56
 -11  -7   9   10.84    8.33
 -11   7  -9   11.97    8.58
  11  -7  10   23.81   18.53
  11   7 -10   53.16   18.96
 -11  -7  10    6.89   12.20
 -11  -7  10   59.51   21.22
 -11   7 -10   26.47   16.61
  11  -7  11   18.33   14.73
  11  -7  11   38.87   13.32
  11   7 -11   30.98   16.25
  11   7 -11   33.72   13.05
 -11  -7  11   21.27   14.38
 -11  -7  11   34.50   13.34
 -11   7 -11   47.03   23.27
  11  -7  12    0.21   12.10
  11  -7  12    1.48    3.05
  11   7 -12    3.34    4.88
 -11  -7  12    0.94   10.36
 -11  -7  12    0.68    5.51
 -11   7 -12   -3.08   10.23
 -11   7 -12    5.60    3.48
  11   7 -13    1.87    7.26
  11   7 -13    6.78    6.46
 -11   7 -13   -2.65    9.69
 -11   7 -13    1.75    3.07
  11   7 -14    4.84    9.08
  11   7 -14    2.34    5.51
  11   8   0   33.64   15.61
  11   8   0   32.49   10.41
 -11  -8   0   57.45   15.94
 -11   8   0   58.62   21.83
  11  -8   1   26.81    8.32
  11   8  -1  118.88   41.39
 -11  -8  -1   51.80   14.51
 -11  -8  -1   93.25   33.10
  11   8   1   58.85   15.99
 -11  -8   1   46.84   13.86
  11  -8  -1   22.16    9.75
 -11   8  -1   31.59   12.26
  11  -8   2  206.09   51.61
  11   8  -2  145.84   37.86
  11   8  -2  201.13   74.31
 -11  -8  -2  154.47   39.24
 -11  -8  -2  141.69   52.02
  11   8   2  212.31   53.37
 -11  -8   2  200.21   74.09
 -11  -8   2  196.06   49.66
  11  -8   3   13.94    6.33
  11   8  -3   13.71    7.38
 -11  -8  -3   18.83    8.55
 -11  -8  -3   13.35    7.80
  11   8   3   12.59    8.67
  11  -8   4   48.22   13.47
 -11   8   4   31.82   12.86
 -11  -8  -4   58.88   22.73
  11   8   4   79.85   29.67
 -11  -8   4   45.00   17.76
  11  -8   5    7.23    6.76
 -11   8   5   86.70   32.44
 -11  -8  -5   18.47    9.35
 -11  -8  -5   12.36    9.33
  11   8   5    5.71    7.77
  11  -8   6  309.07  133.40
  11   8  -6  394.20  169.80
 -11  -8   6  246.29  106.51
  11  -8  -6  321.28  118.31
 -11   8  -6  388.21  167.03
  11  -8   7  281.54  121.42
 -11  -8   7  104.92   46.18
  11  -8   8  170.95   74.29
 -11  -8   8   84.51   37.52
 -11  -8   8  148.95   49.78
 -11   8  -8   76.78   34.05
  11   8  -9   -7.11   10.18
  11   8  -9   -0.75    6.08
 -11  -8   9   28.73   15.23
 -11  -8   9    2.99    7.42
  11   8 -10  453.65  195.14
  11   8 -10  347.90  114.49
 -11  -8  10  376.00  161.96
 -11  -8  10  386.83  127.29
 -11   8 -10  381.76  164.27
  11  -8  11   86.71   39.63
  11   8 -11   23.78    9.92
 -11  -8  11   13.97    7.99
 -11   8 -11   34.43   17.53
  11  -8  12   23.95    8.76
  11   8 -12   14.63    7.87
 -11  -8  12   36.14   19.40
 -11   8 -12   37.88   19.57
  11   8 -13   14.12   10.18
  11   8 -13    4.78    5.12
 -11  -8  13    4.58    5.81
 -11   8 -13    6.15    3.55
  11   8 -14    1.59    4.75
  11   9   0    1.68    5.58
 -11  -9   0    0.18    5.97
 -11  -9   0    9.12   12.53
  11  -9   0   15.46    7.86
  11  -9   0    1.01    5.97
  11  -9   1   54.95   14.62
 -11   9   1   64.90   24.13
  11   9  -1   60.31   16.22
  11   9   1   51.20   14.12
  11   9   1   51.56   20.33
 -11   9  -1   65.29   17.37
 -11   9  -1   51.60   19.39
  11  -9   2    7.13    4.66
  11   9  -2    2.11    6.60
  11   9  -2   21.96    9.69
 -11  -9  -2    1.12    5.07
 -11  -9  -2   16.24    8.72
  11   9   2   11.63   10.54
  11   9   2    2.42    5.16
 -11  -9   2   14.25    7.89
 -11  -9   2    3.88    7.86
 -11   9  -2    7.64    5.36
  11  -9   3   51.12   13.59
  11   9  -3   46.18   18.21
 -11  -9  -3   57.61   16.36
 -11  -9  -3   79.76   29.78
 -11  -9  -3   74.01   26.77
  11   9   3   94.45   35.26
 -11  -9   3   64.43   24.59
 -11   9  -3   30.19    9.35
  11  -9   4    5.60    5.75
 -11   9   4    9.03    6.07
  11   9  -4   11.28    7.36
 -11  -9  -4   -1.57    6.33
  11   9   4   14.38   11.16
 -11   9  -4    2.78    7.38
  11  -9   5    4.80    6.56
 -11   9   5   10.04    6.17
 -11  -9  -5    5.29    9.13
 -11  -9  -5    4.43    6.02
  11   9   5   12.30    7.90
  11   9   5    0.25    7.89
 -11   9   6    4.88    5.97
  11   9  -7    9.66   11.68
 -11  -9   7    6.09   11.29
 -11   9  -7   14.94   11.18
  11  -9   8    9.61    9.97
  11   9  -8   14.45   11.30
 -11  -9   8   14.57   11.07
 -11   9  -8   20.76   11.68
  11  -9   9   12.76    9.91
  11   9  -9   34.77   18.42
 -11  -9   9    8.49    9.24
 -11  -9   9    9.07    6.82
 -11   9  -9    9.02    7.86
  11  -9  10    3.00    7.96
  11   9 -10    2.86    7.22
  11   9 -10   20.21    9.28
 -11  -9  10   32.30   13.28
 -11   9 -10   14.69   10.65
  11   9 -11   11.98    6.58
 -11  -9  11   -1.65    7.01
 -11   9 -11    0.89    6.74
  11   9 -12    1.25    5.95
 -11  -9  12    1.27    6.08
  11   9 -13   -1.74    5.58
  11   9 -13    9.13    6.18
 -11  -9  13    6.10    6.16
 -11   9 -13    0.13   10.96
  11   9 -14    0.48    5.06
 -11   9 -14    4.17    3.14
  11  10   0    5.54    5.62
 -11 -10   0    6.47    7.09
  11 -10   0    4.33    6.81
 -11  10   0   40.36   15.89
  11 -10   1   87.50   22.51
 -11  10   1   68.48   25.58
  11  10  -1  109.21   28.12
 -11 -10   1   74.55   28.48
  11 -10  -1  113.41   41.56
 -11  10  -1  117.50   43.04
  11 -10   2    8.20    4.94
  11  10  -2    9.27    6.97
 -11 -10  -2   13.90    6.89
 -11 -10  -2   37.97   15.34
  11  10   2   11.04    6.36
  11  10   2    5.54    8.24
 -11 -10   2   20.00    9.47
 -11  10  -2    5.68    5.56
  11  10  -3   28.96   12.83
 -11 -10  -3   18.28    8.42
  11  10   3   52.00   20.34
 -11 -10   3   14.89    7.71
 -11  10  -3   43.09   12.06
  11 -10   4   43.44   12.49
 -11  10   4   16.48    8.32
  11  10  -4    7.81    6.81
 -11 -10  -4   16.13    8.62
  11  10   4   14.93    9.36
 -11 -10   4   12.16    7.73
  11 -10   5    7.37    7.47
 -11 -10  -5    7.07    9.72
 -11 -10  -5   82.43   30.93
 -11 -10  -5   68.97   25.27
  11  10   5   26.33   11.11
  11 -10  -5   40.32   16.35
  11  10   6  475.30  157.01
  11 -10  -6  387.17  142.62
  11 -10   8   51.84   24.49
  11  10  -8   40.85   20.85
  11  10   8   31.33   14.50
 -11 -10   8   77.41   34.92
 -11  10  -8   35.86   17.80
 -11 -10   9  117.73   51.53
 -11  10  -9  124.41   54.14
  11 -10  10   72.76   32.72
 -11  10  10   47.50   23.97
 -11 -10  10   56.16   26.07
 -11 -10  10   22.82    9.87
 -11  10 -10   42.92   19.94
  11 -10  11    2.12    8.43
  11  10 -11    9.79    8.78
  11  10 -11   19.66    8.49
 -11 -10  11   15.32    8.51
 -11  10 -11   10.09    7.80
  11  10 -12    6.77    6.62
  11  10 -12    2.03    5.28
 -11 -10  12   -0.76    6.89
 -11  10 -12   14.55    9.33
  11  10 -13    4.13    6.92
  11  10 -13    0.65    4.56
 -11  10 -13    5.43    7.70
  11  10 -14    1.25    5.03
 -11 -11   0   39.72   16.65
 -11 -11   0   -3.51    5.85
 -11  11   0    4.61    5.88
  11 -11   1    5.49    4.98
 -11  11   1    7.54    6.19
  11  11  -1    4.65    5.94
  11  11  -1   18.17    9.17
 -11 -11  -1   10.59    6.60
  11  11   1    2.28    6.02
 -11 -11   1    8.50    5.99
 -11 -11   1    9.32    7.83
  11 -11  -1    9.22    6.90
 -11  11  -1    7.84    5.77
 -11  11  -1   31.45   10.39
  11 -11   2   12.38    5.67
 -11  11   2    6.09    5.88
  11  11  -2   23.45   11.15
 -11 -11  -2   23.32    8.92
 -11 -11  -2   10.84    7.41
  11  11   2    3.81    5.34
  11  11   2    7.56    8.57
 -11 -11   2   -0.92    6.55
  11 -11  -2    9.73    6.99
  11 -11   3    6.56    4.92
 -11 -11  -3   12.33    7.79
 -11 -11  -3    9.96    7.98
 -11 -11   3   55.37   21.66
 -11  11  -3    6.96    5.85
  11 -11   4   30.07    9.62
 -11  11   4   16.57    8.64
  11  11  -4   35.00   15.29
  11  11   4   27.34   12.46
 -11 -11   4   17.29    9.76
  11 -11   5   34.11   11.84
 -11  11   5   29.03   12.88
 -11 -11  -5   25.27   12.49
 -11 -11  -5   44.37   17.75
  11  11   5   20.56   10.73
  11  11   5   28.89   12.81
  11 -11  -5   30.93   13.45
 -11 -11  -6    7.43    7.29
  11  11   6    7.31    7.16
 -11 -11  -7   12.18   10.88
  11  11   7   16.09   12.03
  11 -11  -7   27.53   12.19
  11 -11   8   -1.33    8.98
 -11 -11   8    0.39    9.42
  11 -11   9   -3.42    8.04
 -11  11   9    2.35    2.75
  11  11  -9    4.06    9.44
  11  11   9    3.97    8.32
 -11 -11   9    1.59    8.05
 -11  11  -9    3.82    8.24
  11  11  10    9.87    8.78
 -11 -11  10    0.78    7.22
 -11  11 -10    5.50    6.93
 -11  11 -11    9.17    7.14
 -11 -11  12    3.79    6.00
  11 -11 -12    3.75    2.88
 -11  11 -12    2.39    7.30
  11  11 -13    0.92    4.56
  11  12   0   15.82    7.52
 -11 -12   0   12.18    7.55
  11 -12   0    3.18    6.87
  11 -12   1  115.19   44.43
 -11  12   1   65.62   25.15
  11  12  -1   78.61   20.97
  11  12  -1   73.43   28.37
 -11 -12  -1   55.26   15.66
 -11 -12   1   49.80   14.46
  11 -12  -1   59.06   22.96
 -11  12  -1   52.31   15.03
 -11  12  -1   88.31   33.25
  11 -12   2    6.37    4.66
 -11  12   2    6.65    7.58
  11  12  -2    4.86    7.45
 -11 -12  -2   14.09    7.54
 -11 -12  -2    8.27    6.95
  11  12   2   10.86    9.32
 -11 -12   2   11.21    8.36
 -11 -12   2    2.06    6.62
 -11  12  -2    8.97    5.52
  11 -12   3    6.81    5.00
  11  12  -3   13.06    8.72
 -11 -12  -3    8.27    8.00
 -11 -12  -3   10.83    8.68
 -11 -12   3    3.73    7.50
  11 -12   4  100.37   25.75
 -11  12   4   71.38   27.45
  11  12  -4  138.12   51.96
 -11 -12  -4   55.82   22.45
 -11 -12   4   71.82   27.97
  11 -12   5    8.12    7.59
 -11  12   5    5.38    6.31
 -11 -12  -5    0.84   10.79
  11  12   5    4.02   10.79
  11  12   5   39.22   16.23
  11 -12  -5    3.03    6.70
 -11  12   6   25.95   12.03
 -11 -12  -6   54.04   20.94
  11  12   6   40.01   16.50
  11 -12  -6   24.76   11.07
 -11  12   7   20.63    9.46
  11 -12  -7    2.73    5.01
 -11  12   8    6.62    4.22
  11  12   8   13.06    9.72
  11 -12   9   38.68   19.70
 -11 -12  -9   28.00   13.71
  11  12   9   25.26   12.54
 -11 -12   9  126.37   55.85
 -11 -12  10   76.73   34.63
  11 -12 -10   64.77   32.53
  11  12 -11    6.79    7.99
  11  12  11    9.37    8.16
 -11  12 -11   11.96    8.28
 -11  12 -12   16.05   10.51
  11  13   0    7.02    6.41
  11  13   0   14.94    8.23
 -11 -13   0   11.53    9.29
 -11 -13   0   14.78    8.79
  11 -13   0   10.72    8.52
  11 -13   1  942.31  233.62
  11 -13   1 1390.41  504.21
 -11  13   1 1238.36  449.04
  11  13  -1 1108.76  274.97
 -11 -13  -1 1079.96  267.94
  11  13   1 1083.18  268.75
 -11 -13   1 1064.41  391.20
 -11 -13   1 1063.14  263.79
 -11  13  -1 1210.71  300.20
  11 -13   2   19.89    7.15
  11  13  -2   17.98    9.36
  11  13  -2    7.01    7.34
 -11 -13  -2   20.61    9.07
 -11 -13  -2   13.45   11.27
  11  13   2   20.00   12.45
 -11 -13   2   22.28   11.73
  11 -13  -2   23.07   10.71
 -11  13  -2   26.73    8.90
  11 -13   3   45.38   12.50
 -11 -13  -3   35.10   13.54
 -11 -13  -3   88.72   33.75
  11  13   3   27.13   14.95
  11 -13  -3   16.43    9.24
  11 -13   4   75.57   19.81
 -11  13   4   21.27   10.56
  11  13  -4   24.77   12.59
 -11 -13  -4   42.70   17.84
  11  13   4   14.02   12.21
 -11 -13   4   25.27   12.42
  11 -13   5   23.09    9.49
 -11  13   5   15.91    8.19
 -11 -13  -5    7.18   11.51
 -11 -13  -5  144.92   53.39
  11  13   5   23.48   13.16
  11 -13  -5   34.25   14.15
 -11 -13  -6   15.08    8.45
  11  13   6   11.44    7.74
  11 -13  -6   28.65   12.31
 -11  13   7   46.10   18.19
 -11  13   7   19.17   10.02
 -11 -13  -7   24.50   11.72
  11 -13  -9  133.98   66.94
  11  13 -10   26.81   15.21
  11  13  10   15.95   10.24
 -11  13 -10    9.87    8.25
  11  14   0    4.03    7.08
 -11 -14   0    2.44    8.36
  11 -14   0    4.23    7.46
 -11  14   0    2.80    8.37
  11 -14   1   17.14    7.24
  11 -14   1    6.27   14.47
  11  14  -1    9.17    8.32
 -11 -14  -1    3.91    7.36
  11  14   1    6.61    7.15
 -11 -14   1   13.04   10.27
 -11 -14   1    9.16    7.18
  11 -14  -1    4.52    8.65
 -11  14  -1    9.05    6.92
 -11  14   2    3.68    6.30
  11  14  -2    5.79    7.68
  11  14  -2   14.07    9.58
 -11 -14  -2    2.53    6.92
  11  14   2    4.57    9.59
 -11 -14   2    9.76    9.07
 -11 -14   2   10.62    7.69
 -11  14  -2    4.20    4.72
  11 -14   3   29.40    8.73
 -11  14   3   12.66    8.39
  11  14  -3    2.78    7.66
  11  14  -3    8.26    7.64
 -11 -14  -3   11.22    8.46
  11  14   3   14.55    8.65
  11  14   3    5.04    9.25
 -11 -14   3    7.34    7.96
  11 -14  -3   13.64    8.29
 -11  14  -3    6.04    5.06
  11 -14   4    8.70    5.40
 -11  14   4   10.36    7.31
  11  14  -4    4.41    7.25
 -11 -14  -4    4.67    7.13
  11  14   4    2.76    9.47
 -11 -14   4   13.82    8.72
 -11  14  -4   12.64    6.61
  11 -14   5    5.18    6.05
 -11  14   5    5.35    6.04
 -11 -14  -5    5.72    6.63
 -11 -14  -5   -1.56    9.42
  11  14   5    2.98    6.70
  11  14   5    3.40   10.18
  11 -14  -5    6.33    7.55
 -11  14   6    1.98    2.80
 -11  14   6    4.69    5.07
 -11 -14  -6    4.54    6.35
  11  14   6    8.60    7.21
  11 -14  -6    7.61    6.27
 -11  14   7    6.30    5.53
 -11 -14  -7    6.43    6.41
  11 -14  -7    2.25    5.12
  11 -14  -8   -0.16    4.58
  11 -14  -8   24.41   12.54
  11  15   0    2.35    6.14
 -11 -15   0    7.13    8.99
 -11 -15   0    1.65    7.09
  11 -15   1    7.07    5.45
  11 -15   1   57.56   24.28
 -11  15   1    6.85    7.95
  11  15  -1   56.12   22.95
  11  15  -1   16.22    7.36
  11  15   1   69.96   27.59
  11  15   1   11.77    7.19
 -11 -15   1   35.60   16.40
 -11 -15   1   47.48   14.09
  11 -15  -1   36.22   15.10
 -11  15  -1    9.06    6.74
  11 -15   2   29.31    8.59
 -11  15   2   21.13   10.14
  11  15  -2   15.16    9.23
  11  15  -2   39.09   12.76
 -11 -15  -2   18.32    8.26
 -11 -15   2   46.71   19.20
 -11 -15   2   12.89    7.77
  11 -15  -2   55.74   21.58
  11 -15   3   10.41    4.59
 -11  15   3    6.73    6.55
  11  15  -3    4.80    7.04
  11  15  -3    3.17    8.40
 -11 -15  -3    3.51    5.44
  11  15   3    8.81    7.45
 -11 -15   3    4.74    7.20
  11 -15   4   14.72    5.58
  11  15  -4    7.57    8.09
 -11 -15  -4   23.60   10.80
 -11 -15   4    8.41    7.95
 -11  15  -4    5.93    4.62
  11 -15   5   21.32    7.90
 -11 -15  -5   27.09   13.52
  11  15   5   21.22   10.68
 -11  15   6   46.98   18.65
 -11 -15  -6   37.27   15.16
  11 -15  -6   35.11   14.53
 -11  15   7   32.57   13.57
 -11  15   7   27.73   14.24
  11 -15  -7   40.95   16.57
  11 -15  -8   13.87    7.96
 -11  15   9   28.18   14.62
  11  16   0    1.59    5.43
  11  16   0    4.18    6.00
 -11 -16   0    4.72    5.92
 -11  16   0    8.47    6.94
  11 -16   1    6.02   11.73
 -11  16   1    1.97    6.55
  11  16  -1    3.68    6.45
 -11 -16  -1   12.75    7.89
 -11 -16  -1   13.33    6.67
 -11 -16   1    2.86    5.85
  11 -16  -1   -0.65    5.50
 -11  16  -1   23.13    9.19
  11 -16   2   17.49    6.28
 -11  16   2    8.96    7.41
  11  16  -2    8.24    8.22
 -11 -16  -2    3.23    5.69
  11  16   2   10.01    8.79
 -11 -16   2   10.33    7.82
 -11 -16   2   20.94    9.30
  11 -16  -2    8.37    6.93
 -11  16  -2   14.23    5.98
  11 -16   3   29.43    8.55
  11  16  -3   48.49   19.68
  11  16  -3    5.27    8.43
  11  16   3   34.13   10.93
  11  16   3   28.79   13.81
 -11 -16   3   23.50   11.31
  11 -16  -3   12.65    7.72
 -11  16  -3   21.36    6.86
  11 -16   4   47.37   12.60
 -11  16   4   28.87   12.56
  11  16  -4   38.87   16.16
  11  16   4   80.28   30.96
 -11 -16   4   22.26   11.20
  11 -16  -4   38.12   15.86
 -11  16  -4   73.56   19.03
  11 -16   5    6.33    5.21
 -11  16   5    8.73    7.01
 -11 -16  -5    5.98   10.93
  11  16   5   11.84    8.39
  11  16   5    9.53    8.73
  11 -16  -5   20.39   10.58
 -11  16   6   41.94   21.21
  11  16   6   62.91   24.08
 -11 -16  -7   10.22    6.83
  11  16   7   11.74    7.65
  11 -16  -7   23.48   10.77
 -11  16   8    6.69    4.58
 -11 -16  -8   15.72    8.88
  11 -16 -10    9.90    6.06
  11  17   0    2.02    5.19
  11  17   0    4.39    5.53
 -11 -17   0    3.03    6.39
 -11 -17   0    0.78    5.91
 -11  17   0    3.36    5.41
  11 -17   1   40.39   11.80
  11 -17   1   68.47   28.10
 -11  17   1   62.21   23.94
  11  17  -1   72.90   28.26
 -11 -17  -1   50.73   14.43
 -11 -17   1  116.35   43.98
  11 -17   2    6.29    4.19
 -11  17   2    3.47    6.97
 -11 -17  -2   -1.92    5.13
  11  17   2    2.04    4.63
  11  17   2   -0.61    8.19
 -11 -17   2   -2.18    6.97
 -11  17  -2    1.35    4.08
 -11  17   3    4.80    6.03
  11  17  -3   11.00    7.63
  11  17   3    4.97    5.90
  11  17   3    2.40    8.34
 -11 -17   3    5.49    7.17
  11 -17  -3    5.54    6.23
  11 -17   4    3.99    3.62
 -11  17   4    1.20    6.16
 -11  17   4   -2.55    5.53
  11  17  -4    3.60    6.14
  11  17   4    6.70    8.97
 -11 -17   4    4.03    6.67
  11 -17  -4    5.41    6.78
  11 -17  -4    9.98    5.55
 -11  17  -4    1.66    3.35
  11 -17   5    5.79    4.78
 -11  17   5   18.80    9.79
 -11  17   5    3.70    5.27
 -11 -17  -5   22.05   11.33
  11  17   5    3.43    7.15
  11 -17  -5    9.26    6.47
 -11  17   6    8.25    6.23
 -11 -17  -6    6.04    6.63
  11 -17  -6    1.87    5.74
 -11  17   7    2.86    3.30
 -11  17   7   11.19    6.74
 -11 -17  -7   33.43   14.09
 -11 -17  -8    5.29    6.61
  11  17   8    3.93    7.31
  11 -17  -9   15.57    8.53
 -11 -18   0    3.73    5.79
 -11 -18   0   45.26   18.63
  11 -18   0   -1.15    6.52
 -11  18   0    6.15    6.70
  11 -18   1   14.22    6.68
  11 -18   1   31.30   17.44
 -11  18   1   16.97    9.15
  11  18  -1   13.42    7.78
 -11 -18  -1   15.39    7.10
  11  18   1   72.08   27.88
  11  18   1   15.24    6.52
 -11 -18   1   15.23    9.08
  11 -18   2   54.15   14.27
  11  18  -2   14.04    8.59
 -11 -18  -2   34.72   11.06
 -11 -18  -2   27.88   16.00
  11  18   2    7.93    9.37
  11  18   2   35.65   10.48
 -11 -18   2   26.54   12.01
 -11 -18   2   34.07   11.45
 -11  18  -2   46.79   12.95
  11 -18   3    3.72    3.54
 -11  18   3   10.10    6.72
  11  18   3    3.15    5.09
  11  18   3   12.71   10.41
 -11 -18   3   -1.14    7.78
  11 -18  -3   10.77    5.89
 -11  18  -3    4.38    3.53
  11 -18   4    9.48    4.35
 -11  18   4   67.98   34.11
 -11  18   4    8.35    6.78
 -11  18   4   27.75   12.21
  11  18   4   34.56   16.61
 -11 -18   4   21.17   10.77
 -11  18  -4   17.76    5.85
  11 -18   5    0.65    4.93
 -11  18   5    9.34    6.98
 -11 -18  -5   11.49    8.84
  11  18   5    4.58    7.96
  11 -18  -5    4.21    5.59
  11 -18  -5    2.38    6.48
 -11  18   6    6.19    4.39
 -11  18   6   37.35   15.30
 -11 -18  -6   15.00    8.71
  11  18   6   45.74   18.90
 -11  18   7    0.27    4.59
 -11 -18  -7    2.37    6.06
  11  18   7    3.93    6.35
 -11  18   8    5.04    4.81
  11  18   8   13.11    9.29
  11 -18  -8   25.25   13.11
  11  19   0    8.04    6.90
 -11 -19   0    1.49    6.02
  11 -19   0    0.04    7.94
  11 -19   1   12.28    6.23
 -11  19   1   46.54   19.18
  11  19  -1   16.90    7.45
 -11 -19  -1   14.19    8.54
  11  19   1   13.18    7.90
 -11 -19   1   19.59   10.39
  11 -19  -1    4.67    8.02
  11  19  -2    3.58    6.00
  11  19  -2   -1.14    5.66
 -11 -19  -2   -2.92   11.13
  11  19   2    1.36    4.02
  11  19   2    0.72    4.81
  11  19   2   -2.85    8.30
 -11 -19   2    0.02    6.22
  11 -19  -2    9.00    5.07
  11 -19  -2    3.70    8.08
 -11  19  -2    0.11    5.19
  11 -19   3   11.83    4.33
 -11  19   3   12.10    7.81
  11  19  -3   18.81   10.01
  11  19   3   25.33    9.40
  11  19   3    6.40    8.17
  11 -19  -3   17.79   10.36
 -11  19  -3   16.54    5.56
  11 -19   4    3.16    3.43
 -11  19   4    0.62    5.20
 -11 -19  -4    2.19    7.24
 -11 -19   4    3.36    6.31
  11 -19   5    5.34    4.75
 -11  19   5    4.79    5.98
 -11  19   5    4.90    4.06
 -11 -19  -5   -1.66    6.78
  11  19   5    0.22    7.98
  11  19   5    6.24    7.93
 -11  19   6   -0.96    4.50
  11  19   6    5.19    8.06
 -11  19   7    0.77    4.33
  11  19   7    2.24    6.64
  11 -19  -7    3.69    3.58
  11  20   0    6.73    6.20
  11  20   0    0.62    5.48
 -11 -20   0   13.24    8.51
 -11  20   1    5.92    3.77
  11  20  -1    0.42    4.76
  11  20  -1    1.47    5.34
  11  20   1    5.35    5.59
 -11 -20   1    5.47    6.57
  11 -20  -1   14.09    7.47
  11 -20   2    1.70    3.25
  11  20  -2    2.55    5.49
  11  20  -2   -0.19    5.54
 -11 -20  -2    5.82    5.73
 -11 -20  -2   -4.24   10.76
  11  20   2    4.68    4.20
  11  20   2   -2.51    7.53
 -11 -20   2    3.26    6.28
 -11  20  -2    1.46    5.23
  11 -20   3   32.04    8.65
  11  20  -3   20.98   10.69
 -11 -20  -3    2.59    7.30
  11  20   3   46.37   13.39
 -11 -20   3   13.82    9.08
 -11  20  -3   35.32    9.79
 -11  20   4    1.34    5.55
 -11  20   4    6.95    6.44
  11  20  -4    6.77    6.69
 -11 -20  -4    1.87    6.99
 -11  20   5   16.98    9.03
 -11  20   5   13.67    9.23
  11  20   5   27.97   14.54
 -11  20   6    2.89    4.98
  11  20   6    2.14    7.66
  11 -20  -6    1.92    3.30
  11  21   0    0.97    5.36
  11 -21   0   -1.00    2.19
  11  21  -1    8.33    6.43
  11  21   1   17.36    8.88
 -11  21   2    6.67    7.82
  11  21   2    3.72    5.15
  11  21   2   -5.33    7.84
 -11  21   3    1.09    7.40
  11  21  -3    4.06    6.25
 -11  21   4   -1.99    5.85
 -11  21   4   15.97    8.95
  11  21  -4    9.59    7.77
 -11  21   5   68.13   26.74
  11  22   0    2.57    5.28
  11  22  -1    0.61    5.44
  11  22   2   -0.40    4.59
  11  22   2   -0.15    7.17
  12   0   0  690.02  171.41
 -12   0   0  426.92  183.27
 -12   0   1  191.57   48.74
  12   0  -1  125.91   32.57
 -12   0  -1  181.43   45.84
 -12   0  -1   77.30   25.93
  12   0   2 2558.50  633.93
  12   0   2 2364.98  856.83
  12   0   2 2632.23  860.16
 -12   0  -2 2489.38  616.64
  12   0   3   66.88   17.94
 -12   0  -3   69.14   18.65
  12   0   4 2578.08  638.76
 -12   0  -4 2596.51  643.37
 -12   0  -6   24.85   11.74
  12   1   0   78.64   21.03
 -12  -1   0  104.96   27.42
  12  -1   1   83.22   21.85
 -12   1   1   89.54   24.18
  12   1  -1   78.29   20.95
  12   1  -1  110.60   47.71
  12   1  -1  105.09   35.01
 -12  -1  -1   61.69   21.17
 -12  -1  -1   80.52   21.25
 -12  -1   1   88.67   23.81
 -12  -1   1   60.63   20.99
 -12  -1   1   87.94   38.11
  12  -1  -1  125.80   33.26
 -12   1  -1   93.46   24.31
 -12   1  -1  127.87   55.01
  12  -1   2  138.01   35.30
 -12  -1  -2  218.41   55.03
 -12  -1  -2  134.67   49.02
  12   1   2  124.99   45.63
 -12  -1   2   56.39   25.80
 -12   1  -2  139.05   35.42
  12  -1   3   23.38    8.27
 -12   1  -3   29.49    9.64
 -12   1  -3    9.31    4.61
  12  -1   4   36.16   11.31
  12   1  -4   94.02   34.65
 -12  -1  -4   24.09    9.65
  12   1   4   53.31   15.70
 -12  -1   4   94.69   34.96
 -12  -1  -6  104.63   28.45
 -12   1  -6  133.17   35.09
  12   1 -13    4.85    8.85
 -12  -2   0  111.75   28.87
 -12   2   0  122.69   31.86
  12  -2   1  254.58   63.76
  12   2  -1  443.28  145.15
  12   2   1  248.71   62.34
 -12  -2   1  283.73   71.20
 -12  -2   1  492.00  161.27
  12  -2  -1  403.42  100.75
 -12   2  -1  314.72   78.58
  12  -2   2   70.10   30.55
  12  -2   2   33.48   10.67
  12   2  -2   78.87   34.36
  12   2  -2   90.58   30.60
 -12  -2  -2   41.53   12.67
  12   2   2  159.20   57.94
  12   2   2   38.15   11.98
 -12  -2   2  140.20   46.67
 -12  -2   2   99.10   42.90
 -12   2  -2   61.84   16.78
 -12   2  -2   84.82   36.72
  12   2  -3  256.54  110.29
 -12  -2  -3  118.31   43.21
 -12   2  -3  166.22   42.01
 -12   2  -3  235.12  101.46
  12  -2   4   72.60   19.39
  12   2  -4   63.12   23.44
 -12  -2  -4   54.81   15.64
  12   2   4   61.30   17.07
 -12  -2   4  100.25   37.02
 -12  -2   4   77.49   34.63
 -12  -2  -6   24.48   11.74
 -12   2  -6   19.04   10.43
  12   2 -12   18.10   10.50
  12   3   0 2056.25  509.63
 -12  -3   0 2142.65  530.94
 -12   3   0 2226.74  551.79
  12   3  -1  198.02   50.34
 -12  -3  -1  251.02   63.04
  12   3   1  276.81   69.38
 -12   3  -1  279.12   69.77
  12   3  -2   12.45    7.08
 -12  -3  -2   24.49    9.38
 -12  -3  -2    6.60    4.50
  12   3   2   19.76    8.16
 -12  -3   2   30.52   12.10
  12   3  -3  434.98  186.85
  12   3  -3  379.57  124.53
 -12  -3  -3  337.64   84.46
 -12  -3  -3  363.55  131.90
  12   3   3  256.19   64.29
  12   3   3  370.12  134.32
 -12  -3   3  293.75   96.66
 -12  -3   3  192.61   82.96
 -12   3  -3  268.17   67.06
 -12   3  -3  232.58   99.98
  12  -3   4    2.48   12.10
  12   3  -4    4.60    5.80
  12   3  -4   11.27    5.36
  12   3  -4   19.08    8.89
 -12  -3  -4  120.61   31.18
  12   3   4  115.89   30.24
 -12  -3   4   21.09    8.53
 -12  -3   4    3.47    5.56
 -12  -3   4    9.67    7.15
  12   3  -5   38.21   18.49
 -12  -3   5    7.93    7.64
  12  -3  -5   56.27   20.83
 -12   3  -5   41.44   19.99
  12  -3   6  286.84   93.98
  12   3  -6  291.10  125.34
 -12  -3  -6  114.56   30.73
 -12  -3   6   94.37   41.64
 -12   3  -6   89.59   24.67
  12   3  -9   56.68   22.31
  12   3 -10   28.25   13.02
 -12  -3  10   52.61   20.11
 -12  -3  11  102.39   36.52
  12   3 -13   23.32   11.42
  12   4   0   15.78    8.21
 -12  -4   0   12.82    7.31
  12  -4   0   12.45    8.98
 -12   4   0    9.14    7.62
  12  -4   1   80.44   21.10
  12   4  -1  110.21   29.31
 -12  -4  -1  103.02   26.90
  12   4   1   86.09   22.89
 -12  -4   1  117.27   30.50
  12  -4   2    5.96    5.59
 -12  -4  -2   21.33    9.00
  12   4   2   18.85    9.10
 -12   4  -2   12.73    6.08
  12  -4   3   20.56    7.46
  12  -4   3    9.02    8.68
  12   4  -3   22.05   11.99
  12   4  -3   24.56    9.96
 -12  -4  -3    5.29    6.03
  12   4   3   12.05    6.96
  12   4   3   10.49    5.67
 -12  -4   3   13.57    6.54
 -12  -4   3    9.05    7.23
 -12  -4   3    0.92    7.27
 -12   4  -3   25.84    8.56
  12  -4   4   41.30   11.87
  12   4  -4   61.93   23.27
  12   4  -4   66.20   23.13
 -12  -4  -4   68.73   19.24
  12   4   4   72.90   20.10
 -12  -4   4   47.99   18.12
 -12  -4   4   54.76   19.50
 -12   4  -4   86.60   37.57
 -12   4   5   19.27    7.84
  12   4  -5    1.49    4.73
  12   4  -5    4.15    7.31
 -12  -4   5    5.51    6.31
 -12  -4   5   19.64    9.58
  12  -4  -5    7.99    3.83
 -12   4  -5    6.68    6.14
  12  -4   6   21.35   14.96
  12   4  -6   11.92    8.08
 -12  -4  -6    3.62    9.38
 -12  -4   6    7.88    9.59
 -12  -4   6    5.35    6.69
 -12   4  -6    5.54    9.09
 -12   4  -6    2.36    9.14
  12   4  -7   63.55   29.12
 -12  -4   7   63.13   30.03
 -12   4  -7   68.63   31.81
  12  -4   8   21.24    7.37
  12   4  -8   13.03   10.89
  12   4  -8   30.22   14.36
 -12  -4   8   15.38   11.89
 -12   4  -8   25.75    8.95
 -12  -4   9   33.82   15.92
  12   4 -10    6.14    8.18
  12   4 -11   11.82    8.87
 -12  -5   0  172.56   43.68
  12  -5   0  159.08   40.65
 -12   5   0  157.01   39.93
  12  -5   1  289.95   72.39
  12  -5   1  317.83  115.20
  12   5  -1  409.87  102.44
 -12  -5  -1  286.26   71.72
  12   5   1  274.39   68.75
 -12  -5   1  407.22  101.65
 -12   5  -1  321.97  116.69
 -12  -5  -2  356.53   89.03
  12   5   2  615.03  223.02
 -12   5  -2  342.83   85.41
  12  -5   3  118.77   30.37
  12   5  -3  179.47   66.17
  12   5   3  110.54   28.72
  12   5   3   78.78   29.24
 -12   5  -3  111.90   28.63
  12  -5   4  108.88   27.97
  12   5  -4  225.44   97.10
  12   5  -4  170.83   63.09
 -12  -5  -4  170.72   43.56
  12   5   4  129.25   33.72
  12   5   4   93.19   34.51
 -12  -5   4  150.57   55.62
 -12  -5   4  211.73   70.02
 -12   5  -4  238.00  102.41
  12  -5   5   19.12   10.80
 -12   5   5   16.70    7.16
  12   5  -5   33.82   13.12
 -12  -5   5   79.55   34.74
 -12  -5   5   65.49   23.09
  12  -5  -5   20.59    8.53
 -12   5  -5   77.35   33.72
  12   5  -6  215.30   72.32
  12   5  -6  248.02   81.85
 -12  -5   6  373.81  160.69
 -12  -5   6  277.04   91.58
 -12   5  -6  364.82  156.78
  12  -5   7 1965.25  843.24
  12   5  -7 1592.00  682.88
  12   5  -7 1286.74  421.04
 -12  -5   7 1232.60  528.64
 -12  -5   7 1410.00  463.54
 -12  -5   7 1764.81  577.36
 -12   5  -7 2121.91  910.16
  12  -5   8   92.81   42.27
  12   5  -8   83.48   37.40
  12   5  -8   69.03   25.55
 -12  -5   8   76.86   35.48
 -12  -5   8   93.85   31.93
  12  -5   9   81.96   27.07
  12   5  -9   59.95   22.19
  12   5  -9  110.24   37.22
 -12  -5   9   47.21   19.01
 -12  -5   9   61.00   22.12
 -12  -5   9  159.31   69.46
 -12   5  -9   96.87   31.89
  12   5 -10   49.02   23.05
  12   5 -10   53.38   19.42
 -12  -5  10   90.07   40.45
 -12  -5  10   98.32   35.87
 -12   5 -10   51.49   17.15
  12   5 -11   24.15   13.04
 -12   5 -11   38.71   13.18
  12   6   0   70.00   18.88
  12  -6   0   94.88   25.08
  12  -6   0   68.99   25.37
 -12  -6  -1   36.21   11.52
  12   6   1   28.79    9.94
 -12   6  -1   28.19    8.95
 -12   6  -1   24.56    9.71
  12  -6   2    9.61    6.32
  12   6  -2    3.44    9.43
 -12  -6  -2   23.57    8.81
  12   6   2   11.91    6.53
 -12   6  -2    2.56    5.36
  12  -6   3    0.88    4.93
  12   6  -3   23.88   10.02
  12   6   3    1.14    6.07
 -12  -6   3   11.36   10.82
 -12  -6   3   29.67   12.11
 -12   6  -3    3.34    4.98
  12   6  -4   29.29   14.62
  12   6  -4   18.93    8.53
 -12  -6  -4   44.90   14.01
  12   6   4   37.95   12.74
  12   6   4   64.05   24.08
 -12  -6   4   24.24    9.94
 -12  -6   4   41.02   19.47
  12  -6   5   23.41   12.69
 -12   6   5   15.03    6.55
 -12  -6   5    4.09    5.93
 -12  -6   5   13.04    7.65
 -12  -6   5   37.63   16.48
  12  -6  -5   12.07    5.95
  12  -6   6    8.02    9.24
  12   6  -6   10.67   10.78
  12   6  -6   10.01    7.49
 -12  -6  -6    6.44   11.10
 -12  -6   6    2.37    7.28
 -12  -6   6   47.03   21.73
  12  -6  -6    2.95    5.32
 -12   6  -6   33.57   16.06
 -12   6  -6    1.50    9.04
  12  -6   7   68.15   30.85
  12   6  -7   41.10   19.70
  12   6  -7   87.03   31.07
 -12  -6   7   43.19   20.55
 -12  -6   7   56.91   21.05
 -12  -6   7   90.83   32.97
 -12   6  -7   32.75   16.25
  12  -6   8   70.13   33.45
  12   6  -8   78.39   35.03
  12   6  -8   99.98   33.81
 -12  -6   8  114.17   38.56
 -12  -6   8   66.85   25.27
 -12   6  -8   18.77   12.97
  12  -6   9    0.97   13.10
  12   6  -9   22.83    9.84
 -12  -6   9    6.87   11.14
  12  -6  10    4.65   12.40
  12  -6  10    5.54    3.56
  12   6 -10    6.37    9.78
  12   6 -10   11.07    6.66
 -12  -6  10    5.64    6.48
 -12   6 -10    8.84   10.85
  12   6 -11   38.27   19.66
  12   6 -11   18.51    8.80
 -12  -6  11   13.79   12.00
 -12   6 -11   16.55   12.16
  12   6 -12    2.58    8.10
  12   6 -12    7.80    6.15
 -12   6 -12    6.35    3.71
 -12   6 -13    0.83    2.54
  12   7   0 1099.89  362.40
  12   7   0  879.29  218.30
 -12  -7   0  969.60  240.65
  12  -7   0 1161.18  420.70
 -12   7   0 1010.38  250.67
 -12   7   0  985.38  356.99
  12  -7   1   20.64    7.54
  12  -7   1    7.57    5.43
  12   7  -1   19.10    9.68
 -12  -7  -1   17.12    8.03
  12   7   1   30.42   10.10
 -12  -7   1   11.52    7.86
 -12  -7   1   14.64   11.42
 -12   7  -1   10.93    6.05
 -12   7  -1    8.21    4.86
  12  -7   2  263.45   65.80
  12   7  -2  143.42   49.08
  12   7  -2  256.65   64.90
 -12  -7  -2  163.00   59.65
  12   7   2  340.64   85.03
 -12  -7   2  205.28   51.92
 -12  -7   2  144.58   49.85
  12  -7   3   20.74    7.34
  12   7  -3   34.12   13.62
 -12  -7  -3   11.07    6.75
 -12  -7  -3   18.71    9.27
  12   7   3   23.43    9.11
  12   7   3    5.97    7.45
 -12  -7   3   31.56   15.90
 -12   7  -3   30.54    9.32
  12   7  -4   95.16   35.66
  12   7  -4  100.12   36.34
 -12  -7  -4  108.83   28.99
 -12  -7  -4  137.66   50.47
  12   7   4  107.36   28.35
  12   7   4  150.34   55.06
 -12   7  -4  117.85   30.56
  12  -7   5   14.45   10.91
  12   7  -5    9.69   10.36
 -12  -7  -5   19.26   10.07
 -12  -7   5   13.19    9.68
  12  -7  -5   20.27    8.96
  12  -7   6  144.11   62.79
 -12   7   6  200.79   74.17
  12   7  -6  253.20  109.30
 -12  -7  -6  145.27   38.75
 -12  -7   6  220.49   74.28
 -12  -7   6  183.27   79.43
  12  -7  -6  207.81   76.79
 -12   7  -6  240.07  103.43
 -12   7  -6   91.74   25.24
  12  -7   7   26.61   14.35
  12   7  -7    9.04    6.98
 -12  -7   7   62.32   27.85
 -12  -7   7    8.02    7.92
 -12   7  -7   47.16   21.54
  12  -7   8  140.77   61.33
  12   7  -8  135.47   59.13
  12   7  -8  111.79   37.59
 -12  -7   8  156.20   67.85
  12   7  -9    1.39    7.12
  12   7  -9    3.11    5.21
 -12  -7   9   20.47   11.59
 -12  -7   9    5.85    7.01
 -12   7  -9   18.80   10.73
  12  -7  10  116.93   52.76
  12   7 -10  197.45   65.52
 -12  -7  10  134.90   59.65
 -12  -7  10  193.87   64.51
 -12   7 -10  131.79   58.07
  12  -7  11   -5.83   11.93
  12  -7  11   15.16    5.86
  12   7 -11   11.28    9.11
  12   7 -11    5.24    5.73
 -12  -7  11    3.01   10.02
 -12  -7  11    3.40    5.46
 -12   7 -11    2.73   10.77
  12  -7  12    3.02    3.21
  12   7 -12    2.14    7.19
  12   7 -12    4.51    5.42
 -12  -7  12    4.84   10.36
 -12  -7  12   -1.07    5.72
 -12   7 -12    7.73   10.09
 -12   7 -12    9.50    4.36
  12   7 -13    8.79    9.63
  12   7 -13   18.06    8.61
 -12   7 -13    3.28   10.33
 -12   7 -13   18.06    6.68
  12   7 -14   30.84   12.43
  12   8   0  236.04   59.26
  12   8   0  250.56   83.79
 -12  -8   0  201.94   50.96
 -12  -8   0  228.90   77.09
  12  -8   0  249.52   62.65
 -12   8   0  298.70   74.85
  12  -8   1  652.70  162.08
  12  -8   1  815.82  295.59
 -12  -8  -1  628.97  156.32
 -12  -8  -1  459.86  152.28
  12   8   1  573.10  189.61
 -12  -8   1  580.24  144.34
 -12   8  -1  544.30  135.36
  12  -8   2  834.71  207.01
  12   8  -2  523.11  192.26
  12   8  -2  662.72  164.96
 -12  -8  -2  911.20  330.27
  12   8   2  927.79  230.28
  12   8   2  644.29  212.77
  12   8   2  458.71  166.92
 -12  -8   2  722.05  179.47
 -12  -8   2  636.34  210.81
  12  -8   3  265.18   66.21
  12   8  -3  511.24  169.22
  12   8  -3  560.08  205.97
 -12  -8  -3  301.24   75.45
 -12  -8  -3  738.75  267.83
  12   8   3  343.63   85.91
  12   8   3  527.37  191.45
 -12  -8   3  519.30  190.99
  12   8  -4  513.08  188.69
 -12  -8  -4  478.41  119.46
 -12  -8  -4  490.62  178.21
  12   8   4  460.43  114.97
  12   8   4  779.99  282.80
 -12   8  -4  510.20  127.06
 -12   8   5  449.38  165.19
 -12  -8  -5  406.99  147.92
  12   8   5  355.84  129.37
  12  -8   6   35.22   18.09
 -12   8   6   48.70   19.13
  12   8  -6   77.34   35.11
 -12  -8  -6   45.40   16.99
 -12  -8   6   26.11   15.04
  12  -8  -6  107.33   40.03
 -12   8  -6   17.18   10.72
  12   8  -7  305.50  131.79
 -12  -8   7  643.95  276.58
 -12   8  -7  320.02  137.78
  12   8  -8   63.97   22.18
 -12  -8   8   68.25   24.05
  12  -8   9  337.99  145.61
  12   8  -9  424.15  182.47
  12   8  -9  448.35  147.22
 -12  -8   9  542.23  233.16
 -12  -8   9  576.55  189.27
  12  -8  10   19.17   12.19
  12   8 -10   13.35    9.26
 -12  -8  10   23.65   12.99
 -12  -8  10    4.88    7.01
 -12   8 -10   25.62   13.31
  12  -8  11   79.93   37.14
  12   8 -11  168.64   73.11
  12   8 -11  118.54   39.73
 -12  -8  11  136.97   45.97
 -12   8 -11  123.72   54.33
  12  -8  12   82.61   27.68
  12   8 -12   36.56   14.02
 -12   8 -12   77.57   35.03
  12   8 -13    5.60    9.55
  12   8 -13   10.45    6.50
 -12  -8  13    5.25    5.91
 -12   8 -13   21.85    7.90
  12   8 -14   18.18    8.44
  12   9   0   10.07    6.98
 -12  -9   0    3.62   10.01
 -12  -9   0   15.94    7.92
  12  -9   0   13.27    8.02
  12  -9   0    5.16    8.65
 -12   9   0   18.11    8.43
  12  -9   1    1.40    4.97
  12  -9   1    3.10    5.11
 -12   9   1    1.23    4.82
  12   9  -1    3.78    6.09
 -12  -9  -1    9.15    6.82
  12  -9  -1    7.92    5.61
 -12   9  -1    5.82    6.45
  12  -9   2   33.18    9.99
  12   9  -2   18.67    9.83
  12   9  -2    9.30    6.44
 -12  -9  -2    7.97    6.49
 -12  -9  -2    0.32    5.80
 -12  -9  -2   18.37   13.04
  12   9   2   33.35   10.61
  12   9   2   -0.51    7.76
 -12  -9   2   18.53    9.39
 -12   9  -2   21.28    8.41
  12  -9   3    5.60    5.49
  12   9  -3   18.44    8.90
 -12  -9  -3    3.65    6.51
 -12  -9  -3   28.63   16.13
  12   9   3    1.53    6.39
  12   9   3   15.30    8.81
  12   9  -4   37.63   15.64
 -12  -9  -4  102.44   27.59
 -12  -9  -4   36.31   14.94
  12   9   4   88.83   24.05
  12   9   4   21.59   10.47
  12   9   4   70.12   26.31
 -12  -9   4   38.21   15.63
 -12   9  -4   99.52   26.13
 -12   9   5   35.90   14.48
 -12  -9  -5   45.77   18.17
  12   9   5   38.87   15.71
 -12   9   6   18.44    9.19
 -12  -9  -6   31.76   15.44
  12   9  -7   37.47   20.30
 -12  -9   7    9.91   12.58
  12  -9   8    4.60    9.36
  12   9  -8   24.15   13.63
 -12  -9   8    5.57    8.49
 -12   9  -8    4.42    7.14
  12  -9   9   54.97   25.22
 -12  -9   9   20.42   11.98
 -12  -9   9    9.72    7.47
 -12   9  -9   21.08   11.22
  12  -9  10   16.71   10.80
  12   9 -10    6.46    7.90
  12   9 -10    2.67    4.90
 -12  -9  10    3.80    6.59
 -12   9 -10   17.71   11.24
  12   9 -11    1.10    6.41
  12   9 -11   -0.93    5.04
 -12  -9  11    2.57    7.27
 -12  -9  11    1.13    5.50
 -12   9 -11    1.44    6.51
  12   9 -12    2.91    5.14
 -12  -9  12    0.34    6.08
  12   9 -13    5.39    7.49
  12   9 -13   15.44    7.51
 -12   9 -13    3.61   11.80
  12  10   0   17.86    7.90
 -12 -10   0   17.81    8.37
  12 -10   0   31.23   10.86
  12 -10   1   24.40    8.08
  12  10  -1   20.06    8.01
 -12 -10  -1    5.32    6.07
 -12 -10  -1   22.92   14.16
  12  10   1    8.32    5.89
 -12  10  -1   24.13   10.11
  12 -10   2  586.11  145.50
 -12 -10  -2  494.88  123.15
 -12 -10  -2  423.12  140.31
 -12 -10  -2  610.08  221.41
  12  10   2  486.82  121.19
  12  10   2  536.47  194.80
 -12 -10   2  612.84  225.44
 -12 -10   2  549.95  136.97
  12 -10   3   23.43    8.03
 -12 -10  -3   20.54    9.34
 -12 -10  -3   17.52    9.99
  12  10   3   15.26    8.31
 -12  10  -3   17.91    7.52
  12  10  -4  380.14  140.08
 -12 -10  -4  394.66   99.00
 -12 -10  -4  212.19   71.65
  12  10   4  384.06   96.59
  12  10   4  479.10  173.94
 -12  10  -4  349.97   87.35
 -12  10   5  449.84  165.53
 -12 -10  -5  396.04  143.88
  12  10   5  348.36  115.89
  12  10   5  359.75  130.75
 -12  10   6   89.32   33.80
 -12 -10  -6   33.35   16.00
 -12 -10  -6   47.66   19.05
 -12  10  -6   30.03   12.91
  12 -10   8   68.18   30.85
  12  10  -8   84.38   38.04
 -12 -10   8   99.70   43.80
 -12  10  -8   67.17   30.26
  12  10  -9    6.48    8.10
 -12 -10   9   19.43   11.38
 -12  10  -9   31.05   15.22
  12 -10  10    1.88    8.22
 -12 -10  10   15.61   11.12
 -12 -10  10   11.33    6.77
 -12  10 -10   16.00    9.58
  12  10 -11   22.72    9.67
 -12 -10  11   50.63   18.48
 -12  10 -11    9.34    7.72
  12  10 -12    9.75    8.47
  12  10 -12    5.29    5.16
 -12  10 -12   15.16    9.76
  12  11   0   23.70    8.38
 -12 -11   0   19.27    9.03
  12 -11   0   46.25   14.12
 -12  11   0   17.77    9.22
  12 -11   1    9.36    6.09
 -12  11   1   18.14    9.21
  12  11  -1   17.14    7.49
  12  11   1   11.62    7.16
 -12 -11   1   23.73   11.53
 -12 -11   1   12.00    7.01
 -12  11  -1   10.63    7.33
 -12  11  -1   26.30   10.08
  12 -11   2   46.31   12.87
  12  11  -2   38.29   12.82
  12  11  -2   39.64   16.51
 -12 -11  -2   39.74   12.44
  12  11   2   29.61   10.45
  12  11   2   55.55   22.11
 -12 -11   2   59.33   23.44
 -12 -11   2   51.94   15.63
  12 -11  -2   32.55   13.71
 -12  11  -2   64.42   17.27
  12 -11   3    8.80    5.30
  12  11  -3    3.40    7.07
 -12 -11  -3    8.70    8.00
 -12 -11  -3   -0.18    6.95
 -12 -11  -3   14.63   11.59
  12  11   3   10.08    7.82
 -12 -11   3    5.24    7.65
 -12  11  -3    3.35    5.54
  12  11  -4    4.69    7.14
 -12 -11  -4    3.34   10.42
 -12 -11  -4   10.80    9.28
 -12 -11  -4   32.80   15.38
  12  11   4   24.13   13.72
 -12 -11   4    3.14    6.44
 -12  11  -4    8.22    6.28
 -12  11   5    3.96    6.51
 -12 -11  -5   13.43    8.40
  12  11   5   14.18   10.72
  12  11   5    4.79    6.57
  12 -11  -5    6.30    7.13
 -12 -11  -6   24.40   13.43
 -12 -11  -6   33.53   16.62
 -12 -11  -6   22.04   10.32
  12  11   6   13.82    8.42
  12 -11  -6   17.15    8.82
 -12  11  -6   46.19   15.84
 -12  11   7    6.46    5.70
  12  11   7   26.98   13.17
  12 -11   8    8.52    9.94
 -12 -11   8   10.09   10.67
  12 -11   9   35.00   17.49
  12  11  -9   19.89   13.35
  12  11   9   52.74   20.78
 -12 -11   9   27.98   14.92
  12  11 -10    0.83    8.16
 -12  11 -10    3.22    6.37
 -12 -11  11   11.45    7.38
 -12  11 -11    8.10    6.76
  12  11 -12    3.03    4.58
 -12 -11  12    0.03    5.93
 -12  11 -12   -0.58    7.21
  12  11 -13    2.05    5.01
 -12 -12   0  251.25   63.30
 -12  12   0  315.75  114.86
  12  12  -1  386.48   96.45
  12  12  -1  624.71  229.82
  12  12   1  428.65  106.86
 -12 -12   1  396.39   98.88
 -12 -12   1  452.61  166.92
  12 -12  -1  528.06  191.68
 -12  12  -1  668.36  242.38
 -12  12  -1  560.08  139.28
  12 -12   2   96.50   25.03
 -12  12   2   74.27   28.34
  12  12  -2   18.81   10.43
 -12 -12  -2   79.49   21.60
  12  12   2  100.84   26.41
  12  12   2   33.96   15.94
 -12 -12   2   18.05   10.21
  12 -12  -2   85.68   31.97
 -12  12  -2   91.27   23.79
  12 -12   3  302.04   75.42
  12  12  -3  361.71  133.63
 -12 -12  -3  342.14   85.94
 -12 -12  -3  504.10  183.16
  12  12   3  302.97   76.16
  12  12   3  234.08   86.28
 -12  12  -3  321.40   80.15
 -12 -12  -4   40.27   15.55
 -12 -12  -4   62.37   24.53
 -12 -12   4   31.28   14.07
 -12  12  -4   68.96   18.48
 -12  12   5  210.92   78.01
 -12 -12  -5  154.70   56.88
 -12 -12  -5  274.39   91.87
  12  12   5  221.98   80.97
  12 -12  -5  175.44   65.11
 -12  12   6   21.38   10.00
 -12 -12  -6    2.79   11.95
 -12 -12  -6   13.58   10.34
 -12 -12  -6   10.89    7.39
  12  12   6   10.02    7.29
  12  12   6   26.90   13.39
  12 -12  -6   14.31    7.86
 -12  12  -6   10.28    8.91
 -12  12   7  158.39   58.88
  12 -12  -7   72.40   27.46
  12  12  -9  310.11  134.09
  12  12   9  219.45   73.86
 -12 -12   9  138.47   60.90
  12  12  10    5.56    8.51
  12  12 -11    5.02    8.16
 -12  12 -11   11.67    8.29
  12  13   0 3451.27  854.87
 -12 -13   0 4279.53 1059.81
  12 -13   0 4020.33 1456.08
  12 -13   1  176.13   44.42
 -12  13   1  233.85   85.59
  12  13  -1  192.61   48.74
  12  13  -1  108.17   41.06
 -12 -13  -1  298.13   74.97
  12  13   1  214.96   54.33
 -12 -13   1  160.00   40.95
 -12  13  -1  157.81   40.25
 -12  13  -1  185.35   68.07
 -12  13   2  126.03   46.86
  12  13  -2  101.58   26.99
  12  13  -2  194.91   72.55
 -12 -13  -2   81.72   22.18
  12  13   2  141.81   52.92
  12  13   2  107.14   28.07
 -12 -13   2  116.35   30.94
  12 -13  -2  137.66   50.64
 -12  13  -2  147.22   37.30
  12  13  -3  310.45   77.90
  12  13  -3  346.17  127.87
 -12 -13  -3  280.27   70.83
 -12 -13  -3  420.81  152.98
  12  13   3  439.13  110.23
  12  13   3  343.40  125.34
 -12 -13   3  367.36  135.59
 -12  13  -3  293.06   73.15
 -12 -13  -4    7.12   11.12
 -12 -13  -4   22.22   10.84
  12  13   4   11.55    9.67
 -12 -13   4   16.91    9.12
 -12  13  -4   13.95    6.49
 -12  13   5   21.14   10.15
 -12 -13  -5   47.86   18.92
  12  13   5   57.86   22.76
  12 -13  -5   15.19    8.46
 -12  13   6  736.68  270.82
 -12 -13  -6  121.19   33.00
 -12 -13  -6  400.31  145.50
 -12  13  -6  156.09   39.93
 -12 -13  -7  207.35   70.35
 -12 -13  -7  190.30   69.77
  12 -13  -7  218.41   80.80
  12 -13  -8  457.90  168.64
  12  13  10    9.84    9.10
 -12  13 -10   18.41   10.80
  12  14   0   30.14   11.15
 -12 -14   0   27.64   14.02
 -12 -14   0   45.56   14.26
  12 -14   0   25.10   12.08
  12 -14   1    2.02    6.04
  12 -14   1    6.29   12.34
 -12  14   1    7.75    8.68
  12  14  -1   11.83    8.80
 -12 -14  -1   10.55    6.99
  12  14   1    5.18    6.99
 -12 -14   1   39.21   17.52
 -12 -14   1   23.26    9.44
  12 -14  -1    9.74    8.77
 -12  14  -1   21.97   10.63
  12 -14   2    7.75    4.97
  12  14  -2    2.17    6.37
  12  14  -2    7.23    8.35
 -12 -14  -2   11.20    7.78
  12  14   2    4.40    6.43
  12  14   2   -1.20    8.14
 -12 -14   2   37.19   16.28
 -12 -14   2    7.48    7.61
  12 -14  -2    5.74    5.78
 -12  14  -2    7.51    5.74
  12  14  -3   11.17    8.46
 -12 -14  -3    7.34    8.19
  12  14   3    1.83    8.11
 -12 -14   3    1.39    5.99
  12 -14  -3    6.28    6.48
 -12  14  -3   11.85    5.52
 -12 -14  -4    5.10    9.39
 -12 -14  -4    2.14    5.75
  12  14   4   13.42    9.29
 -12 -14   4    3.62    7.14
  12  14   5   18.73   10.22
  12 -14  -5   12.22    7.61
 -12  14   6   44.94   17.90
 -12 -14  -6    7.00   10.53
 -12 -14  -6   40.23   16.29
  12  14   6   43.29   17.53
  12 -14  -6   52.92   20.76
 -12  14  -6    7.09    6.47
 -12  14   7   13.77    7.74
 -12 -14  -7    3.68    5.94
  12  14   7    1.52    6.79
  12 -14  -7    5.62    5.19
  12 -14  -8    2.91    4.90
  12 -14 -10    3.10    2.91
  12  15   0   27.23    9.82
 -12 -15   0   10.77    8.71
  12 -15   0   35.79   14.42
 -12  15   0   23.63   11.08
  12 -15   1   13.65    6.80
  12 -15   1   19.94   13.93
 -12 -15  -1    4.05    5.95
  12  15   1    3.75    5.90
 -12 -15   1    1.45    6.57
 -12 -15   1   24.89   12.20
  12 -15  -1    9.54    7.45
 -12  15  -1    2.50    5.19
 -12  15  -1   -2.17    6.52
  12 -15   2   50.32   13.67
 -12  15   2   78.07   29.29
  12  15  -2   73.30   20.42
 -12 -15  -2   40.39   12.44
 -12 -15  -2   38.59   19.12
  12  15   2   39.72   11.89
  12  15   2   46.76   19.02
 -12 -15   2   80.90   31.34
 -12 -15   2   33.31   11.77
 -12  15  -2   61.89   16.96
  12 -15   3    3.64    3.92
 -12  15   3    9.55    7.15
  12  15  -3    1.91    8.72
 -12 -15  -3   -0.20    6.81
  12  15   3    8.16    7.75
 -12 -15   3    3.45    7.13
  12 -15  -3    8.52    6.58
  12 -15   4    5.25    3.99
 -12 -15  -4    5.86    8.50
  12  15   4    0.89    7.98
 -12 -15   4   16.29    9.43
  12  15   5    2.64    7.18
  12  15   5   21.27   11.07
  12 -15  -5   22.22   10.29
 -12  15   6   62.60   24.08
 -12 -15  -6   13.45   10.51
  12  15   6   21.33   10.20
  12 -15  -6   49.45   19.45
 -12  15  -6   22.13    8.21
 -12  15   7   14.13    7.69
 -12 -15  -7   16.60    9.16
 -12  15   8   37.86   15.21
 -12 -15  -8    9.90    7.89
  12 -15  -9   15.64    8.30
  12 -15 -10   25.50   13.18
  12  16   0    8.87    6.89
  12  16   0   24.41    8.98
 -12 -16   0   12.74    8.27
  12 -16   1   70.13   18.94
  12 -16   1   67.90   27.88
 -12  16   1   37.95   16.23
  12  16  -1  105.22   27.50
 -12 -16  -1   79.22   21.08
  12  16   1   60.83   16.70
 -12 -16   1   67.41   18.64
  12 -16  -1   57.96   22.49
 -12  16  -1   68.10   18.50
  12 -16   2  103.22   26.33
  12  16  -2   87.99   33.58
 -12 -16  -2   74.57   20.25
 -12 -16  -2   84.91   33.86
 -12 -16   2  101.38   38.65
 -12 -16   2   81.29   22.28
  12 -16  -2  162.42   59.65
 -12  16  -2   87.28   22.58
  12 -16   3    5.46    3.89
 -12  16   3    5.33    5.52
  12  16  -3    4.30    5.88
  12  16  -3   -1.46    7.89
 -12 -16  -3    5.51    6.74
 -12 -16   3    6.43    6.88
 -12 -16   3   -3.00    7.43
  12 -16  -3    2.89    6.06
 -12  16  -3    4.58    4.98
  12 -16   4  117.16   29.59
  12  16  -4  168.41   62.97
 -12 -16  -4   80.66   22.59
 -12 -16   4   93.04   35.57
  12 -16  -4   77.34   29.26
 -12 -16  -5   31.58   14.35
  12  16   5   19.24    9.09
  12 -16  -5   49.71   19.77
 -12  16  -5   26.28    8.97
 -12  16   6    0.91    4.45
 -12 -16  -6    3.13    9.64
 -12 -16  -6   13.96    8.37
  12 -16  -6    4.39    5.39
 -12  16  -6    3.59    5.44
 -12  16   7    2.84    4.71
 -12 -16  -7   15.51    8.88
 -12  16   8   -0.83    4.45
 -12 -16  -8    4.01    6.29
  12  16   8    3.95    6.88
  12 -16  -8    6.34    3.99
  12  17   0  201.02   74.76
  12  17   0  174.63   44.20
 -12 -17   0  205.39   51.90
 -12  17   0  229.01   83.63
  12 -17   1   55.84   24.29
 -12  17   1    3.61    7.09
  12  17  -1    2.93    5.93
 -12 -17  -1    1.85    5.69
 -12 -17  -1    3.88    6.18
  12  17   1    2.61    5.13
 -12 -17   1   24.18   11.69
 -12 -17   1    0.11    5.65
  12 -17  -1   10.33    7.70
  12 -17   2   13.72    5.43
 -12  17   2   16.62    9.11
  12  17  -2   27.42   12.82
 -12 -17  -2    4.94    5.51
 -12 -17  -2   26.09    9.54
 -12 -17  -2    5.49   13.11
  12  17   2   -2.76    8.13
 -12 -17   2    9.76    7.77
 -12 -17   2    5.17    7.29
  12 -17  -2   29.88   13.24
  12 -17   3   14.72    5.09
 -12  17   3    2.69    5.14
  12  17  -3    2.97    7.09
  12  17  -3    7.24    6.57
 -12 -17  -3    7.76    6.35
  12  17   3   10.68    9.60
 -12 -17   3   15.09    8.92
 -12 -17   3   35.77   12.06
  12 -17  -3    1.76    5.71
 -12  17  -3   11.85    4.67
  12 -17   4   21.13    6.37
 -12  17   4    3.18    5.85
  12  17  -4   10.35    7.31
 -12 -17  -4   28.23   10.97
  12  17   4   31.01   15.69
 -12 -17   4   14.69    8.98
  12 -17  -4   14.23    8.41
 -12  17  -4   23.62    7.40
 -12 -17  -5    6.62    8.04
  12  17   5    4.29    7.62
  12 -17  -5    4.46    5.99
 -12  17  -5   -1.29    5.21
 -12 -17  -6   24.85   11.60
  12 -17  -6   33.43   16.98
 -12  17  -6    5.24    5.37
 -12 -17  -7    6.95    6.69
  12  17   7   19.62    9.74
  12 -17  -7   16.75    8.84
  12  17   8    7.50    7.59
  12  18   0    4.17    6.07
  12  18   0    8.91    5.30
 -12 -18   0   -0.90    5.79
 -12 -18   0   13.03    6.34
 -12  18   0    9.13    7.49
  12 -18   1  243.87   61.08
 -12  18   1  355.26  129.37
  12  18  -1  261.84   97.03
  12  18  -1  271.86   68.24
 -12 -18  -1  329.35  121.88
 -12 -18  -1  234.08   58.84
  12 -18   2   98.11   25.16
  12  18  -2   58.48   16.51
 -12 -18  -2   92.88   24.49
 -12 -18  -2   72.07   30.48
  12  18   2   46.08   20.44
 -12 -18   2   43.97   18.39
 -12 -18   2   78.58   21.82
 -12  18  -2   48.89   14.15
  12 -18   3   47.84   12.52
  12  18  -3   52.14   21.27
 -12 -18   3   56.92   22.89
 -12  18  -3   77.18   19.77
  12 -18   4  122.22   30.83
 -12  18   4   69.06   26.40
  12  18  -4   91.00   34.80
 -12 -18  -4  111.82   42.00
 -12 -18   4   87.58   33.95
 -12  18  -4   99.34   25.22
 -12 -18  -5   42.58   17.64
  12  18   5   52.15   15.59
  12  18   5   17.26   11.80
  12 -18  -5  133.75   66.80
 -12  18  -5   65.44   17.35
 -12 -18  -6   21.50   10.26
  12  18   6   10.21    8.49
  12  18   7   76.04   29.21
  12  19   0   17.20    6.55
 -12 -19   0   19.54    9.98
 -12  19   0   42.78   17.00
  12 -19   1    4.87    5.87
 -12  19   1    1.34    6.80
  12  19  -1    2.50    5.85
 -12 -19  -1    6.06    6.67
  12  19   1   -1.94    5.17
 -12 -19   1   19.50    9.74
 -12  19   2   17.28    9.94
  12  19  -2    3.65    6.27
 -12 -19  -2    5.58   12.35
  12  19   2   -2.68   10.07
 -12 -19   2   21.15   11.37
 -12  19  -2    1.70    5.10
  12 -19   3    3.37    3.42
 -12  19   3    1.64    5.62
 -12 -19  -3    7.29    5.73
 -12 -19  -3   -1.22    6.97
 -12 -19   3    4.30    7.57
 -12  19  -3    8.33    4.40
  12 -19   4    7.30    3.53
 -12  19   4    6.45    6.33
 -12 -19  -4    5.51    7.09
  12 -19  -4   14.41    7.68
 -12  19  -4    7.27    4.13
 -12  19   5    1.10    5.11
 -12 -19  -5    1.52    7.27
  12  19   5   -0.08    9.03
 -12  19   6    7.49    5.72
  12  19   6    3.43    7.98
 -12  19   7   -0.13    4.77
  12  20   0    9.48    6.39
 -12 -20   0   12.99    8.18
 -12  20   0    9.12    7.44
  12 -20   1   13.45    6.93
 -12  20   1   87.20   32.78
  12  20  -1   18.48    9.32
  12  20   1   25.33   11.36
  12  20   1   10.59    5.63
 -12 -20   1   24.81   12.14
  12 -20   2    7.02    4.44
  12  20  -2   12.99    8.10
 -12 -20  -2   -1.90   10.61
 -12  20  -2   -0.75    6.31
  12  20  -3   15.78    8.80
 -12 -20  -3   -2.53    8.47
  12 -20  -3    7.19    4.35
 -12  20   5   -0.38    5.17
 -12  20   5    2.75    5.88
  12  20   5   -1.65    8.55
  12  21   0   36.36   15.34
  12  21   1    9.69    6.64
  12  21  -2   11.57    8.02
  12 -21  -2    6.73    4.18
 -12  21   3    7.78    7.34
  12  21  -3    3.55    6.71
  12  21  -4   16.33    9.67
  13   0   0  182.12   45.97
 -13   0   0    6.42    4.16
  13   0   1  579.43  144.00
 -13   0   1  671.93  167.03
  13   0  -1  559.96  139.39
  13   0  -1  721.70  309.65
 -13   0  -1  581.51  144.58
 -13   0  -1  489.47  160.23
  13   0   2  364.94  132.25
  13   0   2  414.01  103.19
  13   0   2   32.12   11.40
 -13   0  -2   46.60   16.09
 -13   0  -2  232.47   84.37
  13   0   3 9999.00 2475.55
 -13   0  -3 9488.68 2348.85
 -13   0  -4 1769.40  438.44
  13   0   6   16.88    9.55
 -13   0  -6   12.95    8.76
  13   1   0    1.03    6.78
  13   1   0   22.24    8.63
 -13  -1   0   -1.49    5.95
  13  -1   0    2.66    5.05
  13  -1   1   65.90   17.79
 -13   1   1   31.62   11.70
  13   1  -1   28.80   13.34
  13   1  -1   47.14   16.50
 -13  -1  -1   30.96   11.50
  13   1   1   21.78    8.39
 -13  -1   1   45.15   13.77
 -13  -1   1   32.40   14.77
 -13  -1   1    6.41    5.94
  13  -1  -1   46.86   15.06
 -13   1  -1   63.17   17.29
  13  -1   2  742.21  184.31
 -13  -1  -2  734.61  182.35
  13   1   2  719.05  178.67
  13   1   2  747.97  271.05
 -13  -1   2  174.63   75.51
 -13   1  -2  896.80  325.08
  13  -1   3  325.78   81.54
  13  -1   3   19.79    7.41
  13   1  -3   12.71   10.52
 -13   1  -3    7.73    4.30
 -13  -1  -4  175.10   44.63
 -13   1  -4  149.41   38.14
  13   1  -5  198.83   73.15
  13  -1   6  784.60  195.03
  13   1   6  576.21  143.65
  13   2   0   13.73    7.05
 -13  -2   0   17.88    8.16
 -13  -2   0   27.45   10.94
 -13   2   0   13.54    7.59
  13  -2   1  243.30   61.03
 -13   2   1  286.72   71.81
  13   2  -1  274.62   69.13
 -13  -2  -1  246.41   61.76
 -13  -2   1  276.35   69.54
 -13  -2   1  246.98   81.28
  13  -2  -1  282.23   71.09
 -13   2  -1  207.58   52.14
  13  -2   2   33.66   15.41
  13  -2   2   34.89   10.88
  13   2  -2   23.11    9.82
  13   2  -2   13.82    8.05
 -13  -2  -2   58.43   16.17
 -13  -2  -2   42.37   15.92
  13   2   2   58.72   16.50
 -13  -2   2   26.08   12.35
 -13   2  -2   38.67   11.44
 -13   2  -2   39.97   17.72
  13  -2   3  477.48  118.77
  13   2  -3  643.37  276.01
  13   2  -3  394.89  129.48
 -13  -2  -3  452.95  112.79
  13   2   3  481.06  119.92
  13   2   3  341.44  123.84
 -13  -2   3  378.53  124.30
 -13  -2   3  549.83  236.04
 -13   2  -3  462.39  115.06
 -13   2  -3  534.28  229.36
  13   2  -4    9.94   10.00
 -13  -2   4   25.14   13.05
 -13   2  -4   35.19   11.39
  13   2  -5  122.57   53.54
  13   2  -5  230.86   84.92
 -13   2  -5  174.40   57.13
  13  -2   6    6.48    8.40
 -13  -2  -6   27.37   11.24
  13   2   6   32.47   12.30
 -13   2  -6   16.24    8.74
  13   2 -13    4.05    8.34
  13   3   0   18.07    8.86
 -13  -3   0   12.72    7.65
 -13   3   0   14.50    8.30
  13   3  -1  238.00   60.22
  13   3   1  285.11   71.39
  13  -3  -1  161.73   41.59
 -13   3  -1  239.61   59.96
  13   3  -2 1284.43  420.01
 -13  -3  -2  760.52  188.80
  13   3   2  834.94  207.35
  13   3   2 1269.45  459.86
 -13  -3   2 1316.69  430.72
 -13   3  -2  790.59  196.18
  13  -3   3  101.03   43.81
  13   3  -3   56.48   25.02
  13   3  -3   32.50   12.53
 -13  -3  -3   37.29   11.33
  13   3   3   51.87   19.38
 -13  -3   3   57.22   20.18
 -13  -3   3   95.62   41.44
 -13   3  -3   31.32    9.64
 -13   3  -3  141.00   60.72
  13  -3   4    1.82   10.62
  13   3  -4    3.39    5.30
  13   3  -4    3.30    5.80
 -13  -3   4   31.89   12.34
 -13  -3   4   19.13    9.80
 -13  -3   4    9.33    6.51
 -13   3  -4    3.55    5.92
 -13   3   5  172.68   63.51
  13   3  -5  360.56  132.48
  13   3  -5  160.35   69.69
 -13  -3   5   43.08   16.27
 -13  -3   5   95.83   42.35
 -13   3  -5  151.26   65.75
  13  -3   6  522.30  130.29
  13   3  -6  129.83   57.30
 -13  -3  -6  387.29   97.03
  13   3   6  426.11  106.69
  13   3  -7   46.18   23.04
  13   3 -10   61.46   22.73
  13   3 -11   10.31    8.93
  13   4   0  224.63   56.42
 -13  -4   0  190.19   48.09
 -13   4   0  231.66   58.28
  13  -4   1   15.17    6.85
  13  -4   1   32.65   12.16
  13   4  -1   12.31    9.48
 -13  -4  -1    4.89    6.68
  13   4   1   16.02    7.67
 -13  -4   1   19.16    9.00
 -13   4  -1   29.97   11.22
  13  -4   2  218.87   55.11
 -13  -4  -2  196.18   49.50
  13   4   2  208.04   52.49
 -13   4  -2  190.99   48.03
  13  -4   3  157.81   68.23
  13  -4   3  124.30   31.71
  13   4  -3  260.68  112.24
  13   4  -3  247.56   81.50
 -13  -4  -3  272.44   98.99
 -13  -4   3   90.61   39.55
 -13  -4   3  238.11   78.60
 -13   4  -3  130.29   32.97
  13   4  -4   28.96   11.34
 -13  -4  -4    7.42    5.82
  13   4   4   25.15   10.34
 -13  -4   4   41.19   15.59
 -13  -4   4   30.60   11.92
 -13  -4   4   79.09   34.48
 -13   4  -4   79.32   34.47
 -13   4  -4   55.74   15.56
 -13   4   5   43.64   16.31
  13   4  -5   55.51   21.02
  13   4  -5   13.19    8.76
 -13  -4   5   20.48    9.74
 -13   4  -5   40.64   18.78
  13  -4   6    7.41   14.84
 -13  -4  -6   74.54   21.63
  13   4   6   67.12   19.61
 -13  -4   6   11.30    8.26
 -13  -4   6   21.66   15.09
 -13   4  -6   20.18   14.16
  13   4  -7  125.57   55.52
 -13  -4   7  182.81   79.53
 -13   4  -7  169.68   73.68
  13  -4   8    6.16    2.69
  13   4  -8    2.16    9.45
  13   4  -8   14.20   10.78
 -13  -4   8    3.93   10.19
 -13   4  -8    5.14    2.63
  13   4  -9   -0.73    7.90
  13   4  -9   10.98    9.17
 -13  -4   9   10.84    9.67
 -13  -4  10   10.52   12.72
 -13  -4  11   19.19   11.80
 -13  -5   0    6.36    6.31
  13  -5   0    7.46    8.52
  13  -5   1  551.56  137.09
  13  -5   1  706.84  256.08
  13   5  -1  559.73  139.39
 -13  -5  -1  577.13  143.54
  13   5   1  558.00  138.81
 -13  -5   1  548.68  136.63
 -13   5  -1  503.75  125.22
 -13   5  -1  762.82  276.47
  13  -5   2 2703.64  669.51
  13   5  -2 2947.86  730.23
 -13  -5  -2 2401.83  594.99
 -13  -5  -2 3044.63 1102.42
  13   5   2 2545.83  630.70
 -13   5  -2 2261.30  559.96
  13  -5   3   30.16    9.45
 -13  -5  -3   34.50   10.74
 -13  -5  -3   73.64   27.87
  13   5   3   17.48    7.20
  13   5   3   51.29   19.73
 -13  -5   3   14.57    6.90
 -13   5  -3   37.70   11.15
  13  -5   4  921.68  228.78
  13   5  -4 1063.83  348.01
  13   5  -4  950.83  349.05
  13   5  -4  447.19  192.15
  13   5   4  950.37  344.44
  13   5   4  811.67  201.71
 -13  -5   4 1072.82  393.74
 -13  -5   4 1377.74  450.42
 -13  -5   4  619.76  265.98
 -13   5  -4  449.38  192.95
 -13   5  -4  955.55  237.19
 -13   5   5 1295.95  475.53
  13   5  -5 1244.12  456.52
  13   5  -5  870.65  284.99
  13  -5   6 2057.40  509.97
  13   5  -6 3131.02 1027.55
  13   5  -6 4185.07 1367.37
 -13  -5  -6 1544.78  383.25
 -13  -5   6 4906.19 1603.53
 -13  -5   6 3937.39 1688.77
  13  -5  -6 4142.44 1519.43
 -13   5  -6 4066.42 1744.07
 -13   5  -6 2140.34  530.59
  13  -5   7   26.46   19.58
  13   5  -7   11.92    9.23
  13   5  -7    5.57    7.48
  13   5  -7    9.77   10.24
 -13  -5   7   44.04   21.51
 -13  -5   7   12.54   11.24
 -13   5  -7   23.97   16.38
  13  -5   8  127.87   56.46
  13   5  -8  120.61   40.76
  13   5  -8  189.73   82.34
 -13  -5   8   92.74   41.61
 -13  -5   8  100.88   34.24
 -13  -5   8  151.03   52.15
  13  -5   9   42.24   14.15
  13   5  -9   48.50   17.65
 -13  -5   9   16.17   11.98
 -13  -5   9   43.52   18.43
 -13   5  -9    7.05    9.81
  13   5 -10    8.48    9.61
  13   5 -10   49.80   18.39
 -13  -5  10   -0.43    9.25
 -13   5 -10   19.38    6.88
  13   5 -11    5.81    8.07
 -13  -5  11    4.39    9.95
 -13   5 -11    3.77    2.48
  13   6   0   45.68   13.32
 -13  -6   0   55.65   15.61
  13  -6   0   45.68   14.24
  13  -6   1   56.52   21.03
 -13  -6  -1   53.95   15.13
  13   6   1   61.07   17.01
 -13  -6   1   55.44   16.65
 -13   6  -1   48.47   13.59
 -13   6  -1   76.09   27.91
  13  -6   2  157.24   39.75
  13   6  -2  177.74   46.01
 -13  -6  -2  152.86   39.04
  13   6   2  145.61   37.21
  13   6   2   43.00   18.98
 -13  -6   2  207.01   52.58
 -13   6  -2  147.92   37.40
  13  -6   3  195.72   49.21
  13   6  -3  302.27  111.26
 -13  -6  -3  259.88   94.68
 -13  -6  -3  300.66   75.51
  13   6   3  180.39   66.24
 -13  -6   3  336.95  124.07
  13  -6   4   19.53    7.84
  13   6  -4    5.11    4.97
  13   6  -4   13.33   12.57
  13   6   4    9.55    7.60
  13   6   4    6.75    7.18
 -13   6  -4   19.40    7.86
  13  -6   5   68.85   31.11
  13   6  -5   40.39   18.11
  13   6  -5   72.22   27.37
 -13  -6   5   17.73   10.36
 -13  -6   5   49.29   17.98
 -13   6  -5   46.30   14.78
  13  -6   6   74.62   33.52
  13  -6   6   45.16   14.69
 -13   6   6   33.98   13.54
  13   6  -6   47.33   17.53
 -13  -6  -6   78.31   23.04
  13   6   6   38.80   14.31
 -13  -6   6   50.05   21.33
 -13  -6   6   53.50   20.03
 -13  -6   6   40.69   19.05
  13  -6  -6   28.50   11.44
 -13   6  -6   29.87   12.44
 -13   6  -6   37.02   17.30
  13  -6   7  421.96  181.43
  13   6  -7  430.37  143.42
  13   6  -7  413.90  177.98
 -13  -6   7  381.87  164.27
 -13  -6   7  445.35  146.30
 -13   6  -7  350.66  150.80
  13  -6   8   19.62   15.14
  13   6  -8    2.76    7.16
  13   6  -8   12.49    7.35
 -13  -6   8    9.37    7.55
 -13   6  -8   13.66   10.20
  13  -6   9    1.13   11.69
  13   6  -9    8.46    8.16
  13   6  -9    6.38    6.54
 -13  -6   9    8.50   11.74
 -13  -6   9    1.08    5.38
  13  -6  10    5.07   11.96
  13  -6  10    3.98    2.80
  13   6 -10   -0.66    7.85
  13   6 -10    5.64    5.37
 -13  -6  10    1.20    5.94
 -13  -6  10   11.04   10.62
 -13   6 -10    1.14    9.29
  13   6 -11   95.08   32.25
 -13  -6  11   29.84   17.44
 -13   6 -11   36.84   18.75
 -13   6 -11   63.85   21.23
  13   6 -12   -1.58    7.53
  13   6 -12    3.25    5.53
 -13   6 -12   12.25    4.88
  13   6 -13   -5.21    8.37
 -13   6 -13    1.75    2.57
  13   7   0    3.01    6.59
  13  -7   0    4.05    8.72
  13  -7   0   13.78    6.18
 -13   7   0   12.89    7.59
 -13   7   0   11.91    5.98
  13  -7   1   57.09   15.54
 -13  -7  -1   56.66   15.83
  13   7   1   54.07   15.36
 -13  -7   1   71.34   20.02
 -13   7  -1   75.22   19.83
  13  -7   2   49.22   13.79
  13   7  -2   77.45   22.52
 -13  -7  -2   62.75   17.28
  13   7   2   29.54   14.11
 -13  -7   2   66.70   19.24
 -13  -7   2   45.79   19.80
 -13   7  -2   53.99   14.87
  13  -7   3   57.00   15.49
  13   7  -3   40.23   15.85
  13   7  -3   40.03   18.49
  13   7   3   78.40   29.69
 -13  -7   3   50.10   19.53
 -13   7  -3   28.23    9.27
  13  -7   4  281.54   70.43
  13   7  -4  393.62  144.81
  13   7   4  377.26   94.38
  13   7   4  339.72  123.38
 -13  -7   4  423.92  155.86
 -13  -7   4  375.42  124.76
 -13   7  -4  330.85   82.62
  13  -7   5   46.10   22.58
  13   7  -5  179.59   66.50
  13   7  -5   15.84   12.83
 -13  -7  -5   11.28    8.32
 -13  -7   5    3.18    8.85
 -13   7  -5   37.62   12.53
  13  -7   6  269.44   67.98
 -13   7   6   34.63   14.32
  13   7  -6   26.47   14.69
 -13  -7   6   62.09   21.99
 -13  -7   6   11.33   11.89
 -13  -7   6   17.26   10.73
 -13   7  -6  190.76   48.97
  13  -7   7   33.10   16.80
  13   7  -7   13.70    7.60
 -13  -7   7   14.69    9.31
 -13  -7   7   14.13    8.83
 -13   7  -7   25.55   13.03
  13  -7   8   39.26   18.81
  13   7  -8   21.22   12.38
  13   7  -8   28.82   11.37
 -13  -7   8   23.82   12.52
 -13  -7   8   24.12   11.20
 -13  -7   8   64.99   25.11
 -13   7  -8   18.73   11.11
  13   7  -9    6.04    7.76
  13   7  -9    8.54    6.12
 -13  -7   9    6.82    7.96
 -13  -7   9   10.13    7.52
  13  -7  10   24.64   17.21
  13   7 -10   96.74   32.88
 -13  -7  10   87.30   39.68
 -13  -7  10   63.46   22.36
 -13   7 -10   48.35   23.41
  13  -7  11    4.08    2.92
  13   7 -11   -1.78    7.67
  13   7 -11    3.72    4.89
 -13  -7  11    4.57   11.48
 -13  -7  11    1.09    5.36
 -13   7 -11    1.60   10.53
  13  -7  12    2.61    3.05
  13   7 -12    4.83    7.74
  13   7 -12    4.38    5.51
 -13  -7  12   -1.81    6.14
 -13   7 -12    9.74   10.37
 -13   7 -12    6.21    3.39
  13   7 -13    3.16    5.60
 -13   7 -13   -0.01   10.19
 -13   7 -13    3.55    2.70
  13   7 -14   11.39    7.79
  13   8   0   18.20    8.51
 -13  -8   0   27.08    9.72
 -13  -8   0    8.47   10.86
  13  -8   0    4.12    5.17
 -13   8   0   22.16    9.74
 -13   8   0   10.78    5.95
  13  -8   1  605.35  150.34
  13   8  -1  474.49  157.12
 -13  -8  -1  641.64  159.54
  13   8   1  603.51  149.99
 -13  -8   1  566.76  141.12
 -13   8  -1  525.06  130.64
 -13   8  -1  671.13  243.18
  13  -8   2  140.54   35.69
 -13  -8  -2  100.07   26.15
  13   8   2  184.54   67.76
 -13  -8   2  184.54   62.76
  13   8  -3  689.45  253.31
  13   8  -3  789.09  260.34
  13   8   3 1400.78  507.32
  13   8   3 1016.83  252.40
 -13  -8   3  538.08  197.91
 -13   8  -3  754.19  187.19
  13  -8   4  394.20   98.31
 -13  -8  -4  389.59  141.58
  13   8   4  343.29   86.01
 -13  -8   4  294.55  108.56
 -13  -8   4  294.79   98.71
 -13   8  -4  300.89   75.28
  13   8   5   18.29    9.67
 -13   8  -5   63.29   18.36
  13  -8   6   65.74   19.06
  13  -8   6   63.63   29.27
 -13   8   6  137.66   51.15
  13   8  -6  104.26   46.44
 -13  -8  -6   79.91   23.60
  13   8   6   96.90   26.86
 -13  -8   6   63.62   29.29
  13  -8  -6  122.92   45.81
  13  -8   7   45.40   21.52
  13   8  -7   60.57   27.83
 -13  -8   7  122.22   53.39
 -13   8  -7   73.62   32.63
  13  -8   8    9.83    9.17
  13   8  -8    7.35    5.86
 -13  -8   8   41.00   19.47
 -13  -8   8    3.53    6.76
 -13   8  -8   29.25   14.42
  13  -8   9   80.57   35.88
  13   8  -9  106.84   46.83
  13   8  -9   50.49   18.07
 -13  -8   9  131.79   57.52
  13  -8  10   19.91   12.60
  13   8 -10   47.10   21.70
 -13  -8  10   54.65   24.97
 -13  -8  10   22.49   10.25
 -13   8 -10   48.08   21.91
  13   8 -11   35.39   13.42
 -13  -8  11   30.76   12.59
  13   8 -12   51.02   18.29
 -13   8 -12   75.86   34.47
  13   8 -13  108.73   36.95
  13   9   0    5.39    7.23
 -13  -9   0    3.36    6.97
 -13  -9   0   11.83   10.46
  13  -9   0    1.38    7.51
 -13   9   0   13.62    7.38
  13  -9   1   11.31    6.70
  13   9  -1   24.48   13.96
 -13  -9  -1   59.31   23.94
 -13  -9  -1   47.30   14.16
  13   9   1   34.84   10.83
  13   9   1   37.02   17.34
  13  -9  -1   22.88    9.99
 -13   9  -1   27.45   11.23
  13  -9   2   16.48    7.19
  13   9  -2   21.22   10.93
  13   9  -2   27.30   14.91
 -13  -9  -2   19.85    8.28
 -13  -9  -2   47.81   19.73
  13   9   2   24.54   11.36
 -13  -9   2   18.04    9.36
 -13  -9   2   21.52   13.62
  13   9  -3   25.63   11.42
 -13  -9  -3   14.22    8.96
  13   9   3   79.51   21.55
  13   9   3   38.23   18.09
 -13  -9   3   32.31   16.14
  13  -9   4   23.65    8.78
  13   9  -4   20.70    9.91
  13   9   4   15.86    8.82
  13   9   4   23.60   11.12
 -13  -9   4   50.39   19.71
 -13  -9  -5   18.45    9.71
  13  -9   6  104.63   28.03
 -13  -9  -6  167.38   44.12
  13   9   6   98.29   27.31
  13  -9  -6   47.61   18.62
  13   9  -7    5.06   10.80
  13  -9  -7    9.27    6.40
 -13   9  -7   -0.59    7.22
  13   9  -8   20.89   11.98
 -13  -9   8   17.45   10.64
  13  -9   9   -1.95    7.74
 -13  -9   9    9.73    8.87
 -13  -9   9    3.80    6.69
 -13   9  -9    4.62    6.75
  13   9 -10    2.45    7.45
  13   9 -10    1.31    4.96
 -13  -9  10    2.38    6.46
 -13   9 -10    8.58    8.71
  13   9 -11    2.50    5.93
  13   9 -11   -0.44    4.98
 -13  -9  11    1.14    6.08
 -13   9 -11    4.29    6.73
  13   9 -12   34.74   16.96
  13   9 -12   66.01   22.83
 -13  -9  12   68.83   24.20
  13   9 -13    4.69    5.47
  13  10   0   16.25    8.20
  13  10   0    6.37   10.35
 -13 -10   0   10.88    7.76
 -13 -10   0    9.14   12.28
  13 -10   0   55.65   17.88
  13 -10   0    1.23    6.14
 -13  10   0   14.89    8.54
  13 -10   1   32.14   13.28
 -13  10   1   21.92   10.02
  13 -10  -1   32.40   13.34
  13 -10   2    7.19    5.95
  13  10  -2   50.35   19.92
 -13 -10  -2   45.89   19.02
  13  10   2   29.55   10.11
  13  10   2   11.19    8.40
 -13 -10   2   20.23   10.09
 -13 -10   2   13.24    9.12
 -13  10  -2    8.12    6.08
  13  10  -3 2359.21  865.69
 -13 -10  -3 1665.73  547.53
 -13 -10  -3 2322.35  841.05
  13  10   3 2095.41  519.42
  13  10   3 2161.08  709.38
 -13  10  -3 1858.11  460.43
  13 -10   4  475.53  118.31
  13  10  -4  511.70  188.34
 -13 -10  -4  133.05   49.86
 -13 -10  -4  221.41   74.54
  13  10   4  394.43   98.75
 -13  10   5  196.18   72.62
  13  10  -5  222.56   82.54
 -13 -10  -5  241.22   87.95
  13  10   5  235.12   85.69
  13  10   5  442.01  146.42
 -13  10  -5  327.73   82.32
  13 -10   6   18.68    9.67
 -13  10   6   35.15   14.27
 -13 -10  -6   17.28   12.95
 -13 -10  -6   24.87   11.23
  13  10   6    8.11    6.60
  13  10   6    0.76   10.24
 -13  10   7  174.75   64.72
 -13 -10   7  107.97   47.89
  13 -10  -7  149.41   55.48
  13 -10   8    7.61    7.86
  13  10  -8   10.22   10.48
 -13 -10   8   25.79   13.59
 -13  10  -8    8.27    8.31
 -13 -10   9  162.08   70.38
 -13  10  -9  226.82   97.86
 -13 -10  10   10.38    7.17
 -13  10 -10   12.56    8.20
  13  10 -11    0.38    7.62
  13  10 -11    6.93    6.24
 -13 -10  11   13.35    8.44
 -13  10 -11   27.49   13.72
  13  10 -12    0.83    4.79
 -13  10 -12   11.36    8.91
  13  11   0   19.85    8.34
 -13 -11   0   35.93   12.14
  13 -11   0   12.63    8.05
 -13  11   0   17.11    9.98
  13 -11   1   49.33   14.05
  13 -11   1   12.52    7.78
 -13  11   1   25.53   11.00
  13  11  -1   57.83   16.15
 -13 -11  -1   52.14   15.24
 -13 -11  -1   34.04   15.86
 -13 -11   1   61.35   17.14
 -13  11  -1   63.92   17.92
  13  11  -2  134.67   34.90
  13  11  -2  145.15   54.31
  13  11   2  112.80   29.35
  13  11   2  177.40   65.28
  13  11   2  201.25   68.22
 -13 -11   2  158.39   59.21
 -13  11  -2  171.41   43.37
  13 -11   3   34.05   10.70
 -13 -11  -3   33.40   14.78
  13  11   3   28.90   11.14
  13  11   3   13.94   10.71
 -13 -11   3   29.35   13.42
 -13  11  -3   29.29    9.84
  13  11  -4   70.95   27.58
 -13 -11  -4   79.95   29.66
 -13 -11  -4   49.75   20.09
 -13 -11  -5   11.68   11.63
  13  11   5    6.17    6.04
 -13  11  -5   10.94    8.82
  13 -11   6  136.63   35.24
 -13  11   6   57.83   22.36
 -13 -11  -6  131.10   35.18
 -13 -11  -6   97.89   34.54
  13  11   6   41.98   16.73
  13  11   6   78.49   29.02
 -13  11   7    5.38    5.64
  13 -11   8   14.68   11.00
 -13 -11   8   15.62   11.53
  13  11  -9   10.49   10.69
 -13 -11   9    6.20    8.53
  13  11 -10   -1.09    7.25
 -13  11 -10    7.33    6.67
 -13 -11  11    4.72    5.33
 -13  11 -11   -0.52    5.62
  13  11 -12    1.72    4.46
  13  12   0  287.64   72.39
 -13 -12   0  266.33   67.16
  13 -12   0  205.86   52.20
 -13  12   1  478.98  173.94
  13  12  -1  340.41   85.19
 -13 -12  -1  329.92   82.62
  13  12   1  318.29   79.67
 -13 -12   1  331.88   83.18
 -13 -12   1  398.35  147.11
  13 -12  -1  335.57  122.11
 -13  12  -1  325.08   81.37
 -13  12  -1  270.02   98.60
 -13  12   2   34.11   14.68
  13  12  -2   39.70   13.29
 -13 -12  -2   32.65   19.86
  13  12   2   52.31   15.18
  13  12   2   37.76   16.68
 -13 -12   2   22.53   11.91
  13 -12  -2   60.02   23.10
 -13  12  -2   40.64   12.01
  13 -12   3   28.30    9.06
  13  12  -3   12.34    8.70
  13  12  -3   24.49   10.48
 -13 -12  -3    5.46    6.69
 -13 -12  -3   29.70   14.65
  13  12   3    9.57    8.32
  13  12   3   12.14   10.02
 -13 -12   3   22.56   11.31
 -13  12  -3   13.43    6.72
  13 -12   4    4.34    5.09
  13  12  -4    7.21    6.76
 -13 -12  -4    3.95    6.82
  13  12   4    1.24    8.67
  13  12   4   -0.13    7.62
 -13 -12   4    1.34    4.91
 -13  12   5  275.20  101.63
  13  12  -5  136.28   51.09
 -13 -12  -5  271.40   98.92
 -13  12  -5  340.64   85.23
  13 -12   6   34.19   11.67
 -13  12   6   35.62   14.54
 -13 -12  -6   36.60   13.92
 -13 -12  -6   58.36   22.39
 -13 -12  -6   34.84   16.93
  13  12   6   29.36   11.87
  13  12   6   62.85   24.06
  13  12   6   16.77   11.95
  13 -12  -6   45.94   18.35
 -13  12   7   13.01    7.14
 -13 -12  -7   11.02   11.24
 -13 -12  -7    5.80    6.88
 -13 -12  -8    6.25    9.58
  13  12   8   16.36   11.47
  13  12  -9   11.50   11.24
  13  12  10   23.67   12.43
 -13  12 -11   11.49    8.57
 -13 -13   0   35.77   13.35
 -13  13   0   40.79   17.14
  13 -13   1  165.76   42.10
 -13  13   1  253.20   92.71
  13  13  -1  229.13   57.83
  13  13  -1  195.49   72.85
 -13 -13  -1  192.49   49.30
  13  13   1  216.57   54.79
 -13 -13   1  105.15   40.38
 -13 -13   1  151.82   38.87
  13 -13  -1  169.33   62.02
 -13  13  -1  115.17   42.86
 -13  13  -1  145.50   37.20
  13 -13   2  462.97  115.16
 -13  13   2  390.17  141.93
  13  13  -2  484.63  120.96
  13  13  -2  454.79  167.72
 -13 -13  -2  385.33   96.56
 -13 -13  -2  569.99  207.47
  13  13   2  359.29   89.96
  13  13   2  548.57  199.29
 -13 -13   2  495.92  182.81
 -13 -13   2  511.70  127.64
 -13  13  -2  465.85  115.89
  13 -13   3   58.88   15.77
  13  13  -3   64.45   25.18
  13  13   3   43.11   13.63
  13  13   3   67.25   26.15
 -13 -13   3   74.58   28.67
 -13  13  -3   58.34   16.08
  13 -13   4  127.99   32.44
  13  13  -4  149.07   55.81
 -13 -13  -4  132.02   35.05
 -13 -13  -4  175.44   64.22
  13  13   4  122.11   32.15
  13  13   4  179.01   65.80
 -13  13  -4  139.85   35.62
 -13 -13  -5   67.82   25.42
 -13 -13  -5   97.04   36.18
  13  13   5   62.23   23.95
 -13  13  -5   41.64   12.29
  13 -13   6   47.79   14.17
 -13 -13  -6   36.66   15.30
  13  13   6   23.82   10.61
  13  13   6   22.45   10.97
  13 -13  -6   19.27    9.31
 -13  13   7   86.14   32.60
 -13 -13  -7  112.41   41.72
  13  13   7   56.79   22.98
  13  13   7  104.36   38.96
  13 -13  -7   68.15   26.36
 -13  13   8  175.90   65.58
  13  13   8  155.51   53.08
  13 -13  -8  264.03   97.52
  13  13 -10  150.68   66.38
 -13  13 -10   99.63   43.90
  13  14   0   58.15   16.45
  13  14   0    4.61    7.32
 -13 -14   0   65.62   18.70
  13 -14   0    4.22    6.93
  13 -14   1   21.80    8.59
 -13  14   1   10.14    8.08
  13  14  -1   25.49    9.94
  13  14  -1   12.38    8.41
  13  14   1   16.80    7.76
 -13 -14   1    6.92    7.73
 -13 -14   1   12.66    7.62
 -13  14  -1    8.08    6.80
  13 -14   2    4.69    5.29
  13  14  -2    5.77    8.82
  13  14  -2    8.37    6.88
 -13 -14  -2    0.60    5.81
 -13 -14  -2   -0.71   11.43
  13  14   2    6.27    6.40
  13  14   2    0.86    7.61
 -13 -14   2    5.11    6.65
 -13 -14   2   -0.66    7.74
  13 -14  -2    4.59    5.61
  13 -14   3  117.62   29.80
  13  14  -3  171.52   64.05
  13  14  -3  104.26   28.02
  13  14   3  138.24   35.71
  13  14   3  190.07   69.76
  13 -14  -3   87.71   32.80
  13 -14   4   24.46    7.39
  13  14  -4   21.56   10.86
 -13 -14  -4   20.83    9.59
  13  14   4   26.28   12.75
  13  14   4   13.67    8.27
 -13  14  -4   26.24    8.20
 -13  14   5  112.86   42.27
  13  14  -5   41.45   17.31
  13  14   5  175.33   64.39
 -13  14  -5   98.93   25.57
  13 -14   6   18.57    8.09
 -13 -14  -6    1.40    9.16
 -13 -14  -6    4.87    6.65
  13  14   6   28.70   11.40
  13  14   6   -0.08    6.09
  13 -14  -6    9.10    6.43
 -13  14   7   38.23   15.42
 -13 -14  -7   35.20   16.09
  13  14   7   37.97   15.61
  13 -14  -7   51.14   20.02
 -13  14   8    9.94    6.41
  13  14   9   11.28    9.27
  13  15   0   -1.79    6.07
 -13 -15   0    5.11    6.16
 -13 -15   0    3.24    5.76
  13 -15   0    2.70    6.02
  13 -15   1    4.18    6.52
  13  15  -1    0.60    5.14
  13  15   1    0.02    5.55
 -13 -15   1    7.04    6.79
 -13 -15   1    3.06    7.00
  13 -15  -1    6.00    7.43
 -13  15  -1    5.38    6.81
 -13  15  -1   -1.05    6.31
  13 -15   2   18.35    6.91
  13  15  -2    6.08    7.73
  13  15  -2   30.39   13.34
 -13 -15  -2   25.29    9.19
 -13 -15  -2   18.68   13.67
  13  15   2   32.83   10.50
 -13 -15   2    7.06    8.03
  13 -15  -2    4.09    6.57
 -13  15  -2   13.49    6.29
  13 -15   3    2.36    4.09
 -13  15   3    1.34    6.38
  13  15  -3   -1.12    8.23
  13  15  -3   12.51    8.17
 -13 -15  -3    5.04    5.77
  13  15   3    8.72    6.57
  13  15   3   -3.79    7.00
 -13 -15   3   -3.41    7.38
  13 -15  -3   11.24    7.47
 -13  15  -3    6.76    4.49
  13 -15   4   48.23   12.87
  13  15  -4   17.11    9.36
 -13 -15  -4   43.82   13.65
  13  15   4   20.17    8.95
  13  15   4   36.38   15.95
 -13 -15   4   33.82   14.41
 -13  15  -4   52.01   14.05
 -13 -15  -5   46.63   19.50
 -13  15  -5   -0.10    5.03
  13 -15   6   20.14    7.71
 -13  15   6   32.01   13.11
 -13 -15  -6   15.48    8.68
  13  15   6   12.81    8.82
  13  15   6    6.47    6.45
  13 -15  -6    3.91    5.65
 -13 -15  -7    4.01    6.13
  13  15   7   13.20    7.85
 -13  15   8   43.52   17.21
 -13 -15  -8   32.38   13.87
  13  16   0   45.81   13.33
 -13 -16   0    4.77    6.23
  13 -16   0    0.92    5.71
 -13  16   0    1.72    7.55
  13 -16   1   30.56   10.02
  13  16  -1   55.27   15.56
  13  16  -1   48.98   19.91
 -13 -16  -1   31.20   10.50
  13  16   1   33.42   10.67
 -13 -16   1   31.56   13.89
 -13 -16   1   21.27    9.03
  13 -16  -1   24.38   11.75
 -13  16  -1   30.63   10.43
 -13  16  -1   17.68    9.38
  13 -16   2   21.16    7.19
 -13  16   2   18.15    9.24
  13  16  -2   14.51    8.21
 -13 -16  -2   15.61    7.62
 -13 -16  -2   -0.13   11.63
  13  16   2   26.45    8.92
 -13 -16   2   14.26    8.52
 -13 -16   2    8.78    7.57
  13 -16  -2   15.99    8.76
 -13  16  -2   13.10    6.07
  13 -16   3  200.33   50.12
 -13  16   3  117.96   43.71
  13  16  -3  232.70   86.34
  13  16  -3  223.02   56.41
 -13 -16  -3   74.42   29.06
 -13 -16  -3  217.49   55.04
  13  16   3  258.03   65.02
 -13 -16   3  346.97  128.22
 -13 -16   3  179.70   46.17
 -13  16  -3  230.62   57.64
  13 -16   4    9.27    4.23
  13  16  -4   27.65   12.57
 -13 -16  -4    8.57    7.32
  13  16   4    6.80    6.18
  13  16   4   30.67   15.16
 -13 -16   4   42.71   17.53
 -13  16  -4    6.21    3.99
 -13  16   5   40.47   16.39
  13  16  -5   59.53   23.50
 -13 -16  -5   79.49   30.50
  13 -16   6   17.13    7.43
 -13  16   6   23.37   10.45
 -13 -16  -6   39.56   16.37
  13  16   6   26.52   12.21
 -13  16   7   20.12    9.45
 -13 -16  -7  265.87   96.98
  13  17   0    0.11    5.14
  13 -17   1    0.51   12.57
 -13  17   1    4.57    7.39
  13  17  -1   23.62    9.05
 -13 -17  -1   19.89    7.35
  13  17   1   17.41    6.98
 -13 -17   1    6.62    6.97
 -13 -17   1   24.08    8.96
  13 -17  -1   11.21    8.30
 -13  17  -1    3.24    6.05
  13 -17   2    6.36    4.86
  13  17  -2    7.99    7.93
 -13 -17  -2    7.97    6.22
 -13 -17  -2   39.36   19.99
  13  17   2   31.23    9.61
 -13 -17   2    6.93    6.92
 -13 -17   2    5.20    7.83
  13 -17  -2   29.92   13.05
 -13  17  -2    4.68    5.20
  13 -17   3   29.20    8.31
  13  17  -3   26.38   12.04
 -13 -17  -3   29.86   10.17
 -13 -17  -3    4.17    8.62
  13  17   3   34.87   10.93
 -13 -17   3   15.46    9.23
 -13 -17   3   35.17   12.74
 -13  17  -3   36.31   10.15
  13  17  -4   37.53   15.77
 -13 -17  -4   27.83   11.06
 -13 -17  -4   42.43   17.86
  13  17   4   40.89   12.94
 -13 -17   4   38.95   16.46
 -13  17  -4   36.93   10.23
  13  17  -5    8.39    7.29
 -13 -17  -5   13.45    9.04
  13 -17   6    5.10    5.64
 -13  17   6    1.24    5.09
 -13 -17  -6   30.01   12.99
  13  17   6    3.54    8.34
 -13  17   7    9.57    6.23
 -13  17   8    5.81    5.13
  13  17   8    5.04    7.99
  13  18   0   10.44    7.21
  13  18   0    9.99    5.98
 -13 -18   0    1.88    6.03
 -13  18   0    0.74    6.28
  13 -18   1    5.41    6.05
 -13  18   1   99.41   37.31
  13  18  -1   22.47    8.53
  13  18   1   16.99    6.81
 -13  18   2    9.94    7.86
  13  18  -2   16.90    7.95
 -13 -18  -2   32.28   14.19
 -13 -18  -2    6.10   13.71
  13  18   2    2.52    4.71
 -13 -18   2    3.98    6.58
 -13  18  -2   14.72    7.63
  13 -18   3  161.04   40.45
 -13  18   3  122.92   45.47
 -13 -18  -3   70.86   27.92
  13  18   3  180.86   46.10
 -13 -18   3  207.35   77.32
 -13  18  -3  167.38   42.07
 -13  18   4    4.73    6.26
  13  18  -4   15.56    9.06
 -13 -18  -4   15.60    9.56
  13  18   4   15.08    7.91
 -13  18  -4   23.64    7.36
 -13  18   5   26.08   11.46
  13  18  -5   46.11   19.10
 -13 -18  -5   29.19   13.35
  13  18   5   21.69   12.61
  13  18   6   27.55   13.20
  13  18   7    0.93    6.64
  13  19   0    3.97    5.41
  13  19   0   -1.21    5.30
 -13  19   0    3.27    6.07
  13 -19   1   -1.63    5.05
 -13  19   1    2.04    6.37
  13  19  -1    7.33    6.37
  13  19  -1    2.01    5.77
 -13 -19  -1    3.33    5.44
  13  19   1    0.87    3.67
  13  19   1    6.83    5.21
 -13  19  -1   -1.42    5.83
  13 -19   2    1.63    4.48
 -13  19   2    9.22    7.29
  13  19  -2    0.53    6.04
 -13 -19  -2   -3.96   11.59
  13  19   2    5.65    5.52
 -13  19  -2    0.52    6.56
 -13  19   3   16.38    8.48
  13  19  -3   -3.21    8.00
 -13 -19  -3   -2.08    7.36
 -13  19   4   24.51   11.53
  13  19  -4   62.30   24.51
 -13 -19  -4   29.87   13.73
 -13  19   5    0.05    5.01
  13  19  -5   -1.12    6.59
  13  19   5   -0.52    8.74
 -13  19   6   35.70   14.94
  13  19   6   31.87   14.76
  13  20   0   -0.98    4.82
 -13  20   0    1.67    6.03
 -13  20   1    2.25    6.92
  13  20  -1   11.59    7.18
  13  20   1    9.63    6.42
 -13  20  -1   -2.00    5.62
  13  20  -2    5.98    5.98
 -13  20   3  130.06   48.04
  13  20   4    5.35    9.28
 -13  20   5   -0.22    6.34
 -13  21   0    1.89    6.02
  13  21  -1   14.16    8.15
  13  21   1   29.50   12.73
 -13  21  -1    3.97    6.58
  13  21  -2   19.47   10.34
  14   0   0  338.22   84.44
 -14   0   0  354.91  152.28
  14   0   1   76.78   20.42
 -14   0   1   62.18   17.68
  14   0  -1   71.70   20.09
  14   0  -1  122.80   53.22
 -14   0  -1   63.95   17.30
  14   0   2   31.52   10.21
  14   0   2   33.82   12.86
 -14   0  -2   38.81   11.51
 -14   0  -2    8.45    5.50
 -14   0  -2   25.47    9.91
  14   0   3   36.92   11.53
 -14   0  -3   46.09   13.42
  14   0   4  108.40   28.35
 -14   0  -4   97.42   25.53
 -14   0   5 1795.90  659.61
  14   0  -5 1669.18  613.19
 -14   0  -5 1162.32  288.68
 -14   0  -7   51.48   17.98
  14   1   0   58.32   16.43
  14   1   0  144.00   47.63
 -14  -1   0   81.19   21.48
  14  -1   0   69.43   18.48
  14  -1   1    8.11    6.34
 -14   1   1   14.88    8.02
  14   1  -1   29.70   13.63
  14   1  -1   18.29    7.99
 -14  -1  -1   44.10   15.93
 -14  -1  -1   23.15    8.44
  14   1   1   32.84   10.24
  14   1   1   38.21   13.43
 -14  -1   1   18.98    8.97
 -14  -1   1   32.51   14.53
  14  -1  -1    7.62    8.01
 -14   1  -1   13.63    7.17
  14  -1   2  142.96   51.92
  14   1   2  130.64   33.43
 -14   1  -2  102.04   26.33
 -14   1  -2   80.95   29.55
  14  -1   3    3.11    5.68
  14  -1   3    6.36    3.73
  14   1  -3   20.92   12.29
 -14  -1  -3   10.99    6.29
 -14  -1  -3    3.40    4.06
  14   1   3    3.70    6.38
 -14   1  -3    1.56    5.26
 -14   1  -3    3.28    3.51
  14  -1   4   40.95   12.33
 -14  -1  -4   50.29   14.39
  14   1   4   35.92   11.52
 -14   1  -4   34.39   10.82
 -14   1  -4   75.55   25.00
  14  -1   5   37.89   12.33
  14   1  -5   43.01   16.14
 -14  -1  -5   35.20   12.54
 -14  -1   5   35.18   13.36
 -14   1  -5   37.60   13.14
 -14  -1  -7    6.14   11.58
 -14   1  -7    7.35   11.59
  14   2   0   90.09   23.58
  14   2   0   52.39   18.14
 -14  -2   0   68.44   18.67
 -14   2   0   65.64   18.14
  14  -2   1   82.70   21.71
 -14   2   1   54.84   15.75
  14   2  -1   96.56   25.83
 -14  -2  -1   58.27   15.97
 -14  -2   1  106.42   35.66
  14  -2  -1   88.82   24.63
 -14   2  -1   78.76   20.77
  14  -2   2   16.60    8.68
  14   2  -2   18.34    9.30
  14   2  -2   10.99    7.14
 -14  -2  -2    7.30    5.08
  14   2   2   19.00    7.65
  14   2   2   20.72    9.07
 -14  -2   2   30.70   13.89
 -14   2  -2   13.06    6.51
 -14   2  -2   21.80    9.93
  14  -2   3  102.19   26.46
  14   2  -3  131.90   56.98
 -14  -2  -3   77.43   20.64
 -14  -2  -3  259.53   94.24
  14   2   3   56.08   15.64
  14   2   3  174.40   63.53
 -14  -2   3  138.70   60.02
  14  -2   4   14.23    7.62
  14   2  -4   18.86   12.89
 -14  -2  -4   14.96    7.82
  14   2   4    9.22    6.83
 -14  -2   4   26.52   13.73
 -14   2  -4   19.48    7.91
  14  -2   5   13.92    7.98
  14   2  -5   41.63   15.97
  14   2  -5   42.74   21.24
 -14  -2  -5   16.65    9.39
 -14   2  -5    7.63    3.33
 -14  -2  -7   15.19   12.40
 -14   2  -7   28.00   13.06
  14   3   0  571.14  142.04
 -14  -3   0  611.34  151.94
  14  -3   0  707.53  175.90
 -14   3   0  662.03  164.50
  14  -3   1   21.33    8.23
 -14   3   1   16.80    8.98
  14   3  -1   41.71   14.34
 -14  -3  -1   54.15   15.09
 -14  -3   1   39.19   12.46
 -14  -3   1   12.94    7.05
  14  -3  -1   13.86    9.57
 -14   3  -1   37.70   11.41
  14  -3   2   90.81   23.73
  14   3  -2   50.86   17.89
 -14  -3  -2   68.46   18.32
 -14  -3  -2   70.57   26.23
  14   3   2   63.67   17.42
 -14  -3   2   24.04   12.07
 -14   3  -2   83.14   21.76
  14  -3   3    3.78    5.37
  14  -3   3   26.46    9.11
  14   3  -3    9.92    7.01
  14   3  -3    2.20    5.38
 -14  -3  -3   45.28   17.20
 -14  -3  -3   12.82    6.76
  14   3   3   13.64    7.29
  14   3   3   11.12    6.15
 -14  -3   3    3.69    5.86
 -14  -3   3   19.83    9.90
 -14   3  -3   23.04   10.72
  14  -3   4    7.85    6.04
  14  -3   4    9.62   12.37
  14   3  -4    5.02    5.95
 -14  -3  -4    5.38    6.46
  14   3   4   10.84    6.74
 -14  -3   4   27.35   10.89
 -14  -3   4   11.03    7.09
 -14  -3   4    5.58    6.18
 -14   3  -4    8.81    5.99
  14  -3   5   16.81    8.19
  14   3  -5   48.37   18.29
 -14  -3  -5   15.93   10.21
 -14  -3   5   20.34    8.35
 -14  -3   5   35.87   18.56
 -14  -3   5    4.98    6.83
 -14   3  -5   30.38   17.45
 -14   3  -5   19.02    9.67
  14   3  -6  398.58  171.64
  14   3  -7   11.46   12.21
 -14  -3  -7   17.30   12.99
 -14   3  -7    4.62   10.65
  14   3 -11    9.12    8.86
  14   3 -12   21.97   12.72
  14   4   0    6.62    6.82
 -14  -4   0    4.06    6.66
 -14   4   0    1.51    7.84
  14  -4   1   35.01   12.94
  14   4  -1   18.59   10.87
  14   4   1    2.12    6.06
 -14  -4   1    3.21    8.08
  14  -4   2   -0.70    6.75
  14   4  -2    0.80   10.37
 -14  -4  -2    1.98    6.28
 -14  -4  -2    5.07    6.89
  14   4   2   -0.89    6.25
 -14   4  -2    3.70    5.74
  14  -4   3   15.89   10.47
  14   4  -3   34.93   13.09
 -14  -4  -3    5.76    6.43
  14   4   3   15.02    7.76
  14   4   3   25.72   10.71
 -14  -4   3   16.71    8.71
 -14  -4   3   12.13    8.25
 -14   4  -3    6.56    5.35
  14   4  -4   -0.11    3.31
 -14  -4  -4    0.05    6.77
 -14  -4  -4    0.87    5.15
 -14  -4   4    8.53    7.64
 -14  -4   4    9.52    5.33
 -14  -4   4   43.19   19.39
 -14   4  -4  100.67   43.62
  14   4  -5   68.60   25.73
 -14  -4  -5   48.74   16.09
 -14  -4   5   53.38   20.21
 -14  -4   5   97.63   42.75
 -14  -4   5   94.39   32.23
 -14   4  -5   66.30   29.65
 -14   4  -5   37.93   12.34
 -14  -4   6    6.62    7.21
  14  -4  -6    9.39    4.79
 -14   4  -6   42.09   20.98
  14   4  -7   18.80   14.77
  14   4  -7   26.29   11.13
 -14  -4  -7    2.48   12.40
 -14  -4   7   13.50   12.69
 -14  -4   7    1.23    6.76
 -14   4  -7    7.50   10.84
 -14   4  -7   36.32   18.34
  14  -4   8    4.22    2.19
  14   4  -8   -7.90    8.38
 -14  -4   8   -0.15    8.35
  14   4  -9   56.78   21.50
  14   4  -9    3.25    7.98
 -14   4  -9    6.94    2.90
  14   4 -10    6.55   10.14
  14   4 -11   13.82    9.35
 -14  -5   0  292.25   73.22
  14  -5   0  345.13   86.36
 -14   5   0  364.82   91.09
  14   5  -1    9.49    9.95
  14   5   1    1.66    6.39
 -14  -5   1    8.70    8.80
 -14   5  -1   29.01    9.63
 -14   5  -1   15.48    6.46
  14  -5   2  715.25  177.51
  14   5  -2  519.07  129.71
 -14  -5  -2  637.61  158.51
  14   5   2  560.19  139.39
  14   5   2  537.97  195.26
 -14  -5   2  513.43  128.10
 -14   5  -2  763.97  189.61
  14  -5   3  144.34   36.97
 -14  -5  -3  116.12   30.10
 -14  -5  -3  202.98   73.98
  14   5   3  141.58   36.31
 -14   5  -3  116.00   29.71
  14  -5   4  226.25   56.81
  14   5  -4  255.04  109.98
  14   5  -4  401.11  131.67
  14   5  -4  514.00  188.80
 -14  -5  -4  271.40   98.72
 -14  -5  -4  278.20   69.95
  14   5   4  386.83  140.43
 -14  -5   4  574.02  188.23
 -14  -5   4  424.38  156.09
 -14  -5   4  294.55  126.72
 -14   5  -4  697.74  299.39
  14  -5   5  225.33   56.84
  14   5  -5  332.57  122.34
 -14  -5  -5  291.10   73.54
 -14  -5   5  519.77  170.72
 -14  -5   5  278.31  102.43
 -14  -5   5  297.20  127.87
 -14   5  -5  151.03   65.26
 -14   5  -5  269.79   67.93
  14  -5   6  524.83  225.67
 -14   5   6  993.33  364.71
  14   5  -6 1005.08  328.89
 -14  -5   6 1151.04  376.69
  14  -5  -6  863.27  317.02
 -14   5  -6  915.69  392.82
  14  -5   7    9.60   16.84
  14   5  -7   50.81   23.40
  14   5  -7   62.19   21.81
  14   5  -7   86.14   31.30
 -14  -5  -7    5.27   13.16
 -14  -5   7   84.98   37.78
 -14   5  -7    9.09   11.00
 -14   5  -7   75.88   34.73
  14  -5   8   13.47   12.90
  14   5  -8   43.84   15.97
  14   5  -8   20.64   12.87
  14   5  -8   30.65   14.34
 -14  -5   8   27.32   14.91
 -14  -5   8   20.60    9.58
 -14  -5   8   29.69   14.39
  14  -5   9   30.80   10.47
  14   5  -9   23.45   14.57
  14   5  -9   40.56   16.02
  14   5  -9   54.34   19.28
 -14  -5   9   42.22   21.32
 -14   5  -9   35.02   17.79
  14   5 -10    7.24    8.72
  14   5 -10   38.95   14.98
 -14  -5  10    1.81    8.97
 -14  -5  10   25.08   14.33
 -14   5 -10   20.80    7.25
  14   5 -11    0.11    7.36
  14   5 -11   12.38    9.09
 -14   5 -11   11.57    4.41
  14   5 -12  107.89   37.57
  14   6   0    0.70    6.10
 -14  -6   0    7.98    7.05
  14  -6   0   11.12    9.42
  14  -6   1   11.35    5.95
  14   6  -1   11.13    9.65
 -14  -6  -1   -0.23    6.47
  14   6   1    6.77    7.14
 -14  -6   1    0.68    8.11
 -14   6  -1   -0.67    5.67
  14  -6   2   59.14   16.28
  14   6  -2   37.16   14.65
 -14  -6  -2   48.04   14.17
  14   6   2   48.99   14.42
  14   6   2   35.94   15.13
 -14  -6   2   44.02   14.93
 -14   6  -2   65.89   17.57
 -14  -6  -3    5.24    6.69
  14   6   3   14.48    7.32
 -14  -6   3    6.14    5.56
 -14   6  -3   26.09    8.85
  14  -6   4    5.31    6.24
  14   6  -4   13.45    6.79
 -14  -6  -4    5.88    8.19
 -14  -6  -4   19.23   10.19
  14   6   4   12.65    7.47
 -14  -6   4    9.00    5.68
  14  -6   5   21.17    9.35
  14   6  -5   18.29   13.36
  14   6  -5   19.51    9.27
 -14  -6  -5    8.71    9.96
 -14  -6  -5   17.77    9.65
 -14  -6   5   20.98    9.21
 -14  -6   5   18.64   10.09
 -14   6  -5    5.92    8.18
  14  -6   6   54.58   25.12
 -14   6   6   27.98   11.29
  14   6  -6   17.71   12.03
  14   6  -6   25.98   10.83
  14   6   6   10.96    9.90
 -14  -6   6   18.35    9.63
 -14  -6   6   17.52   11.88
 -14  -6   6   13.74    9.08
  14  -6  -6   24.82   10.38
 -14   6  -6   42.69   19.46
  14  -6   7   62.48   28.33
  14   6  -7   31.91   16.06
  14   6  -7   50.73   19.49
 -14  -6  -7   12.34   14.08
 -14  -6   7   27.95   14.32
 -14  -6   7   41.65   19.89
 -14  -6   7   48.50   17.99
 -14   6  -7   10.67   11.30
 -14   6  -7  124.53   54.10
  14  -6   8    8.56   12.54
  14   6  -8   14.95    9.64
  14   6  -8   28.48   11.62
 -14  -6   8   20.19   12.36
 -14  -6   8   25.26   10.77
 -14   6  -8    3.96    7.91
  14  -6   9   64.91   30.52
  14   6  -9   56.83   25.65
  14   6  -9   37.82   15.84
  14   6  -9   29.99   11.95
 -14  -6   9   30.47   17.36
 -14  -6   9   38.31   14.41
 -14   6  -9   61.19   28.17
  14  -6  10    7.77    3.38
  14   6 -10   13.26    9.43
  14   6 -10    2.27    8.08
  14   6 -10    5.61    5.28
 -14  -6  10   15.59   13.12
 -14  -6  10    3.40    5.73
  14  -6  11    7.57    3.53
  14   6 -11    6.52    5.90
 -14  -6  11    2.51    9.89
 -14   6 -11   -3.25    8.29
 -14   6 -11    2.83    2.42
  14   6 -12   -0.06    6.91
  14   6 -12    0.16    4.88
 -14   6 -12    0.83    2.15
  14   6 -13   -6.75    9.28
 -14   6 -13    0.39    2.22
  14   7   0  198.48   50.25
  14  -7   0  255.61   64.39
  14  -7   0  211.62   76.90
 -14   7   0  216.34   54.78
  14  -7   1   53.69   14.91
  14  -7   1   40.57   15.51
 -14  -7  -1   26.81   10.03
  14   7   1   40.13   12.34
 -14  -7   1   41.14   13.64
 -14   7  -1   41.69   12.43
 -14   7  -1   60.27   22.35
  14  -7   2    8.46    6.65
  14   7  -2    0.76    8.49
 -14  -7  -2    3.70    6.63
  14   7   2    9.86    7.22
  14   7   2    7.93    7.99
 -14  -7   2    2.71    8.56
  14   7  -3   39.34   15.52
  14   7  -3  143.65   49.98
 -14  -7  -3   47.48   14.34
  14   7   3   62.11   24.00
 -14  -7   3   52.78   20.57
 -14   7  -3   40.48   12.00
  14   7  -4   55.89   22.62
  14   7   4   75.72   28.65
 -14  -7   4   93.75   35.15
 -14  -7   4   73.46   27.88
  14  -7   5   44.26   21.41
  14  -7   5   20.07    9.12
  14   7  -5   31.30   15.54
 -14  -7  -5   16.23   11.13
  14   7   5   16.55    8.77
 -14  -7   5   21.32    9.81
 -14  -7   5   27.76   15.17
 -14   7  -5   12.43    8.20
  14  -7   6   62.07   28.25
 -14   7   6   80.27   30.23
  14   7  -6  100.67   44.73
  14   7   6   36.86   13.40
 -14  -7   6   51.62   23.47
 -14  -7   6   82.13   29.87
 -14  -7   6  213.57   70.70
 -14   7  -6   54.96   24.66
  14  -7   7   23.94   13.12
  14   7  -7   20.21    9.12
  14   7  -7   15.57   11.58
 -14  -7  -7    8.31   13.35
 -14  -7   7   13.87    9.06
 -14  -7   7   23.75   10.97
  14  -7  -7   19.80    8.84
 -14   7  -7    8.49   10.30
 -14   7  -7   25.41   12.63
  14  -7   8    3.11    7.76
  14   7  -8    4.42    7.53
  14   7  -8    5.78    8.15
  14   7  -8    2.96    4.98
 -14  -7   8   17.97   10.32
 -14  -7   8   14.47    8.07
 -14  -7   8   10.56   10.11
 -14   7  -8   27.07   13.78
  14   7  -9   12.96    8.78
  14   7  -9    7.43    6.12
 -14  -7   9    9.49    7.73
 -14  -7   9    7.79    6.88
 -14   7  -9   10.80    8.30
  14   7 -10   42.56   15.61
 -14  -7  10   42.56   21.97
 -14  -7  10   40.45   15.47
  14   7 -11    8.28    8.15
  14   7 -11    6.62    5.60
 -14  -7  11    1.08    5.72
 -14   7 -11    5.28   10.34
  14   7 -12    2.02    7.81
  14   7 -12   10.25    6.31
 -14  -7  12    2.56    5.81
 -14   7 -12    6.21   10.54
  14   7 -13   -1.45    5.25
  14   8   0   11.35    7.84
  14  -8   0    6.98    4.82
 -14   8   0    6.99    7.92
  14  -8   1   28.74    9.89
  14  -8   1   43.43   16.66
  14   8  -1   51.77   16.10
  14   8  -1  106.45   38.44
 -14  -8  -1   31.94   11.22
  14   8   1   36.66   11.92
 -14  -8   1   49.37   15.55
 -14   8  -1   30.45   10.21
  14  -8   2  194.45   49.05
  14   8  -2  158.62   40.77
  14   8  -2  133.52   46.87
 -14  -8  -2  206.78   52.30
  14   8   2  175.21   44.49
  14   8   2  148.38   54.57
 -14  -8   2  127.52   33.55
 -14   8  -2  239.04   60.24
  14  -8   3  736.68  182.93
  14   8  -3 1028.59  377.72
  14   8  -3 1039.07  342.48
 -14  -8  -3  777.11  193.18
 -14  -8   3 1128.00  414.36
 -14  -8   3  996.44  328.20
 -14   8  -3  758.56  188.34
  14  -8   4    0.78    5.61
  14   8  -4    2.66    5.84
 -14  -8  -4    8.02    8.65
  14   8   4   11.03    7.88
 -14  -8   4    4.88    5.10
  14  -8   5  636.11  158.27
  14   8  -5  600.52  199.06
 -14  -8  -5  633.00  158.16
 -14  -8  -5  707.65  256.77
  14   8   5  639.11  231.89
 -14  -8   5  730.57  268.40
 -14   8  -5  698.66  173.94
  14  -8   6   21.81   13.25
 -14   8   6   41.10   15.98
  14   8  -6   34.27   15.38
  14   8  -6   50.76   24.82
  14   8   6   21.09   10.73
 -14  -8   6   34.11   16.27
 -14  -8   6    8.59    9.68
  14  -8  -6   17.61    8.18
  14  -8   7  112.95   49.47
  14   8  -7   65.49   29.56
 -14  -8  -7   10.25   12.10
 -14  -8   7  160.00   53.43
 -14  -8   7   88.97   32.31
  14  -8  -7   75.44   28.41
 -14   8  -7    8.29    9.55
  14  -8   8   12.05    9.17
  14   8  -8    0.42    5.05
 -14  -8   8   15.68    9.67
 -14  -8   8    3.02    6.72
 -14   8  -8    9.70    6.99
  14  -8   9  146.30   63.62
  14   8  -9  172.21   74.70
  14   8  -9  113.28   38.06
 -14  -8   9   92.21   40.83
  14   8 -10   26.45   13.63
 -14  -8  10   40.42   19.40
 -14  -8  10   11.90    7.83
 -14   8 -10   29.36   14.54
  14   8 -11   58.38   26.20
  14   8 -11   45.68   16.80
 -14  -8  11   52.33   19.15
 -14   8 -11   47.52   22.53
  14   8 -12    3.84    8.52
  14   8 -12    7.00    5.98
 -14   8 -12    9.34   11.51
  14   9   0    9.73   12.23
  14   9   0    7.70    6.92
 -14  -9   0   10.57    7.32
  14  -9   0   -2.57    9.51
  14  -9   0    6.53    5.42
 -14   9   0    4.20    8.60
 -14   9   0    7.81    5.99
  14  -9   1    8.15    6.59
  14   9  -1   28.49    9.97
 -14  -9  -1    7.88    7.56
  14   9   1    5.96    7.14
 -14  -9   1   11.97   12.56
 -14   9  -1   10.22    6.03
 -14  -9  -2   14.05    8.24
 -14  -9  -2   17.95   13.49
  14   9   2   24.10    9.58
  14   9   2   17.44   10.84
 -14  -9   2   16.66   10.09
  14  -9   3    6.86    6.56
 -14  -9  -3    9.59    8.35
 -14  -9  -3   11.59    8.79
 -14  -9   3   13.35    8.07
  14   9  -4   68.37   26.39
  14   9  -4   33.83   16.28
 -14  -9  -4   55.46   16.75
  14   9   4   18.92    9.51
  14  -9   5   16.09    9.34
  14   9  -5   18.30    9.75
 -14  -9  -5    7.79   12.01
 -14  -9  -5   23.98   11.03
  14   9   5   16.66    8.25
 -14  -9   5   13.54    8.05
 -14  -9   5   21.91   13.17
 -14  -9  -6    4.90    6.58
  14   9   6   29.39   11.45
 -14   9   7    0.59    4.12
  14   9  -7    7.45   10.02
 -14  -9  -7    5.50   11.12
  14  -9  -7    4.74    4.38
 -14   9  -7    0.13    6.43
 -14   9  -7    2.72    8.25
  14   9  -8   14.58    9.84
 -14  -9   8    4.74    6.99
 -14   9  -8    8.76    7.26
  14   9  -9    3.29    4.84
 -14  -9   9    8.01    8.26
 -14  -9   9    5.74    6.58
  14   9 -10    1.76    6.83
  14   9 -10    0.55    4.99
 -14  -9  10    5.41    6.01
 -14   9 -10    0.74    6.77
  14   9 -11   -4.63    5.86
  14   9 -11   -0.35    4.64
 -14  -9  11   -0.23    6.35
 -14   9 -11    2.10    6.55
  14   9 -12    7.13    8.00
  14   9 -12    1.17    4.59
 -14  -9  12    2.18    6.52
  14   9 -13    4.78    5.72
  14  10   0  114.31   29.77
  14  10   0   35.54   17.62
 -14 -10   0   81.87   22.05
 -14  10   0   65.74   24.82
  14 -10   1   30.12   13.28
 -14  10   1   40.70   16.13
 -14 -10  -1   57.18   16.28
  14  10   1   78.30   21.03
 -14  10  -1   96.97   35.77
  14  10  -2   13.37   12.38
  14  10  -2    5.89    9.19
 -14 -10  -2   21.89   15.63
 -14 -10  -2    8.82    7.38
  14  10   2    7.65   10.25
  14  10   2   18.94   13.44
 -14 -10   2    5.89    7.60
 -14 -10   2   14.93    9.62
 -14  10  -2   25.33    9.69
  14 -10   3   69.94   19.08
  14  10  -3  163.92   61.07
 -14 -10  -3  180.74   66.30
 -14 -10  -3   50.78   15.49
 -14 -10  -3  214.50   72.86
  14  10   3   69.73   27.30
 -14 -10   3  132.82   46.14
 -14  10  -3   62.63   17.05
  14  10  -4    6.47    6.82
 -14 -10  -4   11.72    8.93
 -14 -10  -4    7.02    8.12
 -14 -10   4    5.26    5.44
 -14  10  -4    8.84    6.80
  14 -10   5  482.90  120.38
  14  10  -5  435.33  160.23
 -14 -10  -5  554.90  139.05
  14  10   5  662.37  240.19
 -14 -10   5  446.16  164.15
 -14 -10  -6   82.00   30.67
  14  10   6   65.51   18.68
  14  10   6   77.62   29.08
  14 -10  -6  230.16   85.05
 -14 -10  -7    0.59    9.75
 -14 -10   7   10.03    9.44
  14 -10  -7   33.87   13.57
  14 -10   8   21.68   11.99
  14  10  -8   26.63   15.18
 -14 -10   8   29.20   14.66
 -14 -10   9  224.98   97.47
 -14  10  -9  119.92   52.24
 -14 -10  10    4.81    6.55
 -14  10 -10   18.77   10.05
  14  10 -11    2.06    4.90
 -14 -10  11    5.88    6.27
 -14  10 -11   13.43    8.90
  14  10 -12   -1.77    4.68
  14  11   0   13.21    8.43
 -14 -11   0   12.35    8.82
  14 -11   0   11.74   12.18
  14 -11   0   23.67   11.40
  14 -11   1   20.44    8.23
  14 -11   1   30.46   13.67
 -14  11   1   30.39   13.21
  14  11  -1   11.76    7.54
 -14 -11  -1   16.36    8.99
 -14 -11  -1   26.69   14.86
  14  11   1   34.65   12.10
 -14 -11   1   22.39    9.21
 -14 -11   1   31.89   16.63
  14 -11  -1   40.51   15.98
 -14  11  -1   57.63   16.59
  14  11  -2    2.51    9.46
 -14 -11  -2    5.10    7.68
 -14 -11  -2    4.71   12.81
  14  11   2   22.87   13.73
 -14  11  -2   16.46    7.35
  14 -11   3    8.88    6.70
  14  11  -3    3.98    7.68
  14  11  -3   13.63    8.55
 -14 -11  -3    7.14    7.49
 -14 -11  -3   23.90   13.57
  14  11   3   14.38    9.47
 -14  11  -3    8.04    7.08
  14  11  -4   32.97   13.85
 -14 -11  -4   34.82   14.38
 -14 -11  -4   53.15   20.82
  14  11   4    8.28    8.01
 -14  11  -4   14.03    6.88
  14 -11   5   -2.55    5.50
  14  11  -5    1.04    6.30
 -14 -11  -5    2.65    9.22
 -14 -11  -5    5.35    6.80
 -14 -11  -5    3.26    9.57
  14  11   5   16.46   13.70
 -14 -11   5    0.03    5.49
 -14  11   6   36.10   14.36
 -14 -11  -6   13.95    7.93
  14  11   6   27.67   10.39
  14  11   6   40.32   16.08
  14  11   6   24.40   13.05
  14 -11  -6    6.58    6.05
 -14  11   7   27.52   11.62
 -14 -11  -7    2.16    9.39
  14 -11  -7   34.39   13.90
 -14  11  -7    4.72    7.46
 -14 -11   8   27.96   15.57
  14 -11  -8   15.18    7.27
  14  11  -9    2.45    8.85
 -14  11  -9    2.67    7.37
  14  11 -10   -4.68    7.04
 -14  11 -10    2.36    6.04
 -14 -11  11   -0.18    6.20
 -14  11 -11    1.48    6.16
  14  11 -12    1.45    4.72
  14  12   0  126.60   32.82
 -14 -12   0  105.72   28.26
  14 -12   0   88.42   33.06
 -14  12   0   58.30   23.10
  14 -12   1   29.76   12.97
 -14  12   1   42.02   16.68
  14  12  -1   51.37   15.13
 -14 -12  -1   69.39   19.48
 -14 -12   1   78.23   21.52
 -14  12  -1   59.29   17.18
  14 -12   2   67.49   18.01
  14  12  -2   31.45   14.17
 -14 -12  -2   55.58   24.09
  14  12   2   80.66   21.70
  14 -12  -2   46.54   18.34
 -14  12  -2   75.82   20.12
  14 -12   3  181.89   45.81
  14  12  -3  143.65   37.36
  14  12  -3  230.74   85.59
 -14 -12  -3  226.71   76.56
 -14 -12  -3  173.94   44.72
  14  12   3  302.97  110.44
  14  12   3  270.13   91.13
 -14 -12   3  286.38  105.88
 -14 -12  -4    2.89    5.73
  14  12   4    1.91    7.94
  14  12   4    2.85    7.34
 -14  12  -4    1.61    4.75
  14 -12   5   87.70   22.91
  14  12  -5  142.04   53.15
 -14 -12  -5   58.16   18.86
 -14 -12  -5  177.28   64.92
 -14 -12  -5  181.78   61.63
  14  12   5  137.20   50.55
 -14  12   6    8.26    5.91
 -14 -12  -6   10.73    7.50
  14  12   6   24.15   14.10
  14  12   6   11.91    7.83
 -14  12   7   17.52    8.34
 -14 -12  -7    0.32    8.85
 -14 -12  -7   50.93   20.03
 -14 -12  -7   12.98   10.97
  14  12   7   42.33   18.15
 -14  12  -7    4.78    6.84
 -14  12   8    7.57    5.39
  14 -12  -8   13.35    7.30
  14  12  -9  109.90   48.98
 -14 -13   0 1300.56  322.90
  14 -13   0 1118.44  277.50
 -14  13   0 1117.17  405.03
  14 -13   1  153.55   39.51
 -14  13   1  227.28   82.99
  14  13  -1  104.85   27.64
 -14 -13  -1  140.89   36.29
  14  13   1  159.20   40.65
 -14 -13   1   74.50   29.12
 -14 -13   1  127.99   33.45
  14 -13  -1  118.31   43.71
 -14  13  -1   93.19   24.79
  14 -13   2   12.72    6.53
  14  13  -2   14.91    8.04
  14  13  -2    3.55    8.51
 -14 -13  -2   12.44   11.82
 -14 -13   2   14.46    8.80
 -14 -13   2   16.20    9.59
  14 -13  -2   37.07   14.94
 -14  13  -2   26.13    9.57
  14 -13   3   11.58    5.61
  14  13  -3   12.64   10.07
  14  13   3   12.33    6.75
  14  13   3    6.07    7.04
 -14 -13   3   19.38    9.66
 -14  13  -3   18.43    6.66
  14  13  -4   40.16   16.43
  14  13   4  121.42   31.48
  14  13   4   57.64   22.71
 -14 -13   4   51.84   20.47
 -14  13  -4   92.87   23.95
  14 -13   5    4.28    4.86
  14  13  -5    7.72    6.71
 -14 -13  -5   31.13   15.27
  14  13   5   12.58    8.03
  14  13   5   25.35   13.70
 -14 -13   5    1.48    5.73
 -14  13   6  676.77  248.83
  14  13   6  396.96   99.43
 -14 -13  -7   64.59   24.51
 -14 -13  -7    9.60    9.27
 -14 -13  -7   53.04   20.41
  14  13   7   51.25   19.99
 -14  13  -7   13.04    7.31
 -14  13   8   71.51   27.34
  14  13   9    5.21    9.39
 -14 -14   0   28.21   10.83
 -14  14   0   38.73   15.92
  14 -14   1    2.91    6.72
 -14  14   1    4.98    7.19
  14  14  -1    0.62    6.54
  14  14  -1    4.50    5.15
 -14 -14  -1   -0.23    5.76
  14  14   1    1.38    5.61
 -14 -14   1    5.14    6.04
 -14 -14   1   11.38    8.32
 -14  14  -1   -0.07    6.96
 -14  14  -1   -1.45    8.03
  14 -14   2   -0.33    5.34
 -14  14   2    6.15    6.32
  14  14  -2   -0.76    8.28
  14  14  -2    1.68    5.18
 -14 -14  -2   20.80    9.85
 -14 -14  -2    3.12   10.87
  14  14   2    8.46    6.52
 -14 -14   2   12.13    7.61
 -14 -14   2    3.79    8.00
  14 -14  -2    0.52    5.54
  14 -14   3    9.01    5.14
  14  14  -3   -1.55    8.82
  14  14  -3   15.34    8.19
  14  14   3    8.25    6.21
  14  14   3   17.72    9.55
 -14 -14   3   17.04    8.91
 -14 -14   3   -1.63    7.88
 -14  14  -3   10.37    5.46
  14  14  -4   14.15    8.06
  14  14   4   10.16    8.42
  14  14   4    3.89    5.99
 -14 -14   4    9.93    7.05
 -14  14  -4    2.89    4.51
  14 -14   5   24.65    7.80
 -14  14   5    6.33    5.63
  14  14  -5   11.57    7.79
  14  14   5   18.73    9.40
 -14 -14   5    8.31    6.70
 -14  14   6   -0.60    4.92
  14  14   6    5.92    6.76
  14  14   6    5.96    5.83
  14 -14  -6    9.21    6.73
 -14  14   7    0.18    4.33
 -14 -14  -7    5.06    6.05
  14  14   7    7.77   10.70
  14  14   7    3.48    6.26
 -14  14   8    3.96    4.85
 -14 -14  -8    2.47    6.78
  14  15   0   30.72   10.34
 -14 -15   0   39.09   12.71
  14 -15   0   29.10   12.83
  14 -15   1   17.12    8.02
 -14  15   1   17.23    9.33
  14  15  -1   15.91    8.49
 -14 -15  -1   23.13    8.66
  14  15   1   19.00    8.00
 -14 -15   1   22.60    9.58
 -14 -15   1   12.31    8.43
 -14  15  -1    6.62    6.81
 -14  15  -1    6.52    8.02
  14 -15   2   12.96    5.79
 -14  15   2   18.36    9.10
  14  15  -2   13.49    8.13
  14  15  -2   59.87   23.41
 -14 -15  -2    6.28   10.89
  14  15   2    2.18    5.61
 -14 -15   2   47.89   19.45
 -14 -15   2   13.19    8.53
  14 -15  -2    7.39    6.12
 -14  15  -2   10.19    5.72
  14 -15   3    3.37    4.36
  14  15  -3   -3.63    7.05
  14  15  -3    3.12    5.94
 -14 -15  -3    5.51    7.08
  14  15   3    0.92    5.69
 -14 -15   3    5.60    6.06
 -14 -15   3    1.39    7.84
  14 -15  -3    4.43    6.20
 -14  15  -3    6.90    4.85
  14  15  -4   -0.17    5.64
  14  15   4  100.15   37.99
  14  15   4    1.68    5.84
 -14 -15   4   10.78    7.46
 -14  15  -4    5.01    4.19
  14 -15   5    2.81    4.12
 -14  15   5   -1.70    4.68
  14  15  -5    3.82    5.79
 -14 -15  -5    3.84    7.59
 -14 -15   5   -3.90    5.96
 -14  15  -5    3.59    4.74
 -14  15   6   40.71   16.33
 -14 -15  -6   58.90   22.90
  14  15   6   77.62   21.71
  14  15   6   44.62   17.92
  14 -15  -6   70.63   27.37
 -14  15   7   10.22    6.26
 -14 -15  -7   15.09    8.51
 -14  15   8    7.87    5.84
  14  15   8   10.95    7.82
  14  16   0    0.84    5.71
 -14 -16   0    4.19    5.93
 -14 -16   0    6.13    6.10
  14 -16   0    3.42    6.59
  14 -16   1   45.63   13.26
  14  16  -1   66.05   18.10
  14  16  -1   89.82   34.10
  14  16   1   48.44   13.73
 -14 -16   1   59.31   16.98
  14 -16  -1   40.68   16.89
 -14  16  -1   37.05   11.70
 -14  16  -1   39.09   16.39
  14 -16   2    7.11    4.74
  14  16  -2    7.48    6.25
 -14 -16  -2    1.95   13.44
  14  16   2    6.21    5.52
 -14 -16   2    1.97    5.59
 -14 -16   2   -1.60    7.55
 -14  16  -2    2.68    4.91
  14 -16   3   32.85    9.52
 -14  16   3    6.37    7.21
  14  16  -3   31.84   13.72
  14  16  -3    3.00    7.22
 -14 -16  -3    3.33    8.42
  14  16   3   26.88    8.95
 -14 -16   3   23.82   11.07
 -14 -16   3   12.20   10.10
 -14  16  -3   20.44    6.75
  14 -16   4    6.21    4.31
  14  16  -4   11.02    7.42
 -14 -16  -4    5.99    8.24
  14  16   4   10.18    7.11
 -14 -16   4   13.77    8.40
 -14  16  -4    4.92    4.62
  14 -16   5   44.35   12.25
 -14  16   5   29.13   12.35
  14  16  -5    3.20    5.99
 -14 -16  -5   33.36   14.66
 -14 -16   5   29.04   13.32
 -14  16  -5   28.86    8.84
 -14  16   6    8.70    6.36
 -14 -16  -6    8.02    7.04
  14  16   6    1.82    7.89
  14  16   6    8.45    8.04
 -14  16   7   25.46   10.99
  14  16   7   11.23    8.05
 -14  16   8    4.38    4.85
  14  16   8    7.48    7.83
  14  17   0    6.45    5.50
 -14 -17   0   27.87   12.76
 -14 -17   0   12.89    7.63
  14 -17   1    3.09    5.95
  14  17  -1    6.76    6.09
  14  17  -1   17.43    7.85
  14  17   1   15.34    6.61
 -14 -17   1   11.31    7.78
 -14 -17   1   12.29    7.93
 -14  17  -1    2.99    7.04
 -14  17  -1   -0.17    6.83
 -14  17   2    9.61    7.42
  14  17  -2   17.07    8.52
  14  17  -2   59.43   23.32
 -14 -17  -2    4.80   13.81
  14  17   2   12.73    6.27
 -14 -17   2   14.56    9.55
 -14 -17   2   10.72    8.65
 -14  17  -2    5.30   11.88
 -14  17  -2   -0.76    5.27
 -14  17   3    2.11    5.54
  14  17  -3    8.91    7.27
 -14 -17  -3   -1.02    7.36
  14  17   3    5.91    5.93
 -14  17  -3    0.40    3.99
  14 -17   4   48.91   13.14
  14  17  -4   38.51   16.08
 -14 -17  -4   36.89   15.80
  14  17   4   37.77   11.96
  14 -17   5    4.24    3.92
 -14  17   5    0.09    5.13
  14  17  -5   -3.47    5.79
 -14 -17  -5    1.82    6.96
  14  17   5    0.40    8.47
 -14  17  -5    1.69    3.95
 -14  17   6   65.63   25.20
  14  17   6   32.27   15.14
 -14  17   7    7.59    5.83
  14  18   0    3.58    5.34
  14  18   0   13.28    6.59
 -14 -18   0   14.04    8.26
 -14  18   1   10.66    8.59
  14  18  -1   20.27    8.19
  14  18   1   15.45    7.04
 -14  18  -1    4.49    6.12
 -14  18   2   79.37   30.34
  14  18  -2   31.77   13.49
 -14 -18  -2    9.24    6.49
 -14 -18  -2   24.04   15.37
  14 -18   3   69.39   18.22
  14  18  -3   52.05   20.87
  14  18  -3   32.06   12.08
 -14 -18  -3   34.93   15.09
  14  18   3   47.61   13.74
 -14  18   4    0.37    6.14
  14  18  -4    0.01    5.83
 -14 -18  -4    4.45    7.55
  14  18  -5   65.68   25.70
 -14  18   6    0.38    6.03
  14  19   0   19.88    9.43
  14  19   0   -0.70    5.52
 -14  19   0    7.23    7.22
  14 -19   1   -3.41    6.51
 -14  19   1    2.79    6.96
  14  19  -1   -0.33    5.16
  14  19  -1    7.31    6.99
  14 -19   2    3.03    5.24
 -14  19   2    9.63    8.24
  14  19  -2   -1.41    7.56
 -14 -19  -2    0.01   12.49
 -14  19   3    3.76    6.04
  14  19  -3   -0.66    5.30
 -14  19   4    4.09    6.14
  14  19  -4    0.79    6.14
  14  19   4    3.31    8.56
 -14  19   5   -3.69    5.62
  14  19  -5    2.02    6.84
  14  19   5   -2.85    8.84
  14  20   0   14.05    7.79
 -14  20   0   21.22   10.61
 -14  20   1    7.54    7.35
  14  20  -1   16.73    8.56
 -14  20  -1    0.19    6.37
 -14  20   2    5.42    6.92
 -14  20  -2   -0.40   10.14
  15   0   0   27.61   10.77
 -15   0   0  123.15   52.97
  15   0   1  151.59   38.69
 -15   0   1  149.87   38.60
  15   0  -1  344.67  148.15
 -15   0  -1  129.37   33.23
  15   0   2   16.00    7.27
 -15   0  -2    3.01    5.93
 -15   0  -2  126.03   46.04
 -15   0  -2    7.84    5.26
  15   0   3  258.50   64.84
 -15   0  -3  455.36  149.07
  15   0   4   26.07    9.28
  15   0   5 1949.12  483.13
  15   0   7   69.79   20.86
 -15   0  -7  123.38   33.19
  15   1   0   -1.12    7.51
  15   1   0    4.09    5.00
 -15  -1   0   -0.33    6.94
  15  -1   0   -0.03    6.34
  15  -1   1    0.34    6.70
 -15   1   1    6.67    9.09
  15   1  -1   15.06    9.59
  15   1  -1    5.54    5.40
 -15  -1  -1   12.40    7.27
  15   1   1    8.59    6.90
  15   1   1   10.76    5.81
 -15  -1   1    9.52    8.82
 -15  -1   1    1.18    5.16
  15  -1  -1    7.55    8.02
 -15   1  -1    3.95    7.00
  15  -1   2   10.65    6.51
  15  -1   2   46.12   17.05
 -15  -1  -2   28.94    9.59
 -15  -1  -2   25.90   11.37
  15   1   2   13.51    6.91
 -15  -1   2   17.16    9.87
 -15   1  -2    5.73    5.85
 -15   1  -2   19.35    7.98
  15  -1   3    6.08    5.98
  15  -1   3    5.54    3.91
  15   1  -3   46.90   22.15
 -15  -1  -3    8.16    5.17
  15   1   3   10.46    6.89
  15   1   3    7.88    5.02
 -15   1  -3   10.46    6.32
 -15   1  -3    0.16    3.42
  15  -1   4  102.78   26.68
  15   1   4  107.11   27.88
  15  -1   5   24.43   10.33
 -15  -1  -5   10.17    8.73
  15   1   5   18.95    9.21
 -15  -1   5   24.38    9.55
  15  -1   7   -0.71    9.18
 -15  -1  -7    1.61   10.16
  15   1   7    2.12    9.42
 -15   1  -7    1.71    9.57
  15   2   0    1.29    6.33
  15   2   0   16.25    7.38
 -15  -2   0    2.74    6.53
 -15   2   0    0.19    7.51
  15  -2   1   17.21    7.55
 -15   2   1    4.19    8.36
  15   2  -1   36.01   13.44
  15   2  -1    5.77    5.38
 -15  -2  -1    6.49    6.62
  15   2   1   14.34    7.12
 -15  -2   1   30.81   12.10
  15  -2  -1    5.17    8.05
 -15   2  -1    7.35    6.68
  15  -2   2    5.85    6.96
  15  -2   2    6.15    6.44
  15   2  -2    4.50    5.66
  15   2  -2    4.06    5.53
 -15  -2  -2    4.18    5.87
  15   2   2    5.39    5.99
 -15  -2   2    0.67    4.76
 -15   2  -2   17.64    7.91
  15   2  -3   11.99    7.99
 -15  -2  -3    1.07    6.02
 -15  -2  -3   35.81   14.17
  15   2   3   10.99    6.90
  15   2   3   36.95   14.17
 -15  -2   3   44.43   20.52
 -15   2  -3    8.80    6.08
  15  -2   4   10.04    6.01
  15   2  -4   36.55   20.03
  15   2   4   37.42   11.93
 -15  -2   4   45.73   22.13
  15  -2   5  156.09   39.85
  15  -2   5  117.04   38.39
  15   2  -5  141.35   52.13
  15   2  -5   65.81   30.46
 -15  -2  -5  125.22   32.77
  15   2   5  128.68   33.56
 -15  -2   5  109.86   40.59
  15  -2   7   36.71   13.64
 -15  -2  -7   11.29   11.22
  15   2   7   23.55   11.90
 -15   2  -7   13.57   10.41
  15   3   0    1.76    7.06
 -15  -3   0    7.17    7.19
 -15   3   0    1.77    8.61
  15  -3   1    8.78    6.29
 -15   3   1   25.19   11.20
  15   3  -1   16.50   10.09
 -15  -3  -1   17.24    8.00
 -15  -3   1   12.33    8.43
 -15  -3   1    8.18    6.54
  15  -3  -1   24.78   12.74
  15  -3   2    5.17    6.20
  15   3  -2   12.52   11.04
  15   3  -2   14.99    7.45
  15   3   2    6.50    6.80
  15   3   2    4.49    6.09
 -15  -3   2   11.95    7.22
 -15  -3   2   54.71   24.38
 -15   3  -2    2.33    5.96
  15  -3   3   -1.31    5.92
  15   3  -3   19.05   10.46
  15   3  -3   12.67    6.79
 -15  -3  -3    4.46    5.70
  15   3   3   24.11   10.18
  15   3   3    9.07    6.67
 -15  -3   3    7.83    6.33
 -15   3  -3    5.43    5.67
  15  -3   4   80.16   37.44
  15   3  -4  101.25   44.22
 -15  -3  -4  135.36   34.85
 -15  -3  -4   53.26   20.24
  15   3   4  124.41   32.36
 -15  -3   4   56.96   25.44
 -15  -3   4   86.19   29.49
  15  -3   5   25.83    9.87
  15   3  -5   18.87    9.92
 -15  -3  -5   25.64   10.78
  15   3   5   22.99   10.44
 -15  -3   5    9.81    8.26
 -15  -3   5   20.53   13.42
 -15  -3   6   15.18   11.80
  15  -3  -6   14.69    5.84
  15  -3   7    7.42    9.22
  15   3  -7   10.01   10.51
 -15  -3  -7   -2.95   10.72
  15   3   7    3.76    9.51
 -15   3  -7   -2.27    9.40
  15   4   0   33.57   11.39
 -15  -4   0   36.62   12.29
 -15   4   0   50.96   15.41
  15   4  -1   27.87   12.34
 -15  -4  -1   44.21   13.35
 -15  -4   1    3.22    8.56
 -15   4  -1   16.96    7.55
  15   4  -2   10.62   11.32
  15   4   2    5.02    6.84
  15   4   2    2.97    6.03
 -15  -4   2    8.54    6.34
 -15   4  -2   21.69    8.24
  15  -4   3   19.55   12.68
  15   4  -3   22.08    9.53
 -15  -4  -3   14.75    7.91
 -15  -4  -3   23.72   10.30
  15   4   3   15.04    7.90
 -15  -4   3   33.57   13.04
 -15  -4   3    9.09    8.28
 -15   4  -3   11.47    6.88
  15   4  -4   15.48   10.24
  15   4  -4   19.59    8.89
 -15  -4  -4    5.42    7.30
  15   4   4    4.26    7.57
  15   4   4   26.16   11.22
 -15  -4   4   17.56    7.94
 -15  -4   4   17.16    9.51
 -15  -4   4   77.17   33.91
 -15   4  -4   90.43   39.34
 -15   4  -4   10.45    7.17
  15  -4   5   78.92   36.77
  15   4  -5   87.64   32.67
 -15  -4   5   79.14   29.51
 -15  -4   5   57.09   25.56
 -15   4  -5   56.17   25.31
 -15   4   6    5.74    3.74
 -15  -4   6    0.27    5.80
 -15  -4   6   -6.95   10.93
  15  -4  -6    3.73    3.05
 -15   4  -6    0.68   10.15
  15  -4   7    3.63    8.95
  15   4  -7    9.05    6.87
  15   4  -7    9.66   11.08
 -15  -4  -7   11.19   11.50
  15   4   7    7.07    9.66
 -15   4  -7    4.76    9.42
 -15   4  -7    5.68    8.18
  15  -4   8    3.07    1.71
  15   4  -8    4.34    7.60
 -15  -4   8   -1.71    8.27
  15   4  -9   -0.84    7.91
 -15   4  -9    3.16    1.84
  15   4 -10    5.70    8.90
 -15  -5   0   16.77    8.43
  15  -5   0    6.73    9.69
 -15   5   0   12.45    8.71
  15  -5   1   32.25   12.21
  15   5  -1   66.20   20.18
 -15  -5  -1   19.62    8.94
  15   5   1    9.81    7.73
 -15  -5   1   26.61   11.66
 -15   5  -1   29.67   10.07
  15  -5   2   35.92   11.48
 -15  -5  -2   66.23   18.45
 -15  -5  -2  220.14   80.67
  15   5   2   56.04   16.10
  15   5   2  166.92   61.26
 -15   5  -2   66.44   17.91
  15  -5   3    6.06    6.06
 -15  -5  -3   25.04    9.51
  15   5   3    6.47    7.07
  15   5   3   13.42    8.41
  15  -5   4 1458.38  625.75
  15   5  -4 1124.20  482.32
  15   5  -4 1422.67  465.16
  15   5  -4 1191.12  437.29
 -15  -5  -4 1691.07  419.31
 -15  -5  -4 2202.54  797.62
  15   5   4 1797.05  445.58
  15   5   4 1761.35  638.19
 -15  -5   4 1231.45  402.72
 -15  -5   4 1527.50  654.89
 -15   5  -4 1451.47  359.87
 -15   5  -4  904.40  387.98
  15  -5   5   16.93    7.98
  15   5  -5   10.91    6.15
 -15  -5  -5   29.19   11.93
  15   5   5   20.26    9.79
 -15  -5   5    6.51    5.05
 -15  -5   5   11.69    7.84
 -15   5   6  130.06   47.99
  15   5  -6  198.60   85.97
  15   5  -6  123.72   41.37
 -15  -5   6  208.27   89.93
 -15  -5   6  147.46   49.27
  15  -5  -6  133.63   49.41
 -15   5  -6  213.00   91.80
  15   5  -7   16.23    9.73
  15   5  -7    9.45    7.59
 -15  -5  -7    2.25   10.83
  15   5   7    4.95    9.39
 -15   5  -7    4.10    9.11
 -15   5  -7   60.75   28.20
  15  -5   8    2.36   12.13
  15   5  -8   13.32   10.26
  15   5  -8    8.80    5.97
 -15  -5   8   32.96   17.60
 -15  -5   8    8.27    6.60
  15  -5   9    3.43    2.16
  15   5  -9    2.13    7.52
  15   5  -9    2.37    5.61
 -15  -5   9    6.11    9.70
 -15   5  -9   22.03   12.56
  15   5 -10    5.60    8.29
  15   5 -10    9.40    8.86
 -15  -5  10   -4.88    8.52
 -15  -5  10   24.69   15.15
  15   5 -11   -2.43    6.80
 -15   5 -11    3.48    2.30
 -15  -6   0    5.97    6.99
  15  -6   0   10.10    8.96
 -15   6   0    9.90    8.60
  15  -6   1   17.94    8.25
  15   6  -1   15.68    9.83
  15   6   1    9.69    7.52
 -15  -6   1   15.17    9.78
 -15   6  -1   13.97    7.56
  15  -6   2    2.82    6.32
  15   6  -2    9.02   10.23
 -15  -6  -2   18.62    8.42
 -15  -6  -2   23.57   13.24
  15   6   2    9.79    7.38
  15   6   2   10.83    9.47
 -15  -6   2   -1.05    9.93
  15  -6   3    2.92    6.15
 -15  -6  -3   14.36    8.42
  15   6   3    3.03    6.76
 -15   6  -3    5.85    6.27
 -15  -6  -4    9.28    8.33
 -15  -6  -4   27.54   12.19
  15   6   4   14.33    9.03
  15   6   4   35.69   14.30
 -15  -6   4   22.35   10.00
 -15   6  -4   16.36    8.48
  15  -6   5   40.61   12.36
  15   6  -5   18.43   13.06
 -15  -6  -5   50.41   16.83
 -15  -6  -5   27.47   12.28
  15   6   5   44.33   14.96
 -15  -6   5  256.77   94.64
 -15  -6   5   57.16   25.64
 -15  -6   5   75.82   26.33
  15  -6   6    6.23    9.17
 -15   6   6    3.74    3.42
  15   6  -6    1.51    5.54
  15   6  -6   10.92   11.31
  15  -6  -6    4.22    4.62
 -15   6  -6   31.86   14.99
  15  -6   7   19.39   12.68
  15  -6   7    4.98    8.01
  15   6  -7   16.05   10.55
  15   6  -7   15.95    7.83
 -15  -6  -7    2.70   10.32
  15   6   7    3.93    8.69
 -15  -6   7    4.53   10.68
 -15  -6   7    2.09    6.09
 -15  -6   7   16.22    9.65
  15  -6  -7    9.79    4.93
 -15   6  -7    4.47    8.42
 -15   6  -7   23.12   11.76
  15  -6   8    2.19   12.91
  15   6  -8    1.73    6.72
  15   6  -8    2.23    8.07
  15   6  -8    3.80    5.92
 -15  -6   8    6.83    6.28
 -15   6  -8   -1.86    7.99
  15  -6   9    0.43   10.88
  15   6  -9    4.28    5.67
  15   6  -9    3.50    5.50
 -15  -6   9   -0.51    9.79
 -15  -6   9    3.72    5.53
 -15  -6   9   33.10   16.35
 -15   6  -9   -2.84    8.10
  15  -6  10    4.04    2.73
  15   6 -10    1.84    7.98
  15   6 -10    2.48    4.80
 -15  -6  10   -0.79    5.48
 -15   6 -10    7.70    9.49
  15  -6  11   11.14    4.38
  15   6 -11    3.30    6.15
 -15   6 -11    9.27    3.82
  15   6 -12    1.82    7.98
  15   6 -12    0.82    4.89
 -15   6 -12    4.61    2.65
 -15   6 -13    6.90    3.29
  15   7   0    0.52    6.58
 -15  -7   0   14.15    7.44
  15  -7   0   -0.45    8.88
  15  -7   0    3.74    4.16
  15  -7   1    5.96    6.58
 -15  -7  -1   11.04    7.48
  15   7   1   16.96    8.42
 -15  -7   1    8.12    9.47
 -15   7  -1    3.42    6.24
  15  -7   2   26.88    9.67
  15   7  -2   31.31   12.75
 -15  -7  -2   24.32    9.64
 -15  -7  -2   60.64   25.07
  15   7   2   25.88    9.91
  15   7   2   45.76   20.65
 -15  -7   2   20.32   10.48
 -15   7  -2   19.53    8.21
  15  -7   3   33.64   11.27
 -15  -7  -3   39.66   12.71
 -15  -7  -3   21.15   10.07
  15   7   3   34.06   11.49
 -15   7  -3   32.76   10.66
  15   7  -4   27.83   15.49
  15   7  -4   34.40   14.05
 -15  -7  -4    5.10    8.23
 -15  -7  -4   16.77    9.06
  15   7   4   11.00    8.64
  15   7   4   16.78    9.55
 -15  -7   4   20.31   10.01
 -15   7  -4    8.47    7.02
  15  -7   5    0.90    6.47
  15   7  -5    4.88    5.09
 -15  -7  -5    6.17    9.74
  15   7   5    5.10    9.16
  15   7   5    8.32    6.88
 -15  -7   5    0.04    5.02
 -15  -7   5    3.72   10.03
 -15  -7   5   11.29    9.74
  15  -7   6   15.59   10.36
 -15   7   6   37.78   14.46
  15   7  -6   25.71   13.40
 -15  -7   6   54.67   19.77
  15  -7  -6   16.31    7.42
 -15   7  -6   22.91   11.52
  15  -7   7    0.96    7.05
  15  -7   7    1.64    7.37
 -15   7   7    2.67    3.80
  15   7  -7    5.08    5.64
 -15  -7  -7   13.50   10.57
  15   7   7    0.27    7.51
 -15  -7   7   19.26   13.27
 -15  -7   7    8.69    7.10
 -15  -7   7   18.70   10.26
  15  -7  -7    3.24    3.39
 -15   7  -7   27.30   13.07
 -15   7  -7   -4.77    6.91
  15  -7   8   -0.97    7.40
  15   7  -8    8.67    7.84
  15   7  -8   19.63   11.39
  15   7  -8    6.32    5.87
 -15  -7   8    5.37    6.53
 -15  -7   8    8.12    7.01
 -15   7  -8   10.37    7.94
  15   7  -9    1.71    6.20
  15   7  -9    1.47    5.15
 -15  -7   9   -3.71    6.24
 -15  -7   9    3.58    5.73
 -15   7  -9    1.35    6.05
  15   7 -10   20.82   11.96
  15   7 -10   31.39   12.20
 -15  -7  10   18.44   12.52
  15   7 -11    7.68    6.24
 -15  -7  11   -1.19    5.57
  15   7 -12    1.99    8.11
  15   7 -12    5.13    5.53
 -15  -7  12   -1.74    5.82
 -15   7 -12   39.48   20.46
  15   7 -13    0.03    5.30
  15   8   0    6.64    7.04
  15  -8   0    0.64    9.86
  15  -8   0   10.44    5.58
 -15   8   0   35.47   11.82
 -15   8   0    9.75    6.27
  15  -8   1  430.37  107.27
  15  -8   1  436.37  158.27
  15   8  -1  309.19   77.65
 -15  -8  -1  372.66   93.15
  15   8   1  411.71  102.73
 -15  -8   1  423.81  106.02
 -15   8  -1  356.30   88.99
 -15   8  -1  501.33  181.78
  15  -8   2    6.63    6.66
  15   8  -2   19.17   13.33
 -15  -8  -2   17.48    8.98
  15   8   2   21.94    9.14
 -15  -8   2   13.06   10.04
 -15   8  -2    8.12    6.71
  15  -8   3   40.03   12.52
  15   8  -3   58.61   23.83
 -15  -8  -3   46.90   14.79
 -15  -8   3  157.58   58.61
 -15  -8   3   31.62   15.70
 -15   8  -3   51.34   14.70
  15   8  -4   58.15   22.47
  15   8  -4   50.50   20.47
 -15  -8  -4   40.16   13.56
  15   8   4   36.53   14.89
  15   8   4   32.80   12.07
 -15  -8   4   39.72   15.89
 -15  -8   4   53.59   24.01
 -15   8  -4   29.05   10.09
  15  -8   5  148.26   38.52
  15   8  -5  104.26   38.98
 -15  -8  -5  158.97   41.63
  15   8   5  128.91   34.24
 -15  -8   5  226.48   76.37
 -15   8  -5  181.78   46.64
  15  -8   6   35.84   18.10
 -15   8   6   28.35   11.33
  15   8  -6   37.57   19.70
  15   8  -6   49.74   20.26
 -15  -8   6   21.43   12.37
  15  -8  -6   37.13   14.61
  15  -8   7    4.60    6.79
  15  -8   7   11.60    9.68
 -15   8   7   13.80    6.41
  15   8  -7   36.63   17.53
 -15  -8  -7    7.54    9.67
  15   8   7    8.39    7.93
 -15  -8   7   54.89   24.64
 -15  -8   7   52.09   18.78
  15  -8  -7   31.67   12.48
 -15   8  -7   21.59   10.93
 -15   8  -7    5.94    6.78
 -15  -8   8   88.24   38.82
 -15   8  -8  115.31   50.05
  15   8  -9    3.95    7.26
  15   8  -9   10.48    6.40
 -15  -8   9   33.75   16.74
 -15  -8   9   24.94   13.59
  15   8 -10    0.79    6.16
  15   8 -10    2.33    6.04
 -15  -8  10    0.75    6.29
  15   8 -11   18.88   10.69
  15   8 -11   29.62   11.46
 -15  -8  11   37.01   14.13
 -15   8 -11   27.42   15.31
  15   8 -12    5.89    5.73
  15   9   0    5.25   11.06
  15   9   0   12.10    8.12
 -15  -9   0    9.90    7.99
 -15   9   0   -3.64    8.64
 -15   9   0    8.19    5.99
  15  -9   1   -1.66    6.63
  15  -9   1    4.55    6.32
  15   9  -1    7.58    8.12
  15   9  -1   41.86   19.05
 -15  -9  -1   19.20    9.55
  15   9   1    7.98    7.32
 -15  -9   1   48.06   20.52
 -15   9  -1    3.77    7.23
  15   9  -2   36.40   16.66
 -15  -9  -2   18.74    8.89
  15   9   2   45.70   13.97
 -15  -9   2   21.27   10.69
 -15  -9   2   31.81   16.60
 -15   9  -2   29.86   10.30
  15  -9   3   18.12    8.05
  15   9  -3    2.26    5.89
 -15  -9  -3    0.26    6.05
 -15  -9  -3    6.84    7.94
  15   9   3    9.00    7.47
  15   9   3    4.26    9.23
 -15  -9   3    9.22   10.55
 -15   9  -3    2.85    7.54
  15   9  -4   49.29   20.97
 -15  -9  -4   53.73   16.91
 -15  -9  -4   36.36   15.97
  15   9   4   48.52   15.11
 -15  -9   4   73.88   28.05
 -15   9  -4   34.78   11.18
  15   9  -5   10.77    6.87
 -15  -9  -5    0.07    9.30
 -15  -9  -5    3.36    6.54
  15   9   5    8.30    8.53
  15   9   5    6.48    5.66
 -15  -9   5    4.93   10.60
 -15   9  -5   -1.97    6.68
 -15   9   6   15.72    7.59
 -15  -9  -6    5.22    6.25
  15   9   6    2.56    5.55
  15  -9  -6    5.71    5.14
  15  -9   7    0.74    6.19
 -15   9   7    7.24    4.82
  15   9  -7    2.87    9.16
 -15  -9  -7   -6.06    8.81
  15   9   7   -0.40    7.32
 -15  -9   7    6.94    9.84
  15  -9  -7    6.86    4.69
 -15   9  -7   -0.34    6.02
 -15   9  -7    0.86    7.10
  15   9  -8    9.30    8.63
 -15  -9   8    1.92    6.43
 -15  -9   8   59.42   20.99
 -15   9  -8    2.50    5.81
  15   9  -9   -0.24    4.32
 -15  -9   9    1.49    5.92
 -15   9  -9    6.41    6.58
  15   9 -10   24.71   13.39
  15   9 -10   15.36    7.98
  15   9 -11   -5.61    6.83
  15   9 -11   -1.01    4.35
 -15  -9  11   -0.82    5.66
 -15   9 -11   -2.49    6.81
  15   9 -12    0.27    4.89
  15  10   0    6.07    8.50
  15  10   0   13.18   11.61
 -15 -10   0   -2.08    7.50
 -15 -10   0   16.25   12.84
  15 -10   0    0.58    9.95
  15 -10   0    7.54    6.13
 -15 -10  -1   67.39   19.03
 -15 -10  -1   63.17   26.58
  15  10   1   87.13   32.22
  15  10   1   65.57   18.32
 -15 -10   1   58.78   22.90
  15 -10  -1   71.50   26.75
 -15  10  -1  112.70   41.61
  15  10  -2   28.61   11.88
  15  10  -2    6.52   10.99
 -15 -10  -2   23.06    9.81
 -15 -10  -2  143.31   53.83
 -15 -10   2    4.27    8.81
  15 -10   3    5.63    6.47
  15  10  -3   -5.94   11.04
  15  10  -3   23.80   10.95
  15  10  -3   11.75   11.34
 -15 -10  -3   34.01   12.19
  15  10   3   15.36    9.02
  15  10   3    9.35    6.93
 -15 -10   3   34.01   14.65
 -15 -10   3   22.24   13.67
  15 -10   4   10.03    6.37
  15  10  -4   55.18   21.51
 -15 -10  -4    6.95    8.49
 -15 -10  -4   10.01    7.49
  15  10   4    3.30    8.81
  15  10   4    0.94    7.06
 -15 -10   4   12.63    6.85
  15  10  -5  316.33  116.81
 -15 -10  -5  277.16   70.25
 -15 -10  -5  239.84   87.54
  15  10   5  267.02   67.62
  15  10   5  329.35  119.69
 -15 -10   5  326.47  120.38
 -15 -10   5  164.50   56.49
 -15  10   6   13.45    6.70
  15  10   6    6.15    5.97
  15 -10  -6    3.75    4.96
  15 -10   7    0.86    6.22
 -15  10   7   19.06    8.49
 -15 -10  -7    9.14    9.74
  15  10   7    1.64    7.14
 -15 -10   7   54.37   25.14
  15 -10  -7   31.00   12.54
  15  10  -8    5.64    9.74
 -15 -10   8    9.34    7.77
  15 -10  -8   34.17   13.48
 -15  10  -8    8.19    7.66
  15  10  -9    7.95    7.97
 -15 -10  10    6.08    6.99
 -15  10 -10   32.30   15.26
  15  10 -11   -0.02    4.58
 -15 -10  11    2.08    5.94
 -15  10 -11    7.23    7.65
  15  10 -12    0.51    4.95
  15  11   0   -0.52    7.53
  15  11   0   20.47   14.03
 -15 -11   0    2.02    7.19
  15 -11   0    6.20    9.47
 -15  11   0    3.04    7.70
 -15  11   0    9.33    7.02
  15 -11   1    3.12    6.45
 -15  11   1    4.49    6.12
  15  11  -1   36.84   17.12
  15  11  -1   11.51    7.61
 -15 -11  -1   16.89    8.81
 -15 -11  -1   48.35   21.14
  15  11   1    6.59    7.26
 -15 -11   1   20.69   13.42
 -15 -11   1    5.32    7.17
  15 -11  -1    4.23    5.29
 -15  11  -1    6.53    7.77
 -15  11  -1   20.98    9.91
  15 -11   2   30.00   10.10
  15  11  -2    4.39    9.60
 -15 -11  -2   14.42    8.36
 -15 -11  -2   36.82   18.12
 -15 -11  -2   56.91   23.33
  15  11   2    9.19    6.66
 -15 -11   2    8.72    7.84
 -15 -11   2   21.90   15.91
 -15  11  -2    4.28    9.63
 -15  11  -2   22.74    8.92
  15 -11   3    4.03    5.50
  15  11  -3   -1.16   10.75
  15  11  -3    3.06    5.71
 -15 -11  -3    5.36    6.83
  15  11   3    5.61    7.09
  15  11   3   36.38   17.58
 -15  11  -3    1.46    5.39
  15 -11   4   18.33    6.99
  15  11  -4    7.39    6.47
 -15 -11  -4    2.48    6.91
 -15 -11  -4    4.46    5.86
  15  11   4    6.94    6.90
 -15 -11   4    3.44    4.78
 -15  11  -4    0.38    4.96
  15  11  -5    8.06    7.01
 -15 -11  -5    4.76    8.43
 -15 -11  -5    6.84    7.07
  15  11   5    7.52    8.25
  15  11   5   13.73   12.15
 -15 -11   5   11.34    6.55
 -15  11  -5    3.15    5.91
 -15  11   6   23.26    9.93
  15 -11  -6    3.83    4.82
  15 -11   7    2.82    5.64
 -15 -11  -7   -2.90    7.98
 -15 -11  -7    2.12    6.17
  15  11   7    5.60    7.01
  15 -11  -7    0.80    4.26
 -15  11   8    8.88    5.47
  15  11  -9    0.23    8.26
  15  11 -10   13.25    9.62
 -15  11 -10   25.37   12.90
  15  12   0    0.23    7.14
 -15 -12   0    0.74    7.36
 -15 -12   0   14.17   12.05
  15 -12   0    1.62   11.59
  15 -12   0    9.09    7.10
  15 -12   1   16.17    8.64
 -15  12   1   14.60    8.33
  15  12  -1   26.00   10.17
 -15 -12  -1   13.82    7.38
 -15 -12  -1   13.16   11.34
  15  12   1   26.26    9.28
  15  12   1   15.37   11.82
 -15 -12   1   32.89   12.16
  15 -12  -1   12.38    6.72
 -15  12  -1   10.31    8.90
 -15  12  -1   25.48   10.75
  15 -12   2   11.93    7.17
  15  12  -2   20.26    9.45
  15  12  -2   10.57    9.72
 -15 -12  -2    5.36    6.39
 -15 -12  -2   21.71   13.72
 -15 -12   2   13.45   10.79
 -15 -12   2   48.91   19.49
 -15  12  -2   18.12   11.68
 -15  12  -2   19.68    7.98
  15 -12   3   56.26   15.41
  15  12  -3   40.24   14.30
  15  12  -3   36.23   14.78
 -15 -12  -3   58.87   16.95
  15  12   3   51.61   20.02
 -15 -12   3   42.24   17.21
 -15  12  -3   56.45   15.38
  15 -12   4    2.17    4.77
  15  12  -4    5.00    5.87
 -15 -12  -4   -0.73    6.95
 -15 -12  -4    3.31   10.64
  15  12   4    3.08    6.62
 -15  12  -4    3.09    4.65
  15  12  -5   10.42    7.12
 -15 -12  -5    5.82    8.41
  15  12   5   38.59   15.53
  15  12   5    8.82   11.73
 -15 -12   5    8.85    6.07
 -15  12  -5   17.43    7.21
 -15  12   6    9.45    6.28
 -15 -12  -6    4.27    6.21
  15  12   6   11.77   14.11
  15  12   6    7.67    6.07
  15 -12  -6    4.50    5.34
  15 -12   7    6.84    6.01
 -15  12   7   39.98   15.80
 -15 -12  -7    3.70    8.20
 -15 -12  -7   19.50    9.55
  15  12   7   27.17   13.50
  15  12   7    7.23    7.61
  15  12   7   20.49    9.70
 -15  12   8    6.28    5.38
  15  13   0    0.76    6.61
 -15 -13   0    5.99    8.54
  15 -13   0   30.91   13.17
  15 -13   0   -0.70    6.10
 -15  13   0   19.19   10.64
  15 -13   1    0.72    6.02
 -15  13   1   30.75   13.20
  15  13  -1    5.10    7.18
 -15 -13  -1    2.62    6.71
 -15 -13   1   11.63    8.70
  15 -13   2   22.12    8.36
  15  13  -2    4.98    9.16
  15  13  -2  114.94   43.06
 -15 -13  -2    5.07    6.62
 -15 -13  -2   39.24   17.51
 -15 -13   2   42.52   17.73
 -15 -13   2   10.29    9.66
  15 -13  -2    5.97    6.47
 -15  13  -2   22.27   13.14
  15 -13   3    6.03    4.97
  15  13  -3    2.96    9.51
  15  13  -3   24.10   10.93
 -15 -13  -3    6.36    6.43
 -15 -13  -3   29.65   15.68
 -15 -13  -3    2.17    6.32
  15  13   3   27.53   12.83
  15  13   3   56.22   22.39
 -15 -13   3    4.54    9.34
 -15  13  -3    6.43    5.05
  15 -13   4   54.55   14.83
  15  13  -4   80.60   30.79
 -15 -13  -4   29.96   10.82
  15  13   4   59.57   23.20
 -15 -13   4   50.51   19.93
 -15  13  -4   57.72   15.80
  15  13  -5   13.70    7.84
 -15 -13  -5    4.33    7.21
  15  13   5   14.63    8.10
 -15  13  -5   12.49    5.98
 -15 -13  -6   17.64   12.88
  15  13   6   22.12    9.92
 -15  13  -6    3.29    6.00
  15 -13   7   -4.08    5.72
 -15  13   7   13.84    7.26
  15  13   7    5.92    8.12
  15  13   7   35.57   15.52
  15  13   7   18.77    9.35
  15  13   8   32.36   15.07
 -15 -14   0   12.74    8.60
  15 -14   0    5.29    7.07
 -15  14   0    5.64    7.33
  15 -14   1   27.53    9.86
  15 -14   1   -0.95    6.63
  15  14  -1   26.53    9.75
 -15 -14  -1   11.53    7.19
 -15 -14   1    9.43    8.29
 -15 -14   1   22.64   10.75
  15 -14  -1   17.99    9.76
 -15  14  -1   24.10    9.83
  15 -14   2    1.69    5.39
 -15  14   2    3.21    6.38
  15  14  -2    0.77    7.83
  15  14  -2   -0.99    5.17
 -15 -14  -2    2.04    6.54
 -15 -14  -2    7.40   12.50
  15  14   2   -1.46    5.34
 -15 -14   2    7.12    6.37
 -15 -14   2    2.63    9.03
  15 -14  -2    4.99    6.69
 -15  14  -2   -0.10   10.66
 -15  14  -2    2.26    5.20
  15  14  -3   11.85    7.45
  15  14  -3   12.34    8.70
 -15 -14  -3   -1.41    6.57
 -15 -14  -3   41.11   13.05
 -15 -14   3    6.00    5.90
 -15 -14   3   20.65   11.04
 -15  14  -3    3.18    4.95
  15 -14   4    3.34    3.97
  15  14  -4    1.91    5.53
 -15 -14  -4   -1.94    6.03
 -15 -14  -4    4.27    7.95
 -15 -14  -4   10.83   10.90
  15  14   4   12.84    9.40
 -15 -14   4    1.53    4.77
  15  14  -5   32.21   13.84
 -15 -14  -5   24.51    9.90
 -15 -14  -5   31.58   14.18
 -15 -14  -5   22.22   14.69
 -15 -14   5   23.34   10.95
 -15  14  -5   22.74    7.60
  15  14  -6   -1.52    5.07
 -15 -14  -6    3.85    6.35
  15  14   6   -0.25    5.26
  15 -14  -6    1.44    5.59
  15 -14   7    2.70    5.02
 -15  14   7    7.88    5.68
 -15 -14  -7    4.41    5.95
  15  14   7    4.88    7.75
  15  14   7    8.71    6.14
  15  14   7   13.33   10.45
 -15  14   8    4.67    4.99
 -15 -15   0    0.94    6.95
 -15  15   0    9.11    7.76
  15 -15   1    0.30    6.38
 -15  15   1   28.37   12.53
 -15 -15  -1    6.06    6.18
  15  15   1    7.32    5.29
 -15 -15   1    2.70    6.06
 -15 -15   1   25.40    9.97
  15 -15   2    2.43    4.86
  15  15  -2    3.95    7.73
 -15 -15  -2    4.78    5.75
 -15 -15  -2   63.15   27.00
  15  15   2    6.77    5.32
 -15 -15   2   22.19   10.63
 -15 -15   2    7.30    8.23
  15 -15  -2    4.61    5.70
 -15  15  -2    3.61    5.64
 -15  15  -2   -5.16   11.96
  15  15  -3   -4.78    7.84
 -15 -15  -3    3.20    5.47
 -15 -15  -3    0.26    7.59
 -15 -15   3    5.11    6.03
 -15 -15   3   -3.94    8.77
 -15  15  -3    8.12    4.66
  15 -15   4   50.80   13.63
  15  15  -4   51.87   20.68
 -15 -15  -4   32.95   11.22
 -15 -15  -4   38.54   16.58
 -15 -15   4   61.09   23.85
 -15  15  -4   23.90    8.04
  15  15  -5    5.57    6.18
 -15 -15  -5    3.14    7.13
 -15 -15   5    1.64    5.26
 -15  15  -5    4.01    4.49
  15  15  -6    1.41    4.67
 -15 -15  -6    9.37    7.18
 -15  15   7    4.14    4.54
  15  15   7    3.42    6.08
 -15  15   8   14.10    7.37
  15  15   8   17.54    9.59
  15  16   0   12.45    6.41
 -15 -16   0    9.82    7.09
 -15  16   0    6.63    8.48
  15 -16   1    6.39    6.95
 -15  16   1   25.18   11.44
  15  16  -1   19.99    9.60
  15  16  -1   21.14    9.53
 -15 -16  -1   12.67    6.78
  15  16   1    2.19    4.85
 -15 -16   1   12.84    8.00
 -15 -16   1   13.11    8.37
 -15  16  -1    4.39    6.72
  15 -16   2   -1.12    4.51
 -15  16   2   -0.44    5.58
  15  16  -2   -0.08    4.82
 -15 -16  -2   13.16    6.61
 -15 -16  -2   13.28   15.17
  15  16   2    6.57    5.78
 -15 -16   2    9.00    8.50
 -15 -16   2    4.73    6.03
 -15  16  -2   -0.09   11.59
 -15  16  -2    1.59    5.44
  15 -16   3   26.03    8.02
 -15 -16  -3    5.43    6.08
 -15 -16  -3    0.66    7.30
 -15 -16   3    3.03    5.87
 -15 -16   3    3.08    8.68
 -15  16  -3    3.39    4.53
  15 -16   4    4.96    4.18
 -15 -16  -4    3.92    7.15
 -15  16  -4    6.55    4.50
 -15 -16  -5   11.98    8.28
  15  16   5    6.53    7.69
  15  16  -6   -2.53    5.44
  15  16   6    0.86    6.88
 -15  16   7   12.29    7.19
  15  16   7   10.55    7.45
  15  17   0    1.07    5.50
  15 -17   1    0.72    5.59
  15  17  -1    2.41    5.55
  15  17  -1    1.79    4.84
 -15 -17  -1    5.44    6.16
  15  17   1    2.32    5.15
 -15  17  -1   -0.04    6.49
 -15  17  -1    1.22    6.61
  15  17  -2    1.73    6.43
  15  17  -2    9.30    6.70
 -15 -17  -2    7.00   13.05
  15  17   2    1.22    5.44
 -15  17  -2    2.81    5.10
 -15  17  -2    1.92   10.87
  15 -17   3   16.75    6.05
 -15  17   3    1.19    6.03
  15  17  -3   21.50   10.14
 -15 -17  -3    0.03    6.85
  15  17   3    7.57    5.51
  15 -17   4    4.32    4.04
  15  17  -4    4.50    6.74
 -15 -17  -4    3.18    6.48
 -15  17  -4    8.74    5.27
  15  17   5    1.14    8.40
 -15  17   6    6.54    5.83
  15  17  -6   -1.00    5.62
  15  17   6    6.61    7.46
  15  18   0    1.34    5.37
  15 -18   1   21.30    9.81
  15  18  -1   34.98   14.47
  15  18   1   46.71   13.57
 -15  18  -1   10.65    8.16
 -15  18  -1    6.10    6.93
  15  18  -2    7.46    7.92
  15  18  -2   18.17    8.88
 -15  18  -2   -1.81   10.73
 -15  18   3   16.96    9.40
  15  18  -3   17.90    9.09
  15  18  -4    7.77    6.20
  15  18   4    2.72    8.42
  15  18   5   11.50   10.34
  15  19   0    0.32    4.23
 -15  19  -1   -1.90    7.08
 -15  19   2    5.75    6.46
  15  19  -2    1.01    5.24
 -15  19  -2   -2.05   10.16
 -15  19   3    3.23    5.50
  15  19  -3   -0.10    5.62
  15  19  -4   -0.28    5.80
 -16   0   0 5833.52 2502.05
  16   0   1 1486.02  368.62
  16   0   1 1153.11  376.80
 -16   0  -1 1563.21  387.40
  16   0   2 1590.85  394.31
  16   0   2 2450.22  800.73
 -16   0  -2 1515.98  375.77
 -16   0  -2 2285.48  746.93
 -16   0  -3  105.51   27.37
 -16   0  -3  104.93   38.34
 -16   0  -3  402.61  131.79
 -16   0  -4  164.73   41.95
 -16   0  -5   48.43   15.03
  16   0  -6  182.81   67.26
 -16   0  -6  161.39   42.46
  16   0   7   75.88   21.18
 -16   0  -8  137.55   36.47
  16   1   0   36.74   12.97
  16   1   0   13.52    6.96
 -16  -1   0   40.80   13.33
  16  -1   0   32.27   11.19
  16  -1   1  265.41   66.59
 -16   1   1  311.26   78.22
  16   1  -1  350.08  114.87
  16   1  -1  129.60   56.13
  16   1  -1  264.83   66.91
 -16  -1  -1  231.66   58.38
 -16  -1  -1  396.73  130.06
  16   1   1  210.23   53.07
  16   1   1  365.74  119.81
 -16  -1   1  546.49  234.43
 -16   1  -1  253.66   63.75
  16  -1   2  145.27   37.16
  16   1  -2  109.89   47.93
 -16  -1  -2  112.80   29.25
 -16  -1  -2  165.65   54.64
  16   1   2   41.74   16.35
  16   1   2  127.06   32.69
 -16  -1   2   44.60   20.71
 -16   1  -2  146.65   37.38
  16  -1   3   89.51   24.03
  16   1  -3  114.23   50.50
 -16  -1  -3   76.31   20.49
  16   1   3  136.05   49.66
 -16   1  -3   95.58   25.07
  16  -1   4   17.15    7.22
  16  -1   4   12.71    5.28
 -16  -1  -4   35.91   11.34
 -16   1  -4   26.69    9.80
 -16   1  -4   17.84    6.84
 -16   1  -5    2.94    6.88
  16   1  -6   16.89    6.80
 -16   1  -6   15.00    9.80
  16  -1   7   17.43    8.96
  16   1   7   32.06   11.73
 -16  -1  -8    4.69    9.76
 -16   1  -8    2.57    9.28
  16   2   0  180.97   46.01
  16   2   0  338.33  110.98
 -16  -2   0  220.72   55.64
 -16   2   0  199.06   50.56
  16  -2   1   51.93   14.91
 -16   2   1   14.98    9.91
  16   2  -1   80.14   22.65
  16   2  -1   21.82    9.14
 -16  -2  -1   34.70   11.51
  16   2   1   52.40   15.19
 -16  -2   1   35.17   13.29
 -16  -2   1   25.71   10.54
  16  -2  -1   59.26   17.74
  16  -2   2  138.93   35.58
  16   2  -2   99.86   27.50
  16   2  -2  197.91   85.30
  16   2  -2  187.19   61.87
 -16  -2  -2  157.35   40.05
 -16  -2   2  118.42   39.65
 -16  -2   2  204.13   87.80
 -16   2  -2  145.50   37.15
 -16   2  -2  171.41   73.66
  16  -2   3    3.75    6.01
  16   2  -3    2.63    6.94
  16   2  -3    8.06    6.86
 -16  -2  -3    4.27    6.27
  16   2   3    5.90    6.22
 -16  -2   3   30.86   15.52
 -16   2  -3    5.66    6.45
  16   2  -4   47.70   23.37
 -16  -2   4   33.12   16.84
 -16   2  -4   17.73    8.12
  16  -2   5   47.91   15.91
  16   2  -5   23.44   14.66
  16   2  -6    4.66    4.02
 -16   2  -6   13.05   10.24
  16  -2   7   64.35   18.34
  16   2   7   49.37   14.99
 -16  -2  -8   36.69   14.27
 -16   2  -8   54.80   16.96
  16   3   0  530.83  132.13
 -16  -3   0  540.85  134.67
 -16   3   0  468.50  116.93
  16  -3   1  167.03   42.39
  16   3  -1  255.85   64.84
  16   3  -1  336.49  110.40
 -16  -3  -1  198.94   50.38
  16   3   1  182.81   46.31
 -16  -3   1  219.33   55.56
 -16  -3   1  252.50   83.23
  16  -3  -1  274.28   69.20
  16  -3   2   63.30   17.52
  16   3  -2   47.81   17.07
 -16  -3  -2  102.57   26.75
 -16  -3   2   71.04   31.29
  16  -3   3   20.12    8.30
  16   3  -3   54.71   24.63
 -16  -3  -3   36.71   14.51
 -16  -3  -3   30.65   10.60
  16   3   3   33.98   13.94
  16   3   3   23.50    9.22
 -16  -3   3  178.67   76.96
 -16   3  -3   32.27   10.62
 -16   3  -3  137.43   59.19
  16  -3   4   28.15   16.74
  16   3  -4   40.46   19.02
 -16  -3  -4   21.22    9.33
  16   3   4   49.14   14.55
 -16  -3   4   24.02   11.97
 -16  -3   4   19.33    9.20
 -16   3  -4   32.89   11.25
  16   3  -5   19.05    7.83
  16   3  -5    1.21    5.68
  16   3   5    4.57    7.58
 -16  -3   5   17.22    7.67
 -16  -3   5    9.33   10.54
 -16   3  -5    7.09    7.82
 -16   3   6    6.42    2.85
  16   3  -6   12.22    5.80
 -16  -3   6   12.44   10.29
 -16   3  -6    9.66    9.66
  16  -3   7   22.61    9.43
  16   3  -7    4.02    9.43
  16   3   7   13.39    8.00
 -16  -3  -8    7.48   10.10
 -16   3  -8    0.21    8.40
  16   4   0  249.40   62.89
 -16  -4   0  324.05   81.22
  16  -4   0  237.42   60.12
 -16   4   0  306.77   77.03
  16  -4   1   77.99   20.97
 -16   4   1   78.56   22.23
  16   4  -1   81.88   23.30
 -16  -4  -1  116.12   30.32
 -16  -4   1   86.86   24.06
  16  -4  -1  140.89   38.00
 -16   4  -1  109.86   28.52
  16  -4   2   22.91    9.38
  16   4  -2   36.21   15.52
 -16  -4  -2   25.60    9.65
 -16  -4  -2  120.50   44.78
  16   4   2   25.71    9.62
 -16  -4   2   38.16   13.51
 -16  -4   2   21.62    9.98
 -16   4  -2   28.29    9.57
  16  -4   3   29.54   15.51
  16  -4   3   30.30   10.97
  16   4  -3    5.65    6.27
  16   4   3   26.37    9.80
  16   4   3   10.99    8.02
 -16  -4   3   -0.15    7.46
 -16   4  -3   24.27    9.19
  16  -4   4   53.75   24.38
  16   4  -4   66.42   29.47
 -16  -4  -4  113.90   41.85
  16   4   4   17.51    8.49
  16   4   4   48.54   18.71
 -16   4  -4   18.45    8.42
 -16   4  -4  207.01   89.01
  16  -4   5    4.74   12.99
  16   4  -5   11.62    5.67
  16   4  -5   10.77    7.62
  16   4   5   19.87    9.35
 -16  -4   5    8.57    7.42
 -16  -4   5   29.73   11.88
 -16   4  -5   14.00    9.21
 -16   4  -5   21.78   10.16
  16  -4   6   -3.37   11.33
 -16   4   6    5.56    2.99
  16   4  -6    5.00    3.88
  16   4  -6    9.54    7.25
 -16  -4   6    1.05    5.63
 -16  -4   6    3.55    9.83
 -16   4  -6   -1.98    9.94
 -16   4  -6    1.53    8.75
  16  -4   7   25.42    9.75
  16   4  -7   -2.91   10.23
  16   4  -7    0.86    5.39
  16   4   7    5.82    7.08
 -16  -4   7   -7.44   10.89
 -16   4  -7    3.92    7.34
  16  -4   8   19.51    6.52
  16   4  -8   10.31   10.98
 -16  -4  -8   17.73   11.51
 -16   4  -8   19.28   10.25
  16   4  -9   -2.80    7.04
 -16   4  -9    1.26    1.43
  16   5   0  667.10  165.99
 -16  -5   0  522.88  130.29
  16  -5   1 1746.37  632.89
  16   5  -1 1922.62  476.68
 -16  -5  -1 2037.82  504.90
 -16  -5   1 2227.89  552.02
 -16   5  -1 1950.27  483.13
  16  -5   2 1142.05  283.38
  16   5  -2  833.21  207.24
 -16  -5  -2 1110.95  402.61
 -16  -5   2  753.27  187.42
  16  -5   3  688.64  171.29
  16   5   3 1295.95  469.42
 -16  -5   3  868.34  284.19
 -16   5  -3  849.46  210.92
  16  -5   4   89.62   39.52
  16  -5   4   17.82    8.20
  16   5  -4   23.62   13.52
  16   5  -4   52.26   18.39
 -16  -5  -4   29.42   10.46
  16   5   4   12.25    7.19
  16   5   4   22.23    9.55
 -16  -5   4   17.65    8.35
 -16  -5   4   76.95   26.61
 -16  -5   4   24.94   12.28
 -16   5  -4   23.44   12.67
  16   5  -5   53.44   24.55
  16   5  -5   96.12   35.87
 -16  -5  -5    3.20    5.90
  16   5   5   29.02   11.19
 -16  -5   5   21.97    9.90
 -16  -5   5  144.46   62.54
 -16  -5   5   68.27   25.65
 -16   5  -5   78.26   34.18
 -16   5  -5    6.38    7.73
  16  -5   6   15.15   13.45
 -16   5   6   16.17    6.70
  16   5  -6   12.59    6.01
  16   5  -6    8.69    7.33
  16   5  -6    4.19    5.69
 -16  -5   6    4.16    6.17
 -16   5  -6   13.54   10.25
  16   5  -7   97.88   42.88
  16   5  -7   93.30   31.64
  16   5   7   54.66   16.08
 -16  -5   7  102.97   45.34
 -16  -5   7   71.77   24.74
  16  -5  -7  117.16   43.19
 -16   5  -7  170.03   74.02
  16   5  -8   10.71    6.27
 -16  -5  -8    1.45    9.93
 -16  -5   8    1.69    5.60
 -16   5  -8    1.25    8.00
  16  -5   9   69.41   22.85
  16   5  -9   26.61   13.81
  16   5  -9   83.24   28.38
 -16  -5   9   15.36   11.26
 -16   5  -9   14.04    9.63
  16   5 -10    0.06    6.80
  16   5 -10    4.77    6.16
 -16   5 -10    6.67    2.83
  16   5 -11   -2.47    7.17
  16   5 -11   20.01   11.89
 -16   5 -11   17.30    6.11
 -16  -6   0  273.13   68.76
  16  -6   0  298.93   75.40
  16  -6   1   66.34   18.20
  16  -6   1   56.64   21.01
  16   6  -1  105.20   28.89
 -16  -6  -1   46.34   13.94
  16   6   1   60.27   17.28
 -16  -6   1   54.33   17.33
 -16   6  -1   36.78   11.91
 -16   6  -1   51.86   19.49
  16  -6   2   43.99   13.31
  16   6  -2   51.43   16.81
 -16  -6  -2  169.68   62.79
  16   6   2   54.90   16.09
 -16  -6   2   74.55   21.73
 -16   6  -2   65.32   17.96
  16  -6   3   29.46   10.42
 -16  -6  -3   21.75    9.40
 -16  -6  -3   21.80   10.37
  16   6   3   19.70    9.31
 -16   6  -3   23.66    8.86
  16   6  -4   73.44   27.67
 -16  -6  -4   44.71   17.50
  16   6   4   33.38   11.90
 -16  -6   4   94.97   35.69
 -16   6  -4   31.39   10.91
  16  -6   5   15.82   10.20
  16   6  -5    0.91    8.51
  16   6  -5   26.13   10.73
 -16  -6  -5   23.52   10.27
  16   6   5   28.26   11.60
  16   6   5   16.16    7.99
 -16  -6   5   11.80    8.19
 -16  -6   5    5.82    6.58
 -16   6  -5   23.14   10.16
 -16   6   6    5.00    3.56
  16   6  -6    4.98    4.49
  16   6  -6    1.90    5.12
 -16  -6   6   29.27   14.30
 -16   6  -6   23.47   11.42
 -16   6  -6   -1.22    8.06
 -16   6   7   21.17    8.39
  16   6  -7   18.55   10.90
  16   6  -7   29.87   15.16
  16   6  -7   23.67    9.72
 -16  -6   7    4.41    6.64
  16  -6  -7   17.53    7.16
 -16   6  -7   24.06   12.00
  16  -6   8   54.50   26.83
  16   6  -8   35.07   16.53
  16   6  -8   45.63   16.58
 -16  -6  -8    9.16   10.68
 -16  -6   8   30.78   12.03
 -16   6  -8   21.01   10.33
 -16   6  -8   36.74   17.72
  16   6  -9   15.17   10.71
  16   6  -9   -0.15    5.75
  16   6  -9    0.84    4.39
 -16  -6   9   -3.53    9.42
 -16  -6   9    1.11    5.05
 -16  -6   9    4.89    9.40
 -16   6  -9    0.46    7.90
  16   6 -10    5.92    7.88
  16   6 -10   12.76    7.47
 -16  -6  10   -1.99    5.70
 -16   6 -10    0.96    7.61
  16  -6  11    3.97    2.29
  16   6 -11    0.36    5.17
  16   6 -12    3.96    9.44
  16   6 -12    0.22    4.71
 -16   6 -12    2.81    2.22
  16   7   0   11.87    8.06
 -16  -7   0   14.43    8.41
  16  -7   0    9.91   10.44
  16  -7   1  144.00   36.93
  16  -7   1  172.10   62.70
  16   7   1  152.74   39.19
 -16  -7   1  176.82   45.58
 -16   7  -1  180.62   45.85
 -16   7  -1  152.63   55.65
  16  -7   2    7.34    6.89
  16   7  -2    1.85    9.61
 -16  -7  -2  172.91   64.23
  16   7   2    2.41    7.05
 -16  -7   2    0.30   10.11
 -16   7  -2    7.55    6.81
 -16   7  -2  126.26   46.85
  16  -7   3   23.82    9.20
 -16  -7  -3   13.22    7.98
 -16  -7  -3   12.97    7.84
  16   7   3   10.91    8.02
 -16   7  -3   10.43    7.76
  16  -7   4   13.48    7.92
  16   7  -4   20.49    9.28
  16   7   4   13.59    8.69
  16   7   4   18.03    8.69
 -16  -7   4   56.45   21.88
 -16   7  -4   13.21    7.41
  16  -7   5   27.65   15.48
  16   7  -5   12.52    6.56
  16   7  -5   14.00   11.60
 -16  -7  -5    9.19    6.66
  16   7   5   28.23   11.26
  16   7   5   21.96    9.54
 -16  -7   5    6.26    4.51
 -16  -7   5    7.32    8.04
 -16   7  -5   19.00    9.08
 -16   7   6   12.67    5.77
  16   7  -6    5.54    4.77
  16   7  -6    3.15    5.09
 -16  -7   6   10.24    7.60
 -16  -7   6    1.37    5.55
 -16   7  -6   10.52    7.12
 -16   7  -6   13.56    8.52
  16  -7   7   36.39   17.53
 -16   7   7   69.80   26.20
  16   7  -7   66.03   22.76
  16   7  -7   64.13   24.23
 -16  -7   7   98.17   33.52
 -16  -7   7   71.89   28.44
  16  -7  -7   72.62   27.08
 -16   7  -7   44.10   19.79
  16  -7   8    5.62    7.57
  16   7  -8    7.98    7.68
 -16  -7  -8    2.79    9.29
 -16  -7   8    4.39    5.92
 -16  -7   8   16.81   12.36
 -16  -7   8    3.32    5.69
 -16   7  -8    7.48    8.14
 -16   7  -8    5.56    6.56
  16   7  -9   22.98   12.15
  16   7  -9   32.76   12.41
 -16  -7   9   22.96   12.41
 -16  -7   9   36.07   13.84
 -16  -7   9   26.16   14.03
 -16   7  -9   21.02   11.35
  16   7 -10    9.27    6.88
  16   7 -10   20.23   13.39
  16   7 -10    3.35    5.82
 -16   7 -10   22.22   13.24
 -16  -7  11    6.03    5.96
  16   7 -12   11.73    6.86
  16   8   0   91.64   24.73
  16  -8   0   91.04   25.11
  16  -8   0   86.66   31.97
 -16   8   0   89.42   24.18
  16  -8   1  336.26   84.10
  16   8  -1  218.53   55.14
  16   8   1  320.25   80.27
 -16  -8   1  281.77   71.11
 -16   8  -1  246.87   62.06
 -16  -8  -2   18.63    8.92
 -16  -8  -2  359.98  131.44
  16   8   2   22.19    9.43
 -16  -8   2   31.85   12.07
 -16   8  -2   35.10   11.52
 -16   8  -2  403.42  146.65
  16  -8   3   11.61    7.68
  16   8  -3   12.71   12.29
 -16  -8  -3   15.26    8.26
 -16  -8  -3    3.58    6.83
  16   8   3   22.64    9.50
  16   8   3   20.55   11.20
  16  -8   4   70.74   19.30
  16   8  -4  117.85   44.30
 -16  -8  -4   26.53   12.20
  16   8   4   52.93   16.04
 -16  -8   4   90.89   34.28
 -16  -8   4   71.63   27.58
 -16   8  -4   44.28   13.29
  16   8  -5   16.95   11.53
 -16  -8  -5   54.63   20.94
  16   8   5   13.71    8.20
  16   8   5   45.05   17.30
 -16   8  -5    5.84    6.33
  16  -8   6    7.56    9.15
 -16   8   6    6.74    4.19
  16   8  -6   10.68    6.14
 -16  -8  -6    8.31    6.99
 -16  -8   6   24.88   14.34
 -16   8  -6   15.16    8.18
 -16   8   7   51.05   19.30
  16   8  -7   73.85   32.80
 -16  -8   7   97.24   42.48
 -16  -8   7  173.48   57.84
 -16  -8   7   33.41   15.56
  16  -8  -7   39.13   15.09
 -16   8  -7   64.68   28.57
  16   8  -8    2.36    4.54
 -16  -8  -8   11.38    9.42
 -16  -8   8   12.28    8.35
 -16  -8   8    2.92    6.01
  16  -8  -8   11.00    5.32
 -16   8  -8   29.01   13.72
  16   8  -9   22.50   11.84
  16   8  -9    1.90    6.82
  16   8  -9    2.77    5.06
 -16  -8   9    5.72   10.16
 -16  -8   9    4.56    5.80
  16   8 -10   33.06   16.04
  16   8 -10   23.80   10.11
 -16  -8  10   20.38   10.33
 -16   8 -10   70.71   31.25
  16   8 -11   16.05   10.06
  16   8 -11   40.47   14.83
 -16  -8  11   45.97   16.96
  16   8 -12    5.24    5.80
  16   9   0   12.52    8.98
  16  -9   0   24.84   12.87
  16  -9   0    4.27    4.23
 -16   9   0   -2.07    8.56
 -16   9   0   11.22    7.05
  16  -9   1    8.85    7.30
  16  -9   1   13.25    7.58
  16   9  -1   32.17   11.69
  16   9  -1   23.42   14.04
 -16  -9  -1    5.79    7.44
  16   9   1    5.50    7.59
 -16   9  -1   41.75   13.37
 -16   9  -1   22.80   10.05
  16   9  -2   35.83   13.56
 -16  -9  -2   41.63   13.44
  16   9   2   28.83   10.54
 -16  -9   2   22.06   10.99
 -16  -9   2   10.67   11.55
 -16   9  -2   46.08   13.96
 -16   9  -2   42.32   18.47
  16  -9   3    5.95    6.78
  16   9  -3   37.83   17.39
 -16  -9  -3    4.60    7.18
  16   9   3   11.01    7.50
  16   9   3    8.51    8.42
 -16  -9   3   17.15    9.03
 -16   9  -3   18.19    7.60
  16  -9   4    1.25    6.04
  16   9  -4   11.28    6.55
  16   9   4    0.77    6.72
 -16  -9   4    3.76   11.47
 -16   9  -4    3.71    5.49
  16  -9   5    3.81    5.99
  16   9  -5   13.02    7.61
  16   9   5    8.73    5.92
  16   9   5    0.73    7.02
 -16  -9   5    5.86    5.14
 -16   9  -5    5.72    6.12
 -16   9   6   10.97    5.48
  16   9  -6    8.07    5.31
  16   9   6   19.41    9.16
 -16   9  -6    5.61    6.85
  16  -9   7   12.98    7.13
  16   9  -7   11.10    9.85
  16   9  -7   -1.56    8.71
  16   9   7    5.79    6.72
 -16  -9   7   24.10   13.72
 -16   9  -7   -1.14    5.74
  16   9  -8    7.00    7.99
 -16  -9  -8    0.84    8.61
 -16  -9   8    2.33    6.65
 -16  -9   8    6.38    6.02
  16  -9  -8    4.56    4.18
 -16   9  -8    4.21    6.06
  16   9  -9   12.57    6.96
 -16  -9   9   25.77   11.40
 -16   9  -9    4.79    5.50
  16   9 -10    3.95    5.17
  16   9 -12   -0.80    5.19
  16  10   0 1136.52  374.50
  16  10   0  862.93  214.50
 -16 -10   0 1011.07  333.03
 -16 -10   0  801.30  199.29
  16 -10   0  701.54  254.23
 -16  10   0 1088.48  270.36
 -16  10   0 1059.46  383.95
  16 -10   1  463.89  168.30
  16  10  -1  173.02   59.21
 -16 -10  -1  395.81   99.05
  16  10   1  403.88  100.93
  16  10   1  169.22   58.02
  16 -10  -1  399.15  144.92
  16 -10   2  351.12   87.77
  16  10  -2  389.01   97.65
 -16 -10  -2  387.75   96.96
 -16 -10  -2  574.71  208.97
  16  10   2  382.33   95.59
 -16 -10   2  327.27  109.29
 -16  10  -2  635.42  230.62
  16 -10   3   65.51   17.76
  16  10  -3   19.30   13.05
  16  10  -3   66.08   26.35
 -16 -10  -3   55.18   15.71
  16  10   3   36.77   11.82
  16  10   3   81.41   30.46
  16 -10   4   81.96   21.76
  16  10  -4   83.69   31.59
 -16 -10  -4   91.58   24.65
 -16 -10  -4   79.87   30.02
  16  10   4   48.13   14.49
  16  10   4   40.73   16.60
 -16 -10   4   68.68   26.17
  16 -10   5   13.04    6.31
  16  10  -5   12.69   10.62
 -16 -10  -5    8.44    7.63
  16  10   5   11.70    7.42
 -16 -10   5   19.06    8.62
 -16 -10   5   10.57   11.00
 -16  10   6    3.18    3.95
  16  10  -6    7.92    5.52
 -16 -10  -6    8.67    6.69
  16  10   6   10.06    6.59
 -16 -10   6   18.30   14.95
 -16  10  -6    5.60    6.64
 -16  10   7   17.24    7.60
 -16 -10   7    0.98    7.87
 -16 -10   7   28.32   16.53
  16 -10  -7   11.36    5.95
 -16  10   8   14.98    7.09
  16  10  -8    9.67    9.96
  16 -10  -8   11.66    5.84
 -16  10  -8   11.29    7.78
  16  10  -9   35.84   17.43
 -16 -10   9  106.89   36.40
 -16  10  -9   18.30   10.09
  16  10 -10   17.98    8.00
 -16 -10  10   38.12   14.66
  16  10 -11    1.04    4.98
  16  11   0   40.99   13.33
 -16 -11   0   12.22    8.46
 -16 -11   0   30.50   15.76
  16 -11   0    0.56    9.50
 -16  11   0    8.78    7.97
  16 -11   1   56.95   16.68
  16  11  -1   34.22   11.80
  16  11  -1   42.35   18.94
 -16 -11  -1   80.18   21.66
  16  11   1   63.80   17.83
  16  11   1   70.17   26.33
 -16 -11   1   55.29   16.20
 -16  11  -1   40.01   13.89
  16 -11   2    6.81    6.95
  16  11  -2    2.69   10.74
 -16 -11  -2   22.20    9.16
 -16 -11  -2   57.40   23.97
 -16 -11  -2    8.79   10.67
  16  11   2    5.91    6.40
  16  11   2   18.71   13.17
 -16  11  -2   15.14    7.62
 -16  11  -2   62.09   24.87
  16 -11   3    6.71    5.92
  16  11  -3   14.46   11.72
  16  11  -3   32.23   13.19
  16  11  -3   26.26   14.05
 -16 -11  -3    7.49    7.01
 -16 -11  -3    3.06    6.52
  16  11   3   14.83    7.28
  16  11   3   14.68    8.05
 -16 -11   3   27.73   16.58
 -16 -11   3   21.58    9.79
 -16  11  -3    8.54    5.64
  16 -11   4   10.79    6.29
  16  11  -4    3.81    5.77
 -16 -11  -4    7.20    6.26
  16  11   4   17.66    9.58
  16  11   4    7.98    6.91
 -16 -11   4    7.80    5.92
 -16 -11   4   14.41   11.98
  16 -11   5    5.06    4.90
  16  11  -5    5.29    5.08
  16  11   5    8.59    6.65
  16  11   5    7.39    6.10
 -16 -11   5    3.76    4.72
 -16  11  -5    1.50    5.42
 -16  11   6    6.05    4.66
  16  11  -6   11.68    6.80
 -16 -11  -6   34.31   14.20
 -16  11  -6   11.11    7.57
  16 -11   7   14.93    7.40
 -16  11   7    0.97    3.78
 -16 -11  -7    1.81    6.24
  16  11   7    6.31    7.36
  16 -11  -7    2.05    4.27
 -16  11   8    7.11    4.93
  16  11  -9   10.48   10.39
 -16 -12   0   77.62   30.73
 -16 -12   0   96.30   25.84
  16 -12   0   57.54   18.83
  16 -12   0   47.68   18.83
 -16  12   0   43.29   14.13
 -16  12   0   90.80   33.90
  16 -12   1   18.94    9.78
 -16  12   1   11.93    7.08
  16  12  -1   31.72   16.47
  16  12  -1   12.95    8.08
 -16 -12  -1   14.16    8.13
  16  12   1   12.11    7.45
  16  12   1   37.46   17.42
 -16 -12   1   25.00   10.89
  16 -12  -1   13.60    7.23
 -16  12  -1   17.49   10.03
 -16  12  -1   15.76    8.15
  16 -12   2   55.49   15.90
  16  12  -2   41.41   15.33
 -16 -12  -2   41.11   12.53
 -16 -12  -2   98.73   38.31
 -16 -12  -2   36.54   17.28
  16  12   2   42.59   12.84
 -16 -12   2   35.76   13.28
 -16 -12   2   68.48   26.44
 -16 -12   2   46.46   19.88
 -16  12  -2   89.15   34.13
  16  12  -3   -4.78   10.75
 -16 -12  -3    2.99    6.18
 -16 -12  -3    2.68    6.44
 -16 -12  -3    5.75   11.62
  16  12   3    3.65    6.23
  16  12   3   33.27   17.36
 -16 -12   3   -2.53    8.21
 -16  12  -3   -3.45    5.22
  16 -12   4    6.51    5.69
  16  12  -4    8.81    6.65
 -16 -12  -4    6.10    6.65
 -16 -12  -4   18.74   12.78
  16  12   4    6.36    7.05
  16  12   4    6.75    7.86
  16  12   4   13.60   12.80
 -16 -12   4    5.58    5.23
  16 -12   5   11.00    5.67
  16  12  -5   11.57    6.89
  16  12   5   21.44    9.04
  16  12   5   59.49   22.69
 -16 -12   5   21.99    9.66
 -16  12   6    3.02    4.54
  16  12  -6    1.03    5.12
 -16 -12  -6    6.66    6.54
  16  12   6    7.05    5.93
  16  12   6   15.70   12.01
  16 -12   7   36.01   11.34
 -16  12   7   24.93   10.40
 -16 -12  -7   17.06    8.79
  16  12   7   15.24    8.74
  16  12   7   13.26    7.67
  16 -12  -7   29.99   12.59
 -16  12   8   44.62   17.33
  16  13   0  804.30  199.98
 -16 -13   0  813.05  202.28
 -16 -13   0  323.93  108.38
  16 -13   0  533.59  193.76
  16 -13   1    4.64    7.92
 -16  13   1   32.49   13.50
  16  13  -1   23.51    9.78
 -16 -13  -1   16.73    8.44
  16  13   1   21.45    8.50
 -16 -13   1   26.05   10.42
  16 -13  -1   27.51   12.25
 -16  13  -1   46.41   14.57
 -16  13  -1   54.53   20.94
  16 -13   2  126.26   32.54
  16  13  -2   80.11   22.41
  16  13  -2  111.93   42.03
 -16 -13  -2  100.00   26.47
 -16 -13  -2  295.71  108.41
 -16 -13  -2   83.81   31.68
  16  13   2   59.06   16.68
  16  13   2   79.15   31.28
 -16 -13   2  109.98   41.48
 -16 -13   2   85.77   23.94
 -16  13  -2  192.61   71.05
  16  13  -3    7.02    9.69
  16  13  -3   14.48    7.72
 -16 -13  -3   27.69   10.26
 -16 -13  -3    9.12    8.20
  16  13   3   10.71    6.61
  16  13   3   16.05   12.64
 -16 -13   3   37.27   15.48
 -16 -13   3   16.82   11.61
 -16  13  -3   31.62    9.99
  16 -13   4   42.67   12.04
  16  13  -4   52.81   20.77
 -16 -13  -4   61.92   17.20
 -16 -13  -4   52.17   21.22
 -16 -13  -4   42.50   18.88
  16  13   4   73.36   20.08
  16  13   4   58.55   23.32
  16 -13   5    6.98    4.80
  16  13  -5    4.41    5.69
 -16 -13  -5   11.34    8.46
 -16 -13  -5  122.11   43.59
  16  13   5   12.34    7.86
 -16 -13   5    4.01    4.70
 -16  13   6    9.31    5.99
  16  13  -6   11.49    7.31
 -16 -13  -6   39.17   16.09
  16  13   6    9.71    6.77
  16  13   6   40.93   17.73
  16 -13   7   40.98   12.05
 -16 -13  -7   16.43    8.80
  16  13   7   14.78    8.37
  16  13   7   13.02    7.42
 -16  13   8   40.07   15.83
  16  14   0    6.91    6.64
 -16 -14   0    2.51    7.69
  16 -14   0    1.56    8.34
  16 -14   0    1.67    6.09
 -16  14   0    6.94    7.72
  16 -14   1    8.06    6.91
  16 -14   1   -2.47    6.76
 -16  14   1    5.93    6.04
  16  14  -1    2.77    6.28
 -16 -14  -1    3.87    5.62
  16  14   1    9.10    6.30
 -16 -14   1    7.96    7.30
 -16  14  -1    6.53    7.15
 -16  14  -1    3.30    6.45
  16 -14   2   11.60    6.27
 -16  14   2    5.13    6.65
  16  14  -2   21.69   10.56
  16  14  -2    6.65    5.98
 -16 -14  -2    6.05    6.05
 -16 -14  -2   38.90   19.86
 -16 -14  -2    9.57   10.86
  16  14   2    6.60    6.38
 -16 -14   2   13.18    7.82
 -16 -14   2   12.18    9.88
 -16  14  -2   30.67   16.67
 -16  14  -2    7.03    5.95
  16 -14   3    5.57    4.71
  16  14  -3   -5.69    8.15
  16  14  -3    6.40    6.05
 -16 -14  -3    4.14    5.59
 -16 -14  -3   -0.59    7.59
  16  14   3    3.58    4.84
 -16 -14   3    2.47    5.19
 -16 -14   3   -1.09    9.79
 -16  14  -3    6.37    4.88
  16 -14   4    7.48    4.63
  16  14  -4   10.66    7.05
 -16 -14  -4    8.55    6.68
 -16 -14  -4    5.19   10.54
 -16 -14  -4    3.77    7.39
  16  14   4    7.75    6.75
  16  14   4   17.59   12.26
 -16 -14   4    1.11    4.81
 -16  14  -4    8.73    5.12
  16 -14   5   20.55    7.03
  16  14  -5    5.54    6.11
 -16 -14  -5   10.59    8.38
  16  14   5   18.15    9.41
 -16  14   6    6.93    5.54
  16  14  -6    2.39    5.26
 -16 -14  -6    8.29    7.11
  16  14   6   17.69   15.27
 -16  14   7   -0.43    4.10
 -16  14   8    6.65    5.17
 -16  15   0  160.58   59.10
  16 -15   1    5.21    7.27
 -16 -15  -1   14.93    7.39
 -16 -15   1   21.78   10.31
 -16 -15   1   28.93   10.79
  16 -15   2  133.40   34.02
 -16  15   2  112.50   41.67
  16  15  -2   83.31   31.69
 -16 -15  -2  116.93   30.31
 -16 -15  -2  111.13   43.05
 -16 -15   2  104.44   28.50
 -16  15  -2   84.42   33.79
 -16  15  -2  111.00   28.76
  16 -15   3   19.05    6.50
  16  15  -3   48.97   19.47
  16  15  -3    0.38    9.03
 -16 -15  -3   22.15   11.42
 -16 -15  -3    7.55    6.88
 -16 -15   3    8.14   10.52
 -16  15  -3    5.32    5.09
  16 -15   4    6.75    4.67
  16  15  -4    3.96    6.06
 -16 -15  -4    4.59    6.71
  16  15   4    8.78    6.43
  16 -15   5   11.07    5.18
  16  15  -5   37.69   15.74
 -16 -15  -5   13.37    8.67
  16  15   5   15.90    8.21
  16  15   5    8.86    7.97
 -16  15   6   -0.78    4.26
  16  15  -6    3.32    5.36
  16  15   6    3.95    6.12
 -16  15   7   21.44    9.55
  16  15   7   54.72   21.15
 -16 -16   0   16.27    8.89
 -16  16   0   18.34    9.80
  16 -16   1    1.47    6.14
 -16  16   1   16.96    9.44
 -16 -16  -1   14.00    7.77
 -16 -16   1   18.39    8.42
 -16  16  -1   -3.34    6.96
  16 -16   2    5.88    5.30
 -16  16   2   11.80    7.86
  16  16  -2    2.54    4.96
 -16 -16  -2   59.43   25.75
 -16 -16   2    9.55    8.29
 -16  16  -2    5.75    5.60
  16 -16   3   13.86    5.85
  16  16  -3   14.15    7.85
 -16 -16  -3    0.22    6.56
  16 -16   4   13.73    5.59
  16  16  -4   24.01   11.21
 -16 -16  -4   21.12   10.88
  16  16  -5   15.27    8.59
  16  16   5   18.88   11.51
 -16  16   6   13.98    7.43
  16  16  -6    4.02    5.88
  16  16   6   14.07    8.48
 -16  16   7    0.27    5.01
  16  17   0    3.94    5.61
 -16  17   0    3.58    6.54
  16 -17   1   -2.84    7.16
 -16  17   1   25.32   11.61
  16  17  -1    4.79    5.13
  16  17  -1   11.69    7.35
  16  17   1   13.27    6.46
 -16  17   2    3.24    5.59
 -16  17  -2   11.11   12.29
  16  17  -3   -0.45    4.80
  16  17  -3   -4.05    9.48
  16  17   3   -0.44    8.63
  16  17  -4    2.56    5.83
  16  17   4   -1.83    7.49
  16  17  -5    0.27    6.13
  16  17   5    3.99    7.98
 -16  17   6   -0.46    5.47
  16  18  -1  169.80   63.23
  16  18  -2   24.04   10.84
 -16  18  -2   15.39   13.05
  16  18   3   -7.55    8.69
  16  18  -4    2.85    6.11
  16  18   4   -1.55    9.92
  16  19  -1    8.83    6.43
 -16  19  -1    1.40    7.59
  17   0   0    0.34    7.77
 -17   0   0   11.26    6.09
  17   0   1   86.15   23.18
  17   0   1   75.83   25.53
 -17   0   1   85.77   23.58
  17   0  -1  117.50   31.20
 -17   0  -1  100.28   26.50
  17   0   2   36.29   11.91
  17   0   2  156.66   57.16
  17   0   2   12.50    5.92
 -17   0  -2   32.08   11.12
  17   0   3  119.11   30.95
  17   0   3  195.83   64.30
 -17   0  -3   86.93   23.06
 -17   0  -3  225.21   74.05
 -17   0  -3  140.66   51.23
  17   0   4   50.66   14.80
 -17   0  -4   24.95    9.80
  17   0   5  197.10   50.76
 -17   0  -5  113.53   29.97
  17   0   6  396.39   99.43
 -17   0   6  459.17  168.76
 -17   0  -6  423.69  106.19
  17   0   8   15.21    8.87
 -17   0  -8   17.21    9.36
  17   1   0    2.39    8.08
  17   1   0    0.54    5.24
 -17  -1   0   -2.05    7.32
 -17  -1   0    2.80    4.66
  17  -1   0   -0.48    6.82
  17  -1   1   15.93    7.96
 -17   1   1    9.23    8.89
  17   1  -1    7.34   10.21
  17   1  -1    5.71    5.96
 -17  -1  -1   35.05   11.80
 -17  -1  -1   12.43    6.74
  17   1   1   12.61    8.22
  17   1   1    6.79    5.92
 -17   1  -1   11.48    7.57
  17  -1   2    3.72    6.64
  17  -1   2    1.53    4.72
  17   1  -2   -0.83    9.93
  17   1  -2    3.93    6.08
 -17  -1  -2    7.34    5.35
 -17  -1  -2    9.42    7.52
  17   1   2    4.20    7.08
  17   1   2    2.81    7.96
 -17  -1   2   -3.66    9.71
 -17   1  -2    6.63    7.13
  17  -1   3    9.02    7.65
  17   1  -3   29.47   16.93
 -17  -1  -3    7.54    7.18
 -17  -1  -3   17.07    7.81
  17   1   3    8.87    6.95
  17   1   3   12.11    5.67
 -17   1  -3   10.88    6.97
  17  -1   4   20.02    8.79
  17  -1   4    2.47    2.66
 -17  -1  -4    2.24    6.77
 -17   1  -4   11.31    7.79
 -17   1  -4    6.55    3.73
  17  -1   5    6.11    6.51
 -17  -1  -5    6.01    7.64
 -17   1  -5    2.39    7.42
  17  -1   6    4.36    7.09
  17   1  -6    6.96    3.35
 -17  -1  -6    4.07    8.57
  17   1   6    6.05    9.18
 -17  -1   6    9.94    4.41
 -17   1  -6    7.78    8.94
  17  -1   8   14.69    8.57
 -17  -1  -8    6.03    8.14
  17   1   8   11.99    8.21
 -17   1  -8    9.11    8.05
  17   2   0    7.08    7.80
  17   2   0    7.34    5.77
 -17  -2   0    4.23    7.93
  17  -2   1   30.37   10.33
 -17   2   1   19.80    9.84
  17   2  -1   10.80    6.33
  17   2  -1    5.33    9.16
 -17  -2  -1   58.54   16.70
 -17  -2  -1   13.34    6.67
 -17  -2   1   17.26    9.33
 -17  -2   1   22.88    9.65
  17  -2   2   15.29    7.84
  17   2  -2   38.10   14.49
  17   2  -2   49.15   22.01
  17   2  -2   24.09    9.94
 -17  -2  -2   36.63   12.00
 -17  -2   2   85.33   36.98
 -17  -2   2   21.75    9.26
 -17   2  -2   19.27    8.17
 -17   2  -2   45.66   19.91
  17  -2   3   78.25   21.18
  17   2  -3    7.55    6.81
  17   2  -3    3.83    5.63
 -17  -2  -3   18.28    8.46
  17   2   3   39.60   15.18
 -17  -2   3   36.76   17.45
 -17   2  -3   76.26   20.71
  17  -2   4  312.30   78.33
  17   2  -4  193.41   83.83
 -17  -2  -4  213.34   54.05
 -17  -2  -4  143.08   52.25
 -17  -2   4   90.74   39.96
  17  -2   5   20.27    9.04
  17  -2   5   13.20    4.94
  17   2  -5    6.46    9.69
 -17  -2  -5   12.87    8.93
 -17   2  -5   12.15    8.13
  17  -2   6   22.66    9.34
  17   2  -6   27.00   10.42
 -17  -2  -6   23.12   10.61
 -17  -2   6   48.81   18.37
 -17   2  -6   84.51   27.76
 -17   2  -6   58.65   17.06
  17  -2   8   12.16    8.22
 -17  -2  -8    9.01    8.79
  17   2   8   10.64    7.86
 -17   2  -8   -0.21    7.04
  17   3   0   -0.06    6.80
 -17  -3   0   -0.15    6.99
 -17   3   0   17.99   10.14
  17  -3   1  209.77   52.92
 -17   3   1  182.47   46.91
  17   3  -1  197.68   50.65
  17   3  -1  199.75   65.87
 -17  -3  -1  194.22   49.28
  17   3   1  198.37   50.27
 -17  -3   1  207.58   52.89
 -17  -3   1  263.33   86.68
  17  -3  -1  187.19   47.88
 -17   3  -1  188.34   47.75
  17  -3   2   93.97   24.74
  17   3  -2   41.62   15.85
 -17  -3  -2   78.82   21.27
  17   3   2   88.65   23.83
 -17  -3   2   44.52   15.00
 -17  -3   2   49.02   21.88
 -17  -3   2   58.97   20.60
  17  -3   3  223.37   96.13
  17  -3   3   95.54   25.19
  17   3  -3  202.05   66.77
  17   3  -3  189.27   81.67
 -17  -3  -3   87.12   23.33
 -17  -3   3  183.85   60.92
 -17  -3   3  495.46  212.65
 -17   3  -3  143.42   36.79
 -17   3  -3  295.71  126.95
  17  -3   4   12.37   11.46
  17  -3   4    8.62    6.95
 -17  -3  -4   10.27    7.60
 -17  -3  -4   15.23    7.32
  17   3   4   10.86    6.15
 -17  -3   4    2.51    5.66
 -17  -3   4    2.68    5.46
 -17   3  -4    7.09    7.05
  17  -3   5   10.19    7.58
  17   3  -5   23.23    9.78
  17   3  -5    3.94    7.39
 -17  -3  -5   23.03   10.32
 -17  -3   5   27.00   10.93
 -17  -3   5   19.66   11.99
 -17   3  -5   10.32    8.28
  17  -3   6    4.35    6.49
  17   3  -6    9.53    4.73
 -17  -3  -6   14.68   10.09
 -17  -3   6    8.45    9.33
 -17   3  -6    5.44    7.92
  17   3  -7   15.66   11.88
  17  -3   8   28.55   10.84
 -17  -3  -8   25.65   11.43
  17   3   8   17.89    9.32
 -17   3  -8   14.17    8.36
  17   4   0    7.72    7.65
 -17  -4   0    5.01    7.71
  17  -4   0   -0.57    8.31
 -17   4   0    8.99    9.84
 -17   4   1   12.18    9.48
  17   4  -1   12.03   11.30
 -17  -4  -1   14.73    8.71
  17   4   1   14.72    7.87
 -17  -4   1    9.30   10.03
  17  -4  -1    6.92   10.18
 -17   4  -1    6.23    7.66
  17  -4   2   14.73    7.83
  17   4  -2   20.24   12.96
  17   4  -2    7.11    5.87
 -17  -4  -2   17.61    8.51
 -17  -4   2    9.97   10.86
 -17  -4   2   14.89    8.17
 -17   4  -2   16.22    6.48
  17  -4   3    7.56    8.83
  17  -4   3    4.49    7.02
  17   4  -3   10.51    6.27
 -17  -4  -3    2.52    7.36
  17   4   3   21.90   10.51
 -17  -4   3   10.75    7.86
  17  -4   4   10.63    7.86
  17  -4   4    7.38    6.99
  17   4  -4    9.71    7.73
 -17  -4  -4    2.32    7.56
  17   4   4   16.32    7.93
  17   4   4    3.35    5.51
 -17  -4   4   84.92   37.04
 -17   4  -4    9.32    7.69
  17  -4   5    8.03    6.93
  17  -4   5   -2.61   10.86
  17   4  -5    2.90    5.83
  17   4  -5    7.34    4.32
 -17  -4  -5    5.76    8.44
 -17  -4   5    4.61    6.42
 -17  -4   5    3.77    4.34
 -17   4  -5    0.36    5.80
 -17   4  -5    3.29    6.93
  17  -4   6    5.69    6.22
  17   4  -6    2.68    3.80
  17   4  -6    3.60    6.09
  17   4  -6    0.21    5.15
 -17  -4  -6    8.84    9.41
 -17  -4   6    5.62    4.31
 -17  -4   6   -0.83    9.77
 -17  -4   6    0.98    5.18
 -17   4  -6   -2.26    9.71
 -17   4  -6    2.28    7.48
  17   4  -7    0.43    9.24
  17   4  -7    4.26    5.51
  17  -4  -7    7.86    3.49
 -17   4  -7    3.13    6.91
  17  -4   8    3.21    6.85
  17   4  -8    6.10   10.31
 -17  -4  -8    2.60    8.82
  17   4   8    3.79    7.09
 -17  -4   8   -0.29    7.90
 -17   4  -8    4.56    7.14
  17   4  -9   -0.38    7.56
 -17   4  -9    2.46    1.48
  17   5   0    4.16    6.81
 -17  -5   0    3.68    7.60
 -17   5   0    2.44    8.83
 -17   5   1   57.96   17.77
 -17  -5  -1   77.93   21.52
 -17  -5   1   85.97   24.24
  17  -5  -1  140.54   37.97
  17   5  -2    1.86    8.90
 -17  -5  -2   44.53   14.18
 -17  -5   2    6.12    9.44
 -17   5  -2    4.23    6.49
 -17   5  -2    7.02    4.80
 -17  -5  -3  242.15   61.20
 -17  -5  -3   34.64   13.79
  17   5   3  268.40   67.54
 -17  -5   3  110.67   37.29
  17  -5   4   93.79   40.96
  17   5  -4   75.61   33.72
  17   5  -4    5.49    5.50
 -17  -5  -4   15.15    8.62
 -17  -5   4  120.27   52.08
 -17  -5   4    3.18    5.96
 -17   5  -4    3.70    6.50
 -17   5  -4   38.46   17.72
  17   5  -5    3.66    6.61
 -17  -5  -5   12.26    6.90
 -17  -5  -5   12.54    8.93
 -17  -5   5   21.96    9.33
 -17  -5   5   13.87    7.83
 -17  -5   5   67.95   29.96
 -17   5  -5   30.87   14.20
 -17   5  -5    7.55    6.54
  17   5  -6    5.80    6.68
  17   5  -6    4.66    5.24
 -17  -5  -6   22.98   10.56
 -17  -5   6    8.80    6.47
 -17  -5   6   52.43   23.74
 -17   5  -6   21.78    9.05
 -17   5  -6   39.43   18.06
  17   5  -7  137.43   59.56
  17   5  -7  108.22   36.48
 -17  -5   7  292.02  125.80
 -17  -5   7  110.32   37.23
  17  -5   8   29.37   10.52
  17   5  -8   44.14   15.70
 -17  -5  -8   53.38   16.80
  17   5   8   33.43   11.62
 -17  -5   8   17.15    8.45
 -17   5  -8   34.35   11.68
  17   5  -9    8.36    7.75
  17   5  -9   25.25   10.35
 -17  -5   9    4.10    9.39
 -17   5  -9   54.37   24.71
  17   5 -10    1.55    6.66
  17   5 -10    2.58    6.42
  17   5 -11    2.59    8.00
 -17   5 -11   10.90    4.21
 -17  -6   0    6.44    7.72
  17  -6   0   14.19   11.07
 -17   6   0    5.78    8.83
  17  -6   1   25.01    9.14
  17  -6   1   54.04   20.02
 -17  -6  -1   42.63   13.62
  17   6   1   38.20   13.37
 -17  -6   1   18.70   10.84
 -17   6  -1   43.77   13.24
  17  -6   2   40.48   12.64
  17   6  -2    4.07    8.59
 -17  -6  -2    2.34    7.15
  17   6   2    3.07    6.45
  17   6   2   10.82   14.13
 -17  -6   2   14.70   10.66
 -17   6  -2    6.33    6.99
 -17   6  -2    9.26    5.80
  17  -6   3    5.35    6.72
 -17  -6  -3   13.12    7.79
 -17  -6  -3    9.86    6.12
  17   6   3   10.22    7.64
  17  -6   4    9.33    6.96
 -17  -6  -4    4.50    6.89
  17   6   4   17.94    8.45
 -17  -6   4   13.69    7.40
 -17  -6   4   31.85   12.22
 -17   6  -4   16.36    7.27
  17  -6   5    7.65    6.29
  17  -6   5   -4.07    7.29
  17   6  -5    5.70    3.97
  17   6  -5    2.23    7.78
 -17  -6  -5   14.53    8.79
  17   6   5   10.26    6.25
 -17  -6   5   13.81    8.06
 -17  -6   5    6.66    4.73
 -17  -6   5    4.56    5.84
 -17   6  -5   22.80    8.69
  17  -6   6    7.21    6.61
  17   6  -6   20.07    8.57
  17   6  -6   -0.15    6.70
  17   6  -6    6.23    5.57
 -17  -6  -6    7.57    8.08
 -17  -6   6   40.59   18.59
 -17  -6   6    1.48    3.62
 -17  -6   6   12.41    7.24
 -17   6  -6   26.36   12.35
 -17   6  -6   -0.36    6.28
 -17   6   7    7.52    3.76
  17   6  -7   13.63    8.81
  17   6  -7    5.77    5.57
 -17  -6   7    8.77    7.00
 -17  -6   7    5.68    6.43
  17  -6  -7    8.17    4.18
 -17   6  -7   25.11   12.12
  17   6  -8   -0.90    5.88
  17   6  -8    3.80    5.58
 -17  -6  -8    1.27    8.27
  17   6   8    4.64    6.64
 -17  -6   8    8.53    6.65
 -17   6  -8    6.27    7.67
  17   6  -9    2.63    4.67
 -17  -6   9    3.05    5.37
 -17   6  -9   -3.20    7.24
  17   6 -10    3.21    8.47
  17   6 -10    6.91    7.77
  17   6 -10    1.89    5.54
 -17  -6  10   -1.16    6.06
 -17   6 -10    2.03    7.43
  17  -6  11    1.54    1.91
  17   6 -11    2.84    5.19
 -17   6 -11    1.66    8.53
  17   6 -12   -1.38    4.76
 -17   6 -12    1.36    2.32
  17   7   0   21.35    8.96
 -17  -7   0    0.36    7.37
  17  -7   0    1.58    8.68
 -17   7   0   -0.42    9.22
  17  -7   1   29.67   10.40
 -17  -7  -1   30.05   10.99
  17   7   1   30.03   10.78
 -17  -7   1   25.22   11.81
  17  -7  -1   71.78   21.37
 -17   7  -1   36.63   11.82
 -17   7  -1   68.85   25.41
 -17  -7  -2   51.05   15.51
  17   7   2   41.67   13.14
 -17  -7   2   30.05   12.31
 -17   7  -2   56.32   16.13
  17  -7   3  175.56   44.62
  17   7   3  123.61   45.89
 -17   7  -3  124.87   32.34
  17  -7   4   37.50   11.73
 -17  -7  -4   48.14   14.77
 -17  -7   4   21.16    9.45
 -17   7  -4   36.11   11.74
  17  -7   5  139.51   35.85
  17  -7   5  294.90  127.06
  17   7  -5  374.15  137.66
 -17  -7  -5  130.17   33.99
 -17  -7  -5  178.09   65.05
 -17  -7   5  181.89   67.25
 -17  -7   5  158.27   68.53
  17  -7   6   20.08    8.21
  17   7  -6   25.55   10.53
  17   7  -6   14.13    6.95
 -17  -7  -6   17.46    9.36
 -17  -7  -6   20.01   10.07
 -17  -7   6    6.59    7.04
 -17  -7   6   16.44    7.32
 -17  -7   6   13.29    8.21
 -17   7  -6    8.25    6.37
 -17   7  -6   33.18   11.33
 -17   7   7   15.15    6.38
  17   7  -7   10.37    6.18
 -17  -7   7   50.04   22.65
  17  -7  -7   32.53   12.54
 -17   7  -7   25.63   12.25
  17  -7   8    2.04    6.46
  17   7  -8    2.98    8.67
  17   7  -8    1.75    6.72
 -17  -7  -8   10.75    9.87
  17   7   8    4.85    7.38
 -17  -7   8   -0.46    5.61
 -17  -7   8    1.88    9.14
  17  -7  -8    4.69    3.23
 -17   7  -8    0.91    6.22
  17   7  -9   12.34    9.47
  17   7  -9    0.64    5.74
  17   7  -9    5.70    5.63
 -17  -7   9    8.55    6.82
 -17   7  -9   -0.01    5.32
  17   7 -10    2.58    5.65
  17   7 -10    4.02    5.80
 -17   7 -10    0.97    9.22
 -17  -7  11   45.02   16.88
  17   7 -12   28.28   11.84
  17   8   0    6.58    7.40
 -17  -8   0    5.11    6.62
  17  -8   0    6.22    9.75
  17  -8   0    6.59    4.57
  17  -8   1   10.36    7.61
  17  -8   1   42.47   16.18
  17   8  -1   43.95   13.56
 -17  -8   1   35.83   13.34
 -17   8  -1   42.65   13.02
 -17   8  -1   42.81   16.36
  17   8  -2  119.92   32.75
  17   8   2   82.02   22.00
  17   8   2  274.97  101.20
 -17  -8   2   98.01   26.71
 -17   8  -2  103.75   27.20
  17  -8   3  281.08   70.51
  17   8   3  326.01   81.70
  17   8   3  321.97  117.16
 -17   8  -3  303.77   76.04
  17  -8   4  333.38   83.48
  17   8  -4  604.32  222.10
  17   8  -4  595.10  197.45
 -17  -8  -4  498.91  181.09
  17   8   4  375.88   94.14
 -17  -8   4  816.05  299.85
  17  -8   5   70.72   19.13
  17   8  -5   52.64   20.25
 -17  -8  -5   71.24   19.84
  17   8   5   85.00   31.53
 -17  -8   5   54.97   20.93
  17  -8   6   58.61   16.36
  17   8  -6   38.98   15.29
  17   8  -6   69.92   26.32
 -17  -8  -6   24.72   11.24
 -17  -8  -6   54.97   21.24
 -17  -8   6   69.12   26.03
 -17  -8   6   42.88   18.58
 -17  -8   6   23.18   12.56
 -17   8   7    4.94    3.32
  17   8  -7    7.11    7.01
  17   8  -7   13.80   10.86
 -17  -8   7   47.93   17.53
 -17  -8   7    7.76   13.33
  17  -8  -7   12.57    6.08
 -17   8  -7   47.99   21.59
  17  -8   8   21.51    9.62
  17   8  -8   60.12   20.89
  17   8   8   20.31   10.13
 -17  -8   8   53.02   19.08
 -17  -8   8   77.95   28.98
  17  -8  -8   55.16   20.82
 -17   8  -8   53.95   23.94
  17   8  -9   30.14   14.16
  17   8  -9   77.87   34.77
  17   8  -9   22.60    9.66
 -17  -8   9   37.83   14.77
  17   8 -10  251.82  108.67
  17   8 -10  235.12   77.67
 -17  -8  10  202.51   67.45
 -17   8 -10  249.29  107.43
  17   8 -11    5.68    5.23
  17   9   0    4.88    7.06
  17  -9   0   -0.36    9.50
  17  -9   0    3.33    3.70
 -17   9   0    3.10    7.97
 -17   9   0    0.42    4.84
  17  -9   1   45.01   13.80
  17   9  -1   24.34   10.63
  17   9   1    8.88    7.11
 -17   9  -1   28.22   11.50
  17  -9   2    1.80    6.26
  17   9  -2    6.24   10.09
  17   9  -2    5.48   10.59
  17   9   2    6.58    6.24
  17   9   2    2.03   12.72
 -17  -9   2    9.22    9.52
 -17   9  -2   20.80    9.14
  17  -9   3    5.05    6.32
  17   9  -3    2.83   10.81
  17   9   3    3.76    6.36
  17   9   3    7.77    7.14
 -17   9  -3    4.52    5.72
  17  -9   4    5.81    6.33
  17   9  -4    7.24   10.90
  17   9  -4   15.44    7.33
 -17  -9  -4    5.06    5.80
  17   9   4    4.30    6.13
  17   9   4    1.66    6.53
 -17  -9   4    6.14    5.18
 -17  -9   4    7.51   12.79
  17  -9   5   11.11    6.54
  17   9  -5   29.81   15.08
  17   9  -5    8.87    5.60
 -17  -9  -5   11.66    7.32
 -17  -9  -5    6.75    6.75
  17   9   5    2.21    4.39
 -17  -9   5    8.29   11.47
  17  -9   6    4.54    5.86
  17   9  -6    5.20    4.71
 -17  -9  -6    5.96    8.27
  17   9   6   11.41    6.84
 -17  -9   6    6.74    4.79
 -17  -9   6   10.18   11.45
 -17   9   7    6.81    4.13
  17   9  -7    3.79    8.63
  17   9  -7    4.26    9.08
 -17   9  -7    0.88    5.81
  17  -9   8    3.84    6.38
 -17   9   8    5.43    3.97
  17   9  -8    2.83    6.65
  17   9   8    4.73    7.46
 -17  -9   8    4.69    6.01
  17  -9  -8    4.63    3.78
 -17   9  -8    6.99    5.91
  17   9  -9    0.14    4.97
 -17  -9   9    1.18    6.04
 -17   9  -9   12.90    7.65
  17   9 -10    2.01    4.93
 -17   9 -10    3.91    7.15
  17  10   0    4.44    7.66
  17  10   0   10.02   11.29
 -17  10   0    4.01    9.28
 -17  10   0    6.24    6.79
  17 -10   1   27.50   10.67
  17 -10   1   11.35    6.61
  17  10  -1   26.14   10.33
 -17 -10  -1   11.18    7.36
  17  10   1   15.95    7.98
 -17 -10   1   10.19   12.61
 -17  10  -1   16.78    8.26
  17 -10   2   15.84    7.99
  17  10  -2   12.69   10.50
  17  10  -2    8.60   10.76
 -17 -10  -2    2.98    5.87
  17  10   2    5.23    6.21
 -17  10  -2   22.83    9.36
  17  10  -3   11.03   11.85
  17  10   3   52.82   15.32
  17  10   3   79.61   30.15
 -17 -10   3   15.06    7.75
 -17 -10   3   20.64   14.45
 -17  10  -3   21.96    8.15
  17 -10   4   24.59    9.15
  17  10  -4   92.19   34.62
  17  10   4   28.89    9.99
  17  10   4   60.93   23.42
 -17 -10   4   59.67   22.92
 -17 -10   4  117.16   41.12
 -17  10  -4   15.53    7.13
  17 -10   5    3.11    5.28
  17  10  -5    2.94   10.00
  17  10  -5    7.66    5.63
 -17 -10  -5    2.96    8.18
  17  10   5    4.99    6.62
  17  10   5    6.11    5.51
 -17 -10   5    5.56    4.49
  17 -10   6   24.62    8.38
 -17 -10  -6   18.86    9.64
 -17 -10   6   67.24   25.48
 -17 -10   6   57.76   25.34
  17 -10   8    7.17    6.77
  17  10  -8  108.95   48.07
  17  10   8   11.91    8.34
 -17  10  -8   63.17   28.10
  17  10  -9    3.84    7.65
 -17 -10   9   12.61    7.15
 -17  10  -9    3.81    5.77
  17  10 -10    5.29    4.94
  17  10 -11    1.94    5.25
  17  11   0   12.67   11.92
  17  11   0    2.33    7.85
 -17 -11   0    6.44    7.50
  17 -11   0    8.29    5.81
 -17  11   0    3.33    5.70
  17 -11   1   13.14    8.27
  17 -11   1    4.02    5.18
  17  11  -1   14.66    8.39
 -17 -11  -1   12.60    7.32
 -17 -11  -1    4.57   10.96
  17  11   1   13.84   15.09
  17  11   1    8.18    7.06
 -17 -11   1   14.87    9.15
 -17 -11   1   45.58   20.47
  17 -11  -1    2.81    5.07
 -17  11  -1   31.78   13.33
  17 -11   2   -2.29    6.30
  17  11  -2    3.33   10.11
 -17 -11  -2   -3.79    5.94
  17  11   2   -4.67    6.01
  17  11   2    9.14   11.02
 -17 -11   2    2.72    9.45
 -17 -11   2    6.84   10.85
 -17  11  -2   13.31   10.45
  17  11  -3    7.71   11.51
  17  11  -3   36.17   14.50
  17  11  -3   21.93   13.75
 -17 -11  -3   15.67    9.33
 -17 -11  -3    5.61    6.56
  17  11   3    7.08    6.61
 -17 -11   3    6.36    5.87
  17 -11   4    6.29    6.25
  17  11  -4    6.73   10.72
  17  11  -4    7.18    5.45
  17  11   4   10.53    6.93
  17  11   4    1.01    6.62
 -17 -11   4    5.12   11.15
  17 -11   5   11.91    5.77
  17  11  -5   48.26   18.97
  17  11   5   21.38    8.25
  17  11   5   54.91   20.94
 -17 -11   5   23.60   10.10
  17 -11   6    3.20    5.54
 -17 -11  -6    1.58    8.52
 -17 -11  -6    7.54    6.39
  17  11   6    5.99    5.22
 -17 -11   6    3.94    4.66
 -17 -11   6   20.32   13.03
 -17  11   7    2.81    3.63
 -17 -11  -7    4.78    6.45
  17  11   7    3.91    5.00
  17 -11  -7    8.89    5.80
 -17  11   8    5.80    4.35
  17  12   0   11.02    8.42
 -17 -12   0   11.63    8.47
 -17 -12   0   15.61   13.97
  17 -12   0    0.36    9.68
 -17  12   0   34.09   12.99
 -17  12   0   24.91   11.11
  17 -12   1    8.96    8.21
 -17  12   1   10.46    7.24
  17  12  -1   24.59    9.94
  17  12  -1    6.61   12.52
 -17 -12  -1    4.21    6.97
 -17 -12  -1    7.47   12.49
  17  12   1    2.47    7.02
 -17 -12   1    8.36    7.96
  17 -12  -1   15.78    7.81
 -17  12  -1    0.56    7.86
  17 -12   2   96.18   25.50
  17  12  -2   77.68   22.72
  17  12  -2  122.22   43.37
 -17 -12  -2   67.04   18.80
  17  12   2   82.77   22.30
  17  12   2  144.69   50.33
 -17 -12   2   83.78   23.21
 -17 -12   2  108.93   39.22
 -17  12  -2  150.11   55.72
  17 -12   3   81.06   21.60
  17  12  -3   26.15   11.32
 -17 -12  -3   69.57   18.88
 -17 -12  -3   17.30   10.35
 -17 -12  -3   27.52   15.18
  17  12   3   58.78   23.95
  17  12   3   80.57   21.65
 -17  12  -3   57.81   15.80
  17 -12   4  167.84   42.45
  17  12  -4  296.40  109.44
 -17 -12  -4  242.49   61.40
 -17 -12  -4  255.73   93.77
  17  12   4  227.40   57.44
  17  12   4  473.45  172.21
  17  12   4  439.01  146.53
 -17 -12   4  421.27  155.16
 -17 -12   4  303.77  101.83
 -17  12  -4  255.27   63.98
  17 -12   5   14.22    6.35
  17  12  -5   35.83   14.61
 -17 -12  -5    7.76    8.15
  17  12   5   20.47    8.85
  17  12   5   26.47   11.72
 -17 -12   5   17.72    8.55
  17 -12   6   61.39   16.69
  17  12   6   32.07   12.99
 -17 -12   6   27.59   11.70
 -17  12   7    6.08    4.77
  17  12   7    7.39    6.29
 -17  12   8   21.47    9.15
  17  13   0   10.08   11.39
  17  13   0    1.11    6.89
 -17 -13   0    4.39   11.00
 -17 -13   0    6.46    7.08
  17 -13   0   -4.50   10.06
  17 -13   0    5.73    6.67
 -17  13   0   15.64    8.81
  17  13  -1  362.52   90.99
 -17 -13  -1  412.63  103.09
  17  13   1  375.42   93.87
 -17 -13   1  429.11  107.51
  17 -13  -1  395.24  143.54
 -17  13  -1  327.04   82.24
 -17  13  -1  434.98  158.04
  17 -13   2  296.05   74.22
  17  13  -2  160.81   42.44
 -17 -13  -2  192.38   48.69
  17  13   2  204.59   51.72
  17  13   2  107.69   39.19
 -17 -13   2  144.23   38.01
 -17 -13   2   97.13   36.84
 -17 -13   2  120.04   42.56
  17 -13  -2  166.11   60.95
 -17  13  -2  160.58   59.78
 -17  13  -2  198.60   50.34
  17 -13   3  525.30  130.64
  17  13  -3  303.66   77.07
 -17 -13  -3  322.78   80.93
 -17 -13  -3  546.84  198.83
 -17 -13  -3  579.43  191.92
  17  13   3  402.61  100.65
 -17 -13   3  323.01   81.69
 -17  13  -3  449.27  111.91
  17  13  -4   25.18   11.08
 -17 -13  -4   29.50   13.87
  17  13   4   63.96   24.49
 -17 -13   4   32.30   13.48
  17 -13   5  186.73   47.06
 -17 -13  -5  202.86   74.49
  17  13   5  179.24   45.77
  17  13   5  217.95   74.04
 -17 -13   5  235.46   87.18
  17 -13   6   10.33    5.74
 -17 -13   6    5.91    5.66
 -17  13   7    6.75    5.05
  17  13   7  128.68   47.38
  17  14   0    1.81    6.39
 -17 -14   0    8.73    7.43
 -17 -14   0    2.52   11.19
  17 -14   0    0.93    9.96
 -17  14   1    7.35    6.36
  17  14  -1    5.73    7.16
 -17 -14  -1    8.44    6.64
  17  14   1    8.44    6.05
 -17 -14   1    1.24    7.03
 -17  14  -1    0.39    7.92
 -17  14  -1    4.57    6.71
  17 -14   2   12.90    7.02
  17  14  -2   -0.64    8.93
 -17 -14  -2    4.04    6.14
 -17 -14  -2   25.27   14.20
  17  14   2    7.78    6.24
  17  14   2   15.55   11.73
 -17 -14   2    3.44    9.68
 -17 -14   2    1.75    5.44
 -17  14  -2   24.56    9.58
 -17  14  -2   13.98   12.03
  17 -14   3    6.74    5.24
  17  14  -3   -1.47    7.87
 -17 -14  -3    6.13    6.69
 -17 -14  -3   -1.84    7.03
  17  14   3   10.50    6.74
 -17 -14   3    3.48    6.15
 -17 -14   3   -3.13    9.48
 -17 -14  -4   21.65   10.61
  17  14   4   15.57    7.71
  17  14   4   13.71   11.44
  17 -14   5   -0.30    4.04
 -17 -14  -5    2.13    6.96
  17  14   5    3.80    6.47
  17  14   5    1.70    7.81
  17  14  -6   15.99    9.03
 -17  14   7    3.14    4.87
  17  14   7   21.52    9.89
  17  15   0    0.89    6.23
 -17 -15   0    1.71    7.39
  17 -15   0   -3.07    7.84
 -17  15   0    5.86    7.50
  17 -15   1   14.73    7.74
 -17  15   1    6.12    6.15
  17  15  -1   19.80    9.57
  17  15   1   15.99    7.44
 -17 -15   1   11.33    8.69
 -17  15  -1    6.21    6.69
  17 -15   2    3.57    5.08
 -17  15   2    0.70    5.90
  17  15  -2    3.37    5.07
  17  15   2    4.79    6.01
 -17  15  -2    8.47   10.82
  17 -15   3   88.15   22.85
  17  15  -3  126.14   47.23
  17  15   3  120.15   31.33
  17  15  -4    4.32    5.29
 -17 -15  -4    2.64    7.30
  17  15   4   11.41    7.27
  17  15  -5   15.78    8.14
  17  15   5   13.51    9.75
  17  15  -6    3.89    5.58
  17  15   6    8.77    7.24
 -17  15   7    6.13    6.00
  17 -16   0   -3.85    6.89
 -17  16   0    4.05    6.83
  17 -16   1    3.83    7.74
 -17  16   1    9.38    8.03
 -17  16  -1    5.17    6.33
 -17  16   2   62.11   24.06
  17  16  -2   30.81   12.90
  17  16   2   50.69   14.68
 -17  16  -2   40.76   18.70
  17  16  -3   34.55   14.25
  17  16   3    6.77    8.45
  17  16  -4   38.74   15.85
  17  16   4    8.18    8.50
  17  16  -5    1.39    5.39
  17  16   5    2.54    7.34
  17  16  -6    3.18    6.33
 -17  17   0   -1.07    6.52
 -17  17   1   13.49    8.82
  17  17  -1   15.54    7.77
 -17  17   2    7.90    6.42
  17  17  -2   12.96    7.34
 -17  17  -2    7.80   11.41
 -17  17   3    1.75    5.61
  17  17  -3   24.06   10.85
  17  17   3   -2.45    8.93
  17  17  -4    3.55    6.28
  17  17   4    1.25    9.16
 -17  18   0    3.11    6.47
  17  18  -1   32.98   13.84
  18   0   0  513.77  127.99
 -18   0   0  309.19  132.71
  18   0   1  171.52   43.76
  18   0   1   95.61   31.78
 -18   0  -1  152.86   39.16
  18   0   2  168.07   42.88
  18   0   2  265.52   87.08
  18   0  -2  143.08   37.58
 -18   0  -2  152.05   39.02
  18   0   3   35.07   13.29
  18   0   3   49.05   14.77
  18   0   3   17.19    6.65
 -18   0  -3   46.71   13.85
 -18   0  -3   22.35    8.78
 -18   0  -3   44.55   16.70
  18   0   4  472.41  117.85
 -18   0  -4  501.33  124.99
  18   0   5   83.37   22.54
 -18   0  -5   54.46   15.49
  18   0   6   47.98   14.07
  18   0   8   61.08   17.20
  18   1   0   19.47    9.64
  18   1   0   16.88    7.40
 -18  -1   0   20.11    8.69
 -18  -1   0    1.19    4.32
  18  -1   0   26.39    9.90
  18  -1   1   56.83   16.24
 -18   1   1   78.47   21.85
  18   1  -1   82.39   27.68
  18   1  -1   65.63   19.43
  18   1  -1   96.83   42.21
 -18  -1  -1   52.03   15.37
 -18  -1  -1   73.22   24.77
  18   1   1   53.31   16.16
 -18  -1   1   43.36   19.08
  18  -1  -1   76.62   22.31
  18  -1   2   10.49    7.47
  18   1  -2    8.41   10.37
  18   1  -2   -3.12    5.35
 -18  -1  -2    9.81    7.14
 -18  -1  -2   11.10    5.96
  18   1   2    4.15    7.40
 -18  -1   2    0.68    8.77
 -18   1  -2    2.83    6.45
  18  -1   3    6.80    7.17
  18   1  -3   20.15   13.74
 -18  -1  -3   15.75    8.08
  18   1   3   35.15   11.63
 -18   1  -3    6.47    7.00
  18  -1   4    3.58    6.65
  18  -1   4    2.69    2.94
 -18  -1  -4    2.67    6.79
  18   1   4    7.10    7.19
 -18   1  -4   13.11    7.56
 -18   1  -4   12.33    5.45
  18  -1   5    4.71    6.04
 -18  -1  -5    5.79    6.55
  18   1   5    4.33    6.38
 -18   1  -5   74.22   24.57
  18  -1   6   14.09    7.61
  18   1   6   13.44    7.12
 -18  -1   6    6.69    3.45
  18  -1   8   12.56    7.16
  18   1   8    7.06    6.45
  18   2   0  116.69   30.55
  18   2   0  146.53   48.42
 -18  -2   0  141.35   36.60
 -18  -2   0  172.79   57.14
  18  -2   0  142.27   36.69
 -18   2   0  145.04   37.61
  18  -2   1   46.39   13.87
 -18   2   1   13.21    9.36
  18   2  -1   16.01   10.76
  18   2  -1   31.31   11.50
 -18  -2  -1   25.37    9.96
 -18  -2  -1   17.07    7.56
  18   2   1   27.36   10.70
 -18  -2   1   21.39   10.19
 -18   2  -1   69.99   19.64
  18  -2   2   10.87    7.36
  18   2  -2    5.95   10.58
  18   2  -2   14.26    8.40
 -18  -2  -2   15.87    8.01
 -18  -2   2    9.69    8.47
 -18  -2   2    1.59    4.83
 -18  -2   2   22.67   10.84
 -18   2  -2   22.65   10.24
  18  -2   3    7.36    6.65
  18   2  -3    5.65    5.54
  18   2  -3    0.99    5.65
 -18  -2  -3    0.53    6.96
  18   2   3    4.39    6.80
 -18   2  -3    1.13    6.18
  18  -2   4   12.43    7.58
  18   2  -4   18.47   12.13
 -18  -2  -4   27.47   11.06
 -18  -2   4    7.14    7.73
 -18   2  -4   12.90    6.88
  18  -2   5    2.84    5.73
  18  -2   5    9.80    3.87
  18   2  -5   15.64   10.99
 -18  -2  -5    6.71    6.66
  18   2   5    9.39    6.77
  18  -2   6   17.30    7.83
  18   2  -6   16.33    6.48
 -18  -2  -6   10.85    7.78
  18   2   6   14.64    7.75
 -18  -2   6    5.82    3.30
 -18   2  -6    4.68    2.67
  18   2  -7   24.80    9.71
  18  -2   8   25.71    9.40
  18   2   8   29.81   10.12
  18   3   0    6.85    7.89
 -18  -3   0   32.66   11.97
 -18  -3   0   81.73   27.74
 -18   3   0    4.95    8.62
  18  -3   1   58.84   16.46
 -18   3   1   62.14   18.52
  18   3  -1   49.50   16.28
  18   3  -1  110.61   36.84
 -18  -3  -1   60.29   17.36
  18   3   1   50.76   15.31
 -18  -3   1   57.04   17.43
 -18  -3   1  174.29   57.74
  18  -3  -1   51.63   15.71
 -18   3  -1   62.75   17.48
  18  -3   2    6.73    6.80
  18   3  -2   12.20   11.07
 -18  -3  -2   21.74    9.70
  18   3   2   30.15   10.80
 -18  -3   2   14.12   10.75
 -18  -3   2    2.77    4.95
 -18  -3   2    7.41    6.16
  18  -3   3   71.23   31.28
  18  -3   3   43.79   13.58
  18   3  -3   98.35   42.81
  18   3  -3   88.86   30.02
 -18  -3  -3   32.81   11.16
 -18  -3  -3   52.82   19.89
  18   3   3   73.47   27.37
  18   3   3   51.52   15.14
 -18  -3   3   58.88   25.86
 -18   3  -3   50.87   22.24
  18  -3   4   12.68    7.25
 -18  -3  -4   19.33    8.96
 -18  -3  -4   20.11    8.44
  18   3   4   26.75    9.78
  18   3   4   29.89   11.82
 -18  -3   4    7.92    6.27
 -18  -3   4   14.73    8.22
 -18   3  -4    4.27    5.96
  18  -3   5    6.78    6.53
  18   3  -5    6.57    7.39
  18   3  -5    1.27    5.01
 -18  -3  -5   10.35    7.26
  18   3   5    3.61    6.34
 -18  -3   5    4.06    8.22
  18  -3   6   89.77   23.62
  18   3  -6   18.60    7.40
  18   3  -6    6.97   10.58
 -18  -3  -6   52.60   15.45
  18   3   6   58.32   16.54
 -18  -3   6   22.99    9.13
 -18  -3   6    4.20    8.31
  18   3  -7   40.85   15.52
  18   3  -7   29.46   15.68
  18  -3   8   16.32    7.74
  18   3   8   23.53    9.06
  18   4   0   71.42   20.00
 -18  -4   0   71.84   20.48
  18  -4   0   94.06   25.76
 -18   4   0   81.11   22.50
 -18   4   1   17.01   10.04
  18   4  -1   15.97   10.45
 -18  -4  -1   19.19    9.37
  18   4   1   33.30   11.31
 -18  -4   1   14.42   10.33
  18  -4  -1   17.35   10.04
 -18   4  -1   16.02    8.17
  18  -4   2    4.06    6.37
  18   4  -2   14.17    9.90
 -18  -4  -2   14.93    8.62
  18   4   2   22.01    8.75
 -18  -4   2    6.92   10.30
 -18   4  -2   12.69    7.15
  18  -4   3   -2.69    6.46
  18  -4   3    9.18    6.85
  18   4  -3    3.03    4.90
 -18  -4  -3    6.30    7.16
 -18  -4  -3    4.30    4.17
  18   4   3    6.40    6.34
 -18  -4   3   -0.65    5.15
  18  -4   4    4.99    6.10
  18   4  -4   13.82    8.39
  18   4  -4    5.42    5.50
 -18  -4  -4   75.59   20.64
 -18  -4  -4   22.56    9.54
  18   4   4  114.69   29.85
  18   4   4    8.30    5.11
 -18  -4   4   22.20    9.43
 -18  -4   4   82.50   35.93
 -18   4  -4   36.45   16.33
  18  -4   5    3.85   11.40
  18  -4   5    3.04    5.30
  18   4  -5    5.59    6.15
  18   4  -5    1.26    4.86
 -18  -4  -5    5.82    6.94
 -18  -4  -5    1.13    4.77
  18   4   5    7.07    6.55
 -18  -4   5   -1.61    5.81
 -18  -4   5    5.77    4.11
 -18  -4   5    3.26    4.97
 -18   4  -5    6.84    6.74
  18  -4   6    6.84    5.67
  18   4  -6    8.04    6.41
 -18  -4  -6   15.11    8.75
  18   4   6   12.98    7.38
 -18  -4   6   24.89    9.88
 -18  -4   6    1.95    5.55
 -18   4  -6    5.09    9.05
 -18   4   7    2.75    2.06
  18   4  -7   15.39    6.64
  18   4  -7    5.16    6.15
  18   4  -7   11.85   10.00
 -18   4  -7    0.91    6.03
  18  -4   8   16.14    8.08
  18   4   8   16.09    8.47
 -18  -4   8   -6.65    8.45
  18   4  -9   -6.21    9.05
 -18   4  -9    2.20    1.24
  18   5   0   74.15   20.17
 -18  -5   0   73.29   20.78
  18  -5   0   63.24   18.93
 -18   5   0   45.56   15.23
 -18   5   1  125.34   33.21
  18   5  -1  173.83   44.85
 -18  -5  -1  126.14   32.99
  18   5   1  107.12   28.30
 -18  -5   1  160.92   41.87
  18  -5  -1  125.68   33.64
 -18   5  -1  135.13   34.97
  18   5  -2    5.87    9.78
 -18  -5  -2    5.24    6.96
 -18  -5   2   31.98   13.56
 -18   5  -2    8.12    7.05
 -18   5  -2   14.23    5.88
 -18  -5   3  317.14  104.37
  18  -5   4   25.04   12.43
  18  -5   4   25.40    9.59
  18   5  -4   36.74   17.59
  18   5  -4   33.45   12.53
 -18  -5  -4   32.42   11.02
  18   5   4   34.41   11.26
 -18  -5   4   20.93   10.35
 -18   5  -4   35.61   16.33
  18  -5   5    3.56    6.10
  18  -5   5  113.15   49.35
  18   5  -5   30.99   12.01
 -18  -5  -5    3.57    6.59
  18   5   5    4.40    5.96
 -18  -5   5    5.46    6.17
 -18  -5   5  106.87   46.37
 -18   5  -5  144.00   62.08
  18  -5   6  105.38   27.51
  18   5  -6   96.90   35.99
  18   5  -6   93.41   40.80
  18   5  -6   67.10   23.52
 -18  -5  -6  105.36   28.05
  18   5   6  123.72   32.30
 -18  -5   6   69.75   30.79
 -18  -5   6   95.73   35.55
 -18  -5   6   92.42   31.47
 -18   5  -6   65.75   28.88
  18  -5   7  117.85   52.51
  18   5  -7  255.73  110.14
  18   5  -7  183.74   60.89
 -18  -5   7  308.26  132.82
 -18  -5   7  179.82   59.78
  18  -5   8   16.18    8.37
  18   5  -8    7.11    5.80
  18   5   8   11.96    8.29
 -18  -5   8    1.55    5.60
 -18  -5   8    8.65    9.34
 -18   5  -8    8.84    9.94
  18   5  -9   -0.29    6.60
  18   5  -9    1.58    6.37
 -18   5  -9    0.74    6.32
  18   5 -10   -5.48    7.12
  18   5 -10    4.07    5.81
 -18   5 -11   34.59   11.54
 -18  -6   0   70.56   20.10
 -18   6   0   83.98   23.21
  18  -6   1   15.52    8.53
  18  -6   1    8.92    4.90
 -18   6   1    8.67   10.40
 -18  -6  -1   15.90    8.43
 -18  -6   1   18.25   10.52
 -18   6  -1   11.19    7.81
 -18  -6  -2    3.14    6.54
 -18  -6   2   -0.66    8.86
 -18   6  -2    1.01    6.59
 -18   6  -2   27.91   10.77
  18  -6   3    0.64    5.52
 -18  -6  -3   11.13    7.21
  18   6   3    4.54    6.34
 -18   6  -3    5.31    5.54
  18  -6   4   35.61   11.72
 -18  -6  -4   10.09    6.84
 -18  -6  -4    5.47    6.06
  18   6   4    5.63    5.35
 -18  -6   4   11.02    6.78
  18  -6   5    9.15    7.99
  18  -6   5    0.89    5.32
  18   6  -5    2.01    4.90
  18   6  -5   -3.42    6.95
  18   6  -5    3.51    3.44
 -18  -6  -5    4.01    6.48
 -18  -6  -5    5.35    5.41
  18   6   5    7.40    5.83
  18   6   5    3.31    4.86
 -18  -6   5   12.38    6.26
 -18  -6   5    1.86    5.31
 -18  -6   5   10.05    7.25
  18   6  -6   -0.18    5.67
  18   6  -6   10.11    5.23
  18   6  -6    0.13    4.32
 -18  -6  -6   11.63    8.09
  18   6   6    9.38    7.09
 -18  -6   6    5.39    3.99
 -18  -6   6    5.85    6.26
 -18  -6   6   28.60   13.65
 -18   6  -6   21.29   10.31
  18   6  -7    9.39    7.77
  18   6  -7   37.93   14.71
  18   6  -7    8.25    5.80
 -18  -6   7    5.50    6.58
 -18  -6   7    5.31    5.65
 -18   6  -7    5.85    5.49
  18   6  -8   55.36   24.87
  18   6  -8   61.79   21.43
  18   6   8   26.46   10.44
  18  -6  -8  147.69   54.41
 -18   6  -8   16.85   10.13
  18   6  -9    1.57    5.34
 -18  -6   9    0.50    5.50
 -18   6  -9    4.54    7.91
  18   6 -10    2.13    7.71
  18   6 -10    9.65    6.37
 -18  -6  10    0.92    5.45
 -18   6 -10    3.06    8.02
  18   6 -11    1.76    5.12
 -18  -7   0   37.00   13.12
  18  -7   0   35.01   14.07
 -18   7   0   30.71   12.74
  18  -7   1    9.99    7.53
  18  -7   1   11.92    5.76
 -18  -7  -1    8.60    8.05
  18   7   1   10.00    7.53
 -18  -7   1   22.81   11.60
  18  -7  -1    6.18   11.25
 -18   7  -1    1.51    7.09
 -18   7  -1    1.91    4.04
 -18  -7  -2   15.42    8.22
  18   7   2   25.60    9.60
 -18  -7   2    0.04    8.69
 -18   7  -2   22.27    9.36
 -18   7  -2    7.06    4.71
  18  -7   3    7.99    6.86
 -18  -7  -3    6.86    7.40
  18   7   3   26.32   11.90
 -18   7  -3   10.81    6.68
  18  -7   4    8.59    6.50
 -18  -7  -4    1.67    6.26
 -18  -7  -4   15.14    8.04
 -18  -7   4    3.73    4.62
 -18   7  -4   13.57    6.97
  18  -7   5   79.30   35.38
  18  -7   5    3.34    5.08
  18   7  -5   25.30   10.27
 -18  -7  -5    8.82    7.26
 -18  -7  -5    8.00    6.63
  18   7   5    6.49    7.25
  18   7   5    9.70    6.07
 -18  -7   5   19.48    8.59
 -18  -7   5   45.50   16.43
 -18  -7   5   16.63    9.89
  18  -7   6    2.63    5.15
  18   7  -6    3.88    4.84
 -18  -7  -6    3.62    7.07
 -18  -7  -6    5.08    6.04
  18   7   6    4.22    6.17
 -18  -7   6    2.46    6.15
 -18  -7   6   14.39    6.52
 -18  -7   6    1.33    5.54
 -18   7  -6    5.09    6.44
 -18   7   7   24.72    9.54
  18   7  -7   20.91    8.98
  18   7  -7    2.49    4.83
  18   7  -7    5.72    7.60
 -18  -7   7   13.24    8.29
 -18   7  -7   19.69    9.91
  18  -7   8    4.95    6.64
  18   7  -8   19.74   10.90
  18   7  -8   24.43   13.63
  18   7   8   13.50    7.96
 -18  -7   8   19.83    9.34
  18  -7  -8   15.36    6.40
  18   7  -9    2.53    6.06
  18   7  -9    3.62    5.29
 -18  -7   9    5.21    6.03
 -18   7  -9   21.86   11.42
  18   7 -10   -0.14    6.17
  18   7 -10    1.95    5.34
 -18  -7  10   -2.91    5.25
  18   8   0  102.02   27.05
 -18  -8   0   90.31   24.47
  18  -8   0  121.30   32.85
  18  -8   1   29.72   10.72
  18   8  -1   58.82   17.08
 -18  -8  -1   56.66   16.36
  18   8   1   44.19   13.29
 -18  -8   1   43.65   14.77
  18  -8  -1   16.51   12.57
 -18   8  -1   47.79   14.39
 -18   8  -1   57.47   21.41
  18  -8   2  154.24   39.51
  18   8  -2  137.09   36.42
 -18  -8  -2   99.13   26.15
  18   8   2   93.00   24.48
  18   8   2  226.71   83.67
 -18  -8   2  105.28   28.68
 -18   8  -2  126.72   32.89
 -18   8  -2  119.92   43.80
  18   8  -3   10.70   11.29
 -18   8  -3   22.79    8.50
  18  -8   4   41.36   12.54
 -18  -8  -4   80.06   21.69
 -18  -8  -4   64.65   24.40
  18   8   4   32.96   14.03
 -18  -8   4   58.10   22.21
  18  -8   5   29.62    9.62
  18   8  -5   12.57    6.09
 -18  -8  -5   28.66   10.33
 -18  -8  -5   61.89   23.53
  18   8   5   25.61   10.62
 -18  -8   5   19.02    8.27
 -18   8  -5   30.98    9.92
  18  -8   6    2.82    4.58
  18   8  -6   19.47   12.88
 -18  -8  -6    5.18    7.33
 -18  -8  -6    7.11    6.33
  18   8   6    4.41    5.73
  18   8   6    9.76    6.18
 -18  -8   6   11.26    8.37
  18   8  -7   15.04   10.84
  18   8  -7   28.55   14.03
  18   8  -7    7.95    5.43
 -18  -8   7    8.45    7.42
 -18  -8   7   10.17    7.38
 -18  -8   7    8.41   10.46
 -18   8  -7   12.07    7.25
  18  -8   8   40.33   12.74
  18   8  -8   19.36   11.37
  18   8  -8   15.62    7.85
  18   8   8   18.25    8.67
 -18  -8   8   20.44    9.90
 -18   8  -8    5.61    5.23
  18   8  -9    2.52    4.36
 -18  -8   9    2.47    5.58
  18   8 -10   21.53    9.16
 -18  -8  10   41.15   15.74
  18   8 -11    9.06    6.60
  18   9   0    7.20    7.10
 -18  -9   0   -2.40    7.49
  18  -9   0   -0.80   10.30
  18  -9   0    3.85    4.74
 -18   9   0   -0.07    8.34
  18  -9   1   19.17    8.86
  18  -9   1   10.94    6.00
  18   9  -1    7.24    7.53
 -18  -9  -1    4.83    6.79
  18   9   1   10.78    7.04
 -18   9  -1    3.84    5.43
  18  -9   2   15.13    7.95
  18   9  -2   14.94   11.03
 -18  -9  -2   49.68   14.35
  18   9   2    6.89   12.58
  18   9   2   21.69    8.39
 -18   9  -2   12.71    7.71
 -18   9  -2    3.72    5.02
  18   9  -3   57.24   18.41
 -18  -9  -3   25.98    9.56
 -18  -9  -3    8.39    6.72
  18   9   3   12.50    7.01
 -18   9  -3   26.89    9.20
  18  -9   4    7.43    6.61
  18   9  -4    3.56    4.24
 -18  -9  -4   14.27    7.80
  18   9   4    4.21    6.58
 -18   9  -4   14.36    7.63
  18  -9   5    6.51    5.21
  18   9  -5   18.86    8.28
  18   9  -5   16.75   11.77
 -18  -9  -5    5.24    6.08
 -18  -9  -5   30.35   12.61
 -18  -9   5   11.48    5.90
 -18  -9   5   15.44   11.87
 -18   9  -5    6.74    5.17
  18  -9   6    3.90    5.14
  18   9  -6    3.05    8.11
  18   9  -6    5.01    4.57
 -18  -9  -6    5.85    8.24
 -18  -9  -6    0.16    5.55
  18   9   6    3.14    5.08
  18   9   6    9.02    6.80
 -18   9   7   26.45   10.40
  18   9  -7    5.33    4.72
  18   9  -7    7.01    8.43
 -18   9  -7    5.83    5.80
 -18   9   8    1.97    2.93
  18   9  -8   -2.10    6.59
 -18  -9   8   -0.12    5.95
  18  -9  -8    1.71    3.42
 -18   9  -8    3.87    5.48
  18   9  -9    1.63    4.60
 -18  -9   9   -1.49    5.57
 -18   9  -9    7.67    6.45
  18   9 -10    0.67    4.73
  18  10   0   36.68   12.03
  18 -10   0   54.37   17.58
  18 -10   0   33.11   12.84
 -18  10   0   37.46   13.19
 -18  10   0   18.95    8.94
  18 -10   1   16.38    8.69
  18  10  -1    8.15    7.44
  18  10  -1   10.36   11.57
  18  10   1    3.15    6.43
 -18  10  -1    9.18    7.12
  18 -10   2   17.18    8.51
  18  10  -2    9.98   10.56
  18  10   2    6.49    6.35
  18  10   2   74.57   30.93
 -18  10  -2   15.71    7.61
 -18  10  -2   23.60   10.66
  18 -10   3   17.04    7.94
  18  10  -3    7.58   11.07
  18  10  -3   18.21   13.17
 -18 -10  -3   20.14    8.53
 -18 -10  -3   11.11    7.63
  18  10   3   19.36    8.26
 -18 -10   3   12.74   12.01
 -18  10  -3    8.41    6.44
  18  10  -4   28.66   14.01
  18  10  -4   92.09   34.56
  18  10   4   42.27   17.19
 -18 -10   4   70.80   26.98
 -18 -10   4   21.27   16.47
 -18 -10  -5   19.68    8.58
  18  10   5   21.99    9.69
 -18 -10   5   13.16    6.61
 -18 -10   5   29.24   15.71
  18 -10   6   34.54   10.82
  18  10  -6   59.82   23.48
  18  10  -6   25.80   10.94
 -18 -10  -6  128.56   47.47
  18  10   6   21.08    9.04
  18  10   6   85.44   31.93
 -18  10   7   23.67    9.67
  18  10  -7   30.84   12.63
 -18 -10  -7    6.37    7.28
 -18  10   8   13.74    6.18
  18  10  -8   43.33   21.10
 -18  10  -8   17.39    9.88
 -18 -10   9    0.48    5.98
  18  10 -10    5.38    5.35
  18  11   0    7.97    7.84
 -18 -11   0   17.39    8.72
  18 -11   0    4.85    5.09
 -18  11   0   -0.95    8.44
 -18  11   0    6.31    5.70
  18 -11   1   18.55    8.82
  18 -11   1   14.83    7.87
  18  11  -1   43.54   20.01
  18  11  -1   10.05    7.67
  18  11   1   14.11    7.68
  18  11   1   16.92   12.74
 -18 -11   1   45.53   14.58
 -18 -11   1   41.22   19.57
  18 -11  -1    6.92    5.28
 -18  11  -1   36.17   14.60
  18 -11   2   13.62    7.89
  18  11  -2   11.14   10.92
  18  11  -2    9.56   11.96
  18  11   2   21.02    8.20
 -18 -11   2    7.53    8.45
 -18 -11   2    9.34   12.71
  18 -11   3   14.07    6.44
  18  11  -3   -8.25   11.46
  18  11   3   25.90    9.08
 -18 -11   3    3.59    4.88
 -18 -11   3    2.04    8.56
 -18 -11   3   41.11   18.96
  18  11  -4    9.06   10.83
 -18 -11  -4    3.34    5.53
  18  11   4    2.91    6.71
 -18 -11   4   10.97    6.40
  18  11  -5   16.75    7.92
  18  11   5   10.00    6.36
 -18 -11   5    1.68    3.76
  18 -11   6    3.85    5.75
  18  11  -6    7.88    9.22
  18  11  -6   13.74    7.30
  18  11   6    5.55    6.19
  18  11   6    4.33    4.76
 -18 -11   6    4.24    4.81
 -18  11   7    1.98    4.05
  18  11  -7    1.01    4.45
  18  11   7    4.24    5.21
  18  12   0   67.57   19.32
 -18 -12   0   68.30   19.12
 -18 -12   0   85.37   32.19
  18 -12   0   49.07   17.38
  18 -12   0   79.05   29.61
 -18  12   0  101.61   37.85
  18 -12   1   33.34   12.28
  18 -12   1   24.50   11.13
 -18  12   1   12.29    7.39
  18  12  -1   29.12   11.21
 -18 -12  -1   32.32   10.69
  18  12   1   23.20   14.12
  18  12   1   42.07   12.73
 -18 -12   1   26.35   15.29
 -18 -12   1   60.16   17.72
  18 -12  -1   35.78   14.53
 -18  12  -1   31.31   13.01
 -18  12  -1   27.99   12.45
  18 -12   2   21.33    8.90
  18  12  -2    9.78   10.95
  18  12  -2    8.56   11.29
  18  12   2   11.37    6.57
 -18 -12   2   12.20   10.15
  18 -12   3    1.03    5.27
  18  12  -3   -7.91   10.84
  18  12  -3    2.64    4.69
 -18 -12  -3    0.26    7.08
  18  12   3   20.49    8.14
  18  12   3    6.51   10.70
 -18 -12   3    4.51    5.35
 -18 -12   3   -5.33   10.07
  18  12  -4    9.29   10.25
 -18 -12  -4   39.90   16.60
 -18 -12   4    3.12   10.50
  18  12  -5    5.00    5.08
 -18 -12  -5    1.82    7.19
  18  12  -6   26.37   11.32
 -18 -12  -6   19.13   10.27
  18  12   6   12.78    6.82
 -18 -12   6    7.24    5.12
  18  12  -7    0.96    4.63
  18  12   7   17.29    8.91
 -18  12   8    2.08    3.83
  18  13   0    0.61    7.43
  18  13   0   11.27   11.41
 -18 -13   0    2.05    7.69
  18 -13   0    0.60    8.92
 -18  13   0   52.93   20.50
 -18  13   1   32.88   13.71
  18  13  -1   33.98   11.98
 -18 -13  -1   39.22   12.12
 -18 -13  -1   85.36   31.05
  18  13   1   25.08    9.18
 -18 -13   1   37.46   13.36
  18 -13   2   52.26   15.07
  18  13  -2   27.27   14.56
  18  13  -2   35.76   14.55
 -18 -13  -2   74.47   20.38
 -18 -13  -2   32.16   16.40
  18  13   2   63.84   17.60
 -18 -13   2   26.64   12.59
 -18 -13   2   18.53   14.33
  18 -13   3  114.44   29.48
  18  13  -3  176.36   65.51
  18  13   3   99.41   35.78
  18  13   3  144.11   37.24
  18 -13   4   13.02    7.14
  18  13  -4    9.98    6.21
 -18 -13  -4   35.13   14.81
  18  13   4   13.67    6.97
  18  13   4   26.79   15.01
  18  13  -5   44.05   17.56
 -18 -13  -5   29.33   13.93
  18  13  -6    2.20    5.30
  18  13  -7    5.16    5.87
  18  14   0   -4.69    6.90
  18  14   0    9.88   10.72
  18 -14   0    8.24   10.02
 -18  14   0    5.70    7.02
 -18  14   1    2.11    5.60
  18  14  -1    2.89    6.67
  18  14   1    3.18    6.02
  18  14   1    0.22   11.40
 -18  14  -1   -3.63    6.78
  18 -14   2  101.81   26.53
  18  14  -2  104.78   28.58
  18  14   2   86.11   23.15
  18  14   2   93.35   34.16
  18 -14   3   15.60    6.75
  18  14  -3    4.91    4.99
 -18 -14  -3    0.71    8.51
  18  14   3   13.94    7.49
  18  14   3   -3.91    7.40
  18 -14   4    4.89    5.32
  18  14  -4    3.14    4.93
  18  14  -5   -2.07    4.96
  18  14   5   -0.19    7.01
  18  14  -6   26.94   11.96
  18  14   6   30.75   13.06
  18  15   0   24.39    9.47
  18 -15   0    4.43   11.11
  18 -15   1   54.53   17.46
 -18  15   1   99.45   36.97
  18  15  -1   70.27   19.86
  18  15   1   76.86   20.90
 -18  15  -1   73.23   27.68
  18 -15   2   30.83   10.58
 -18  15   2    0.50    6.13
  18  15   2    5.86    6.58
  18  15  -3   13.31    7.11
  18  15   3   -3.99    7.67
  18  15  -4    3.85    5.42
  18  15   4   -1.10    7.28
  18  15  -5    8.66    6.81
  18  15   5    0.42    7.53
 -18  16   0   18.88   10.28
 -18  16   1    4.29    7.45
 -18  16  -1    3.57    6.38
 -18  16   2   43.43   17.39
  18  16  -2   95.50   36.06
  18  16   3   -1.97    7.46
  18  16   4   38.07   16.86
 -18  17   0    0.69    6.84
 -18  17   1    1.41    6.69
 -18  17  -1   11.82    7.55
  19   0   0    7.99    7.79
 -19   0   0   -0.99    3.02
  19   0   1    3.87    6.84
  19   0   1    4.72    4.39
  19   0  -1    3.40   10.20
  19   0   2   77.83   21.00
  19   0   2   50.25   17.15
  19   0  -2   44.00   15.74
 -19   0  -2   51.86   14.99
 -19   0  -2   26.54    9.78
  19   0   3    7.48    6.56
  19   0   3   13.29    5.48
 -19   0  -3    4.51    6.10
 -19   0  -3   14.98    6.24
  19   0   4   21.55    8.97
 -19   0  -4   15.99    7.44
 -19   0  -4   93.10   30.95
  19   0   5   64.54   17.67
  19   0   6   85.96   22.79
  19   0  -7   40.55   15.08
 -19   0  -7   26.39    9.92
  19   0   9   -2.84    7.23
  19   1   0    1.24    7.70
  19   1   0   -0.43    3.99
 -19  -1   0    1.32    6.32
 -19  -1   0    0.73    4.20
  19  -1   0   -1.47    6.61
  19  -1   1   19.92    8.73
 -19   1   1    9.24    8.41
  19   1  -1    7.93    9.32
  19   1  -1   11.16    7.17
  19   1  -1   18.95    7.97
 -19  -1  -1   23.38    9.04
 -19  -1  -1   21.54    9.19
  19   1   1   32.16   11.08
  19   1   1   35.66   12.93
 -19  -1   1    6.48    9.58
 -19  -1   1   43.44   18.96
  19  -1  -1    4.63    8.64
  19  -1   2   25.25    9.43
  19   1  -2   -2.37    4.50
  19   1  -2    3.24   11.05
 -19  -1  -2    4.27    6.16
 -19  -1  -2    7.56    5.33
  19   1   2    1.69    6.06
  19   1   2    4.14    3.80
 -19  -1   2   -1.35    7.65
  19  -1  -2    3.51    9.75
  19  -1   3   22.24    8.50
  19  -1   3   21.58    8.11
  19   1  -3   -2.59   10.03
 -19  -1  -3   28.41    9.54
  19   1   3   28.82   10.12
  19   1   3   26.25   10.45
 -19   1  -3   37.60   14.11
  19  -1   4    7.74    6.57
 -19  -1  -4    4.04    5.75
 -19  -1  -4    4.00    4.04
  19   1   4    0.80    6.22
  19  -1   5    0.22    5.41
 -19  -1  -5    7.74    5.79
  19   1   5    5.11    6.30
 -19   1  -5    7.59    3.82
  19   1   6    2.69    5.63
 -19   1  -6   -1.13    5.37
  19   1  -7    2.08    2.29
 -19  -1  -7   -0.08    6.39
 -19   1  -7    4.87    6.84
  19  -1   9    7.33    7.83
  19   1   9    0.13    7.27
  19   2   0   -0.08    7.59
  19   2   0    4.34    4.35
 -19  -2   0    1.16    7.20
 -19  -2   0    0.73    4.71
  19  -2   0   -0.83    5.68
 -19   2   0    0.91    8.26
  19  -2   1   15.52    7.87
 -19   2   1    0.25    8.17
  19   2  -1    6.52    9.48
  19   2  -1    3.75    4.93
 -19  -2  -1   -2.86    8.11
 -19  -2  -1    5.93    5.35
  19   2   1    7.00    7.41
 -19  -2   1    3.26    8.39
 -19   2  -1   17.75    8.43
  19  -2   2    4.33    6.27
  19   2  -2    2.26   10.98
  19   2  -2    3.85    5.35
 -19  -2  -2    6.32    7.03
  19   2   2    1.84    6.19
 -19  -2   2    7.02    9.72
 -19  -2   2   -0.48    4.82
 -19  -2   2   18.60    8.77
 -19   2  -2   14.66    6.88
  19  -2   3    4.05    6.27
  19   2  -3    0.89    5.64
  19   2  -3    4.49    4.99
 -19  -2  -3    8.57    6.69
 -19  -2  -3    3.18    3.70
  19   2   3    4.36    6.05
  19   2   3    7.86    5.32
  19  -2   4   20.89    8.56
 -19  -2  -4   18.75    7.81
  19   2   4   13.50    7.20
 -19  -2   4   17.50   10.33
  19  -2   5   28.36    9.19
  19  -2   5    9.88    3.93
  19   2  -5   -0.25    8.33
  19   2   5    9.92    6.51
  19   2   6    5.63    5.76
 -19   2  -6    5.15    5.55
 -19   2  -6    2.40    1.95
  19   2  -7    8.24    4.10
 -19  -2  -7    7.77    7.34
 -19   2  -7    1.82    6.78
  19   3   0    7.40    7.94
 -19  -3   0   -1.64    7.37
 -19  -3   0    0.47    4.75
 -19   3   0   -0.63    8.53
  19  -3   1   34.39   11.45
 -19   3   1   13.45    9.44
  19   3  -1    6.47   10.02
  19   3  -1   21.35    8.61
 -19  -3  -1   24.93   10.87
  19   3   1   16.77    8.18
 -19  -3   1    9.74   10.66
 -19   3  -1   31.18   11.14
  19  -3   2   21.71   10.62
  19  -3   2    5.10    6.03
  19   3  -2   14.68    7.04
  19   3  -2    6.08   10.11
 -19  -3  -2   -1.27    6.78
  19   3   2    1.53    6.13
 -19  -3   2    3.95    9.86
 -19  -3   2    9.00    6.18
 -19  -3   2    6.39    4.97
 -19   3  -2   10.61    6.78
  19  -3   3   28.70   14.13
  19  -3   3   58.12   16.28
  19   3  -3   26.47   12.61
  19   3  -3   42.45   15.07
 -19  -3  -3   35.47   11.33
  19   3   3   41.48   12.59
 -19  -3   3  135.93   58.62
 -19   3  -3   83.26   21.96
  19  -3   4    3.89    5.90
 -19  -3  -4    4.64    6.57
  19   3   4    1.15    5.81
  19   3   4   24.88   10.23
 -19  -3   4   -1.40    4.94
 -19  -3   4    3.57    5.01
  19  -3   5   48.17   14.19
  19   3  -5   35.07   13.40
  19   3   5   23.11    8.62
 -19  -3   5   35.05   16.84
 -19   3  -5   39.59   12.10
  19   3  -6   24.97    9.64
  19   3  -6   13.95   10.32
  19   3   6    5.32    5.60
 -19  -3   6   18.64    7.67
 -19  -3   6    7.75    7.83
 -19   3  -6   14.81    7.42
  19   3  -7   30.15   11.65
  19   3  -7    7.96    9.15
 -19  -3  -7   34.69   12.34
 -19   3  -7   37.59   12.16
  19   4   0   -0.55    7.71
 -19  -4   0   -1.45    7.92
 -19   4   0    1.89    9.06
 -19   4   1    9.27   10.14
  19   4  -1   28.44   13.09
 -19  -4  -1    3.99    7.72
  19   4   1    1.06    6.90
 -19  -4   1    0.25    4.66
  19  -4  -1    4.60    8.62
 -19   4  -1    3.96    7.48
  19  -4   2    4.63    6.17
  19   4  -2   -4.17    9.61
  19   4  -2    4.40    4.98
 -19  -4  -2   12.08    7.38
  19   4   2   12.49    7.47
 -19  -4   2    6.17   10.13
 -19  -4   2    7.84    6.39
 -19   4  -2    2.14    6.57
  19  -4   3    7.38    6.14
  19  -4   3    2.83    5.55
  19   4  -3    1.65    4.56
 -19  -4  -3    2.87    6.24
  19   4   3    4.97    6.32
 -19  -4   3   14.70    7.55
 -19   4  -3    6.10    5.75
  19  -4   4   -2.47    5.58
  19  -4   4    2.56    5.96
  19   4  -4    2.38    5.08
  19   4  -4   -2.16    4.64
 -19  -4  -4    1.51    6.04
 -19  -4  -4    5.41    5.21
  19   4   4    0.53    4.33
  19   4   4    3.34    5.74
 -19  -4   4    0.67    4.95
 -19  -4   4   20.16    9.96
 -19   4  -4    0.89    5.37
 -19   4  -4   20.25    9.68
  19  -4   5   -7.18   10.55
  19   4  -5    2.12    5.41
  19   4  -5    1.57    5.50
 -19  -4  -5    0.52    4.35
  19   4   5    0.94    5.65
 -19  -4   5    6.25    5.76
 -19  -4   5    1.58    4.59
 -19   4  -5    1.34    5.43
 -19   4  -5    2.65    5.38
  19   4  -6    1.67    4.79
  19   4   6   15.62    7.35
 -19  -4   6    9.18    4.72
 -19  -4   6    0.48    4.91
 -19   4  -6    4.67    8.24
 -19   4  -6    4.92    5.85
 -19   4   7    0.63    1.48
  19   4  -7    4.50    3.58
  19   4  -7    4.07    8.68
  19   4  -7    0.71    5.65
 -19  -4  -7   -2.35    8.53
 -19   4  -7    0.56    6.06
 -19  -4   8    0.47    7.18
  19   4  -9    3.83    8.92
  19   5   0   -0.96    6.95
 -19  -5   0    4.11    8.01
  19  -5   0    5.35   10.16
 -19   5   0    2.78    9.77
  19  -5   1    6.06    7.56
 -19   5   1   13.87   10.70
  19   5  -1   41.97   14.99
 -19  -5  -1   26.08   10.55
  19   5   1   14.70    7.81
 -19  -5   1   16.67   11.19
  19  -5  -1    4.23    9.83
 -19   5  -1   14.01    8.31
  19   5  -2   18.05   11.05
 -19  -5  -2   42.53   13.07
  19   5   2   43.69   12.96
 -19  -5   2   34.13   13.80
 -19   5  -2   13.92    7.97
 -19   5  -2   25.68    9.69
  19  -5   3  174.75   44.51
  19   5  -3  177.74   58.78
 -19  -5  -3  154.24   39.67
  19   5   3  191.57   48.61
  19   5   3  150.22   55.13
 -19  -5   3  104.32   35.28
 -19   5  -3  141.00   36.13
  19  -5   4   14.50    6.84
  19  -5   4   27.59   13.43
  19   5  -4   68.39   30.33
  19   5  -4    0.50    4.64
 -19  -5  -4   40.95   12.86
 -19  -5  -4   15.47    8.08
  19   5   4   18.50    8.36
  19   5   4   41.54   12.48
 -19  -5   4   90.80   39.37
 -19   5  -4   62.76   27.67
  19  -5   5   26.07   13.02
  19   5  -5   49.45   22.23
  19   5  -5   40.70   14.72
 -19  -5  -5   37.46   14.68
  19   5   5    7.55    6.34
  19   5   5   31.61   12.63
 -19  -5   5   35.84   13.71
 -19  -5   5   43.69   16.73
 -19  -5   5   39.73   18.06
 -19   5  -5   28.19    9.65
 -19   5  -5   24.79   11.63
  19   5  -6   34.39   16.07
  19   5  -6   27.69   10.86
  19   5   6   25.80    9.08
 -19  -5   6   32.55   12.66
 -19  -5   6   48.26   17.28
 -19  -5   6  109.60   47.64
 -19   5  -6  106.19   46.00
 -19   5  -6   26.31    9.53
 -19   5   7   94.20   34.74
  19   5  -7  156.20   57.83
  19   5  -7   67.76   29.86
  19   5  -7   49.60   17.68
 -19  -5   7   37.28   17.90
 -19  -5   7   35.43   13.47
  19   5  -8   -0.96    7.00
  19   5  -8    6.09    5.99
 -19  -5   8    0.40    5.93
  19  -5  -8    8.84    3.76
 -19   5  -8    5.55    8.75
  19   5  -9    3.45    9.92
  19   5  -9   13.37    7.60
 -19   5  -9    2.14    7.01
  19   5 -10    9.15    6.97
 -19   5 -11    1.09    1.62
 -19  -6   0   -1.26    7.44
 -19   6   0    2.62    9.29
 -19   6   1    3.48    8.43
 -19  -6  -1   13.88    8.54
 -19  -6   1   24.48   11.73
  19  -6  -1    0.46   12.66
 -19   6  -1    8.19    7.47
 -19  -6  -2   20.71    8.95
  19   6   2   13.16    7.08
 -19  -6   2    3.67    9.67
 -19   6  -2    7.02    7.32
 -19   6  -2   12.66    5.62
 -19  -6  -3    3.94    6.47
 -19  -6  -3    1.89    4.64
  19   6   3    2.29    5.98
  19   6   3   10.32    7.01
 -19   6  -3   18.78    7.90
 -19  -6  -4    6.94    6.60
 -19  -6  -4   11.91    6.87
  19   6   4    9.16    6.48
 -19  -6   4   10.82    7.00
 -19   6  -4   18.71    8.39
  19  -6   5    3.32    6.59
  19   6  -5    0.76    6.49
  19   6  -5    0.54    4.55
 -19  -6  -5    1.21    6.57
 -19  -6  -5    3.68    4.69
  19   6   5    3.15    5.74
 -19  -6   5    2.07    3.82
 -19  -6   5    5.07    5.70
 -19  -6   5   11.97    7.55
 -19   6  -5    3.11    5.83
  19   6  -6    7.19    6.75
 -19  -6  -6    4.81    5.61
  19   6   6    7.35    6.08
 -19  -6   6   11.47    5.71
 -19  -6   6    7.63    6.20
 -19  -6   6   26.99   13.13
 -19   6  -6   17.83    9.04
 -19   6   7    0.44    1.94
  19   6  -7    3.70    5.83
  19   6  -7    1.11    4.89
 -19  -6   7    7.40    6.52
 -19  -6   7    5.70    5.63
 -19   6  -7    9.53    6.10
 -19   6   8    8.71    3.99
  19   6  -8   10.84    6.75
  19   6  -8   -2.91    5.60
  19  -6  -8    7.59    3.67
 -19   6  -8   10.98    8.42
 -19  -6   9    0.46    4.74
 -19   6  -9    1.32    8.32
  19   6 -10    8.98    6.24
 -19  -6  10   -0.32    5.63
 -19  -7   0   -0.49    7.33
  19  -7   0    2.45   10.11
 -19   7   0    0.85    8.24
  19  -7   1   15.09    8.01
  19  -7   1   18.30    7.55
 -19  -7  -1    8.89    7.35
 -19  -7   1    8.56    9.54
 -19   7  -1   12.04    7.87
  19  -7   2    0.39    6.03
  19   7  -2   14.56   11.38
 -19  -7  -2    1.09    6.57
 -19  -7   2    7.47    9.42
 -19   7  -2    5.51    6.98
 -19   7  -2    9.94    4.93
  19   7  -3    1.14   10.16
 -19  -7  -3    7.13    7.01
 -19  -7  -3    6.76    5.71
  19   7   3   13.86    7.15
  19   7   3    6.76    7.36
 -19   7  -3    9.43    6.53
 -19  -7  -4    7.20    7.11
 -19  -7  -4    2.28    4.86
  19   7   4   14.71    7.24
  19   7   4    6.50    7.22
 -19   7  -4    1.53    6.08
  19   7  -5   49.44   18.81
 -19  -7  -5  130.06   33.59
 -19  -7  -5   39.42   15.95
  19   7   5  129.02   33.26
  19   7   5   20.30    8.72
 -19  -7   5   17.95    8.00
 -19  -7   5   13.59    7.26
 -19  -7   5   20.92   11.30
  19   7  -6    3.22    3.66
  19   7  -6    8.06    5.93
 -19  -7  -6   12.59    7.13
  19   7   6    2.88    6.19
 -19  -7   6    4.13    4.25
 -19  -7   6    4.08    6.48
 -19  -7   6   31.15   14.78
 -19   7   7    0.71    2.19
  19   7  -7    0.71    5.63
  19   7  -7    3.55    5.14
 -19  -7   7   -0.33    5.77
 -19   7  -7    9.05    5.93
 -19   7   8    1.81    2.94
  19   7  -8    5.22    7.40
  19   7  -8   -1.72    5.13
 -19  -7   8    0.00    5.87
  19  -7  -8    4.39    3.37
  19   7  -9    6.92    7.37
  19   7  -9   10.25    5.97
 -19  -7   9   18.48    8.68
 -19   7  -9    0.45    6.47
  19   7 -10    2.29    5.22
  19   8   0    7.98    7.46
 -19  -8   0   -3.37    7.35
  19  -8   0   17.60   10.73
  19  -8   1   20.65    8.90
  19  -8   1   22.01    9.12
  19   8  -1   37.43   12.37
 -19  -8  -1   20.17    9.24
  19   8   1   25.49    9.58
 -19  -8   1   28.11   11.55
  19  -8  -1   74.39   22.16
 -19   8  -1   31.03   10.82
 -19   8  -1   22.47    9.49
  19  -8   2  159.08   40.72
  19   8  -2  120.84   32.38
 -19  -8  -2  126.72   32.84
 -19  -8   2  111.10   29.85
 -19   8  -2  109.26   28.68
  19  -8   3    8.12    6.70
  19   8  -3   46.83   16.29
 -19  -8  -3    5.04    6.26
 -19  -8  -3   12.63    7.29
 -19   8  -3   24.21    8.74
 -19  -8  -4   67.71   18.57
  19   8   4   57.22   15.83
  19   8   4   75.28   28.50
  19   8  -5    2.20    3.66
 -19  -8  -5    7.67    6.58
 -19  -8  -5    8.75    6.17
  19   8   5    1.45    5.67
  19   8   5    8.82    5.87
 -19  -8   5    6.98    4.93
  19   8  -6   38.10   14.94
 -19  -8  -6  114.39   42.36
  19   8   6   49.20   14.85
  19   8   6   53.08   20.36
 -19  -8   6   43.72   16.85
 -19  -8   6  146.76   49.02
 -19  -8   6   24.32   12.59
 -19   8   7    1.55    2.63
  19   8  -7   18.18   10.67
  19   8  -7   11.89   10.22
  19   8  -7   14.75    7.33
  19   8  -7    6.99    5.30
 -19  -8   7    9.81    7.81
 -19   8  -7    2.65    4.90
 -19   8   8   36.22   13.78
  19   8  -8   37.36   13.72
  19  -8  -8   40.59   15.53
  19   8  -9    3.31    5.38
 -19  -8   9    4.33    6.04
  19   8 -10   22.24    9.58
  19   9   0   -0.82    7.10
 -19  -9   0   -5.45    6.97
  19  -9   0    5.49    9.97
  19  -9   0    3.76    4.03
 -19   9   0   -2.65    9.24
  19  -9   1    5.79    6.79
  19  -9   1    4.38    4.86
  19   9  -1   13.11    7.92
 -19  -9  -1   -0.44    6.12
  19   9   1    0.36    5.86
  19  -9  -1   10.67   11.12
 -19   9  -1    3.46    4.93
  19  -9   2    9.01    7.21
  19  -9   2    1.51    8.33
  19   9  -2    8.16    9.81
 -19  -9  -2    4.91    6.64
  19   9   2    9.22    6.24
  19   9   2    3.00   12.27
 -19   9  -2   10.09    6.93
  19  -9   3    5.51    5.27
  19   9  -3   -2.39   10.54
 -19  -9  -3   -1.28    5.50
 -19  -9  -3    0.97    5.70
 -19   9  -3    1.38    5.16
 -19  -9  -4    1.41    5.33
  19   9   4    1.71    4.93
  19   9   4    5.65    7.15
 -19  -9   4    6.85    4.98
  19   9  -5    4.49    9.85
  19   9  -5    5.24    4.05
  19   9   5    4.81    6.24
  19   9   5    4.73    5.19
  19   9  -6   11.60   10.50
  19   9  -6    4.12    4.23
 -19  -9  -6    2.93    5.86
  19   9   6    9.63    7.03
  19   9   6    3.70    6.28
 -19  -9   6    4.08    3.96
 -19   9   7   -1.38    2.69
  19   9  -7    6.68    4.70
  19   9  -7    5.19    7.71
  19   9  -7    4.33    9.66
 -19  -9  -7    4.83    6.61
 -19   9  -7    6.87    6.40
 -19   9   8    2.27    3.37
  19   9  -8   -1.81    7.44
 -19  -9   8    5.54    6.07
 -19   9  -8    2.53    5.76
  19   9  -9   -1.12    4.46
  19  10   0   17.19    8.16
  19 -10   0    4.35    9.61
  19 -10   0    5.04    4.08
 -19  10   0   -0.74    8.16
 -19  10   0    5.33    5.54
  19 -10   1   12.93    8.02
  19 -10   1    5.17    5.37
  19  10  -1    7.31    7.62
 -19 -10  -1    1.48    5.01
  19  10   1    4.90    5.94
  19 -10  -1   -1.56   10.73
 -19  10  -1    6.13    6.28
  19 -10   2   37.36   12.07
  19 -10   2   14.11   11.38
  19  10  -2   33.00   14.12
 -19 -10  -2   37.30   11.35
  19  10   2    5.86   14.38
  19  10   2   32.11   10.02
 -19  10  -2   48.15   15.02
 -19  10  -2   26.71   11.27
  19 -10   3    7.07    5.85
  19  10  -3    5.35   11.20
  19  10  -3    7.92   11.73
 -19 -10  -3    2.77    5.39
 -19 -10  -3    6.50    8.49
  19  10   3    2.39    5.52
 -19 -10   3   -1.94    8.66
  19 -10   4    1.41    5.46
  19  10  -4   19.68   12.67
  19  10  -4   40.03   15.61
 -19 -10  -4    3.69    6.17
 -19 -10  -4    9.54    7.35
  19  10   4   27.39   12.29
 -19 -10   4   19.10    8.69
 -19 -10   4    9.74   11.41
  19  10  -5    5.13    4.32
  19  10  -5    2.42    9.28
 -19 -10  -5    7.13    8.32
  19  10   5   23.04    8.89
  19  10   5    6.31    5.97
 -19 -10   5    4.88    4.31
  19  10  -6   29.33   11.99
 -19 -10  -6   29.54   12.95
  19  10   6   14.65    7.61
  19  10   6   19.65    8.78
 -19 -10   6   15.62    7.47
 -19  10   7    1.65    3.13
  19  10  -7    1.09    3.84
  19  10   7    5.80    5.58
 -19  10   8   36.97   14.24
  19  11   0    4.65    7.40
  19  11   0   10.90   11.61
  19 -11   0   -4.22   10.71
  19 -11   1    5.12    7.57
  19  11  -1    3.50    7.32
  19  11   1    4.30    6.14
 -19 -11   1    4.88    9.07
 -19  11  -1    7.49    6.84
  19 -11   2   23.15    9.39
  19 -11   2    4.31   10.17
  19  11  -2    7.15   10.69
  19  11  -2  111.12   39.78
 -19 -11  -2   17.45    7.40
  19  11   2    6.45    5.74
 -19 -11   2    6.14    8.90
 -19 -11   2   84.83   31.44
 -19  11  -2    5.21    5.69
  19 -11   3   14.22    6.74
  19  11  -3   23.02   12.73
  19  11  -3   -7.51   10.28
 -19 -11  -3   10.92    9.60
  19  11   3    7.97    5.67
  19  11   3    1.41    7.09
 -19 -11   3    3.01   10.32
  19 -11   4    7.76    5.81
  19  11  -4    3.13    4.17
 -19 -11  -4    4.08    6.78
 -19 -11   4    3.37    4.52
  19  11  -5   30.80   12.50
 -19 -11  -5   10.80    8.17
  19  11   5   15.32    7.43
 -19 -11   5   24.84   10.44
  19  11   6    1.64    4.93
 -19 -11   6   10.94    5.92
 -19  11   7    1.44    3.45
  19  11  -7   -0.56    4.12
  19  11   7    3.30    5.54
  19  12   0    8.41   11.40
  19  12   0   -2.18    7.19
 -19 -12   0    5.85   10.60
 -19 -12   0    0.36    6.71
  19 -12   0    4.91    5.64
 -19  12   0    5.32    5.31
  19 -12   1   -0.89    6.96
  19 -12   1    2.53    5.92
  19  12  -1    4.37    7.48
  19  12  -1   11.17   10.55
  19  12   1   -1.33    6.07
 -19 -12   1    2.52    7.68
 -19  12  -1    7.63    6.76
  19 -12   2   13.47    7.87
  19  12  -2    8.14   10.48
  19  12   2    9.78    6.63
  19  12   2   19.81   12.90
 -19 -12   2    4.84    9.33
 -19  12  -2    9.08    6.70
  19 -12   3    9.61    6.68
  19  12  -3   -3.41    9.45
  19  12   3    2.95    6.22
  19  12   3   -2.31    6.91
 -19 -12   3    3.40    4.89
  19 -12   4   43.54   12.78
  19  12  -4   57.72   22.09
  19  12  -4   41.92   19.15
 -19 -12   4   72.50   27.68
  19  12  -6    8.11    6.17
  19  12   6   17.59    9.24
 -19  12   7    0.14    3.93
  19  12  -7    1.46    4.97
  19  13   0    0.44    7.07
  19 -13   0   -4.27   10.00
  19  13  -1   73.07   20.38
  19  13  -1   84.72   32.11
  19  13   1   38.52   12.21
  19  13   1   59.22   23.64
  19 -13   2    4.76    6.88
  19  13  -2    3.99   10.83
  19  13   2   12.23    7.01
  19  13   2   12.35   12.26
 -19  13  -2   -1.64    5.06
  19 -13   3   98.07   25.61
  19  13  -3   61.33   24.86
  19  13   3  141.00   36.32
  19  13   4   -3.01    8.50
  19  13  -5   63.02   24.35
  19  13   5   29.74   13.69
  19  13  -6    0.58    4.94
  19  13   6    5.88    6.33
 -19  14   0    9.41    7.09
 -19  14   1   -0.13    6.32
  19  14  -1    0.51    7.81
  19  14   1    4.23    6.35
  19 -14   2    6.33    7.10
 -19  14  -2    0.65    5.76
  19  14  -3    9.90    6.17
  19  14   3   -2.46    7.10
  19  14  -4    6.23    5.24
  19  14   4    1.43    6.94
  19  14  -5    1.40    5.12
  19  14   5    2.02    7.35
 -19  15   1   55.12   21.22
 -19  15  -2   -0.07    6.50
  19  15  -3    2.53    4.23
  19  15   3   -3.65    7.57
  19  15  -4    0.89    4.96
  19  15   4   -2.19    7.65
 -19  16  -1    5.47    6.59
  20   0   0  661.45  164.73
 -20   0   0  483.36  207.35
  20   0   1   29.50   10.68
  20   0   1   12.51    5.82
  20   0  -1   58.54   18.58
  20   0  -1   12.22    7.77
  20   0   2   15.42    7.82
  20   0   2    3.49    3.93
  20   0  -2   52.09   17.59
 -20   0  -2    1.69    3.61
  20   0   3   36.68   13.89
  20   0   3   41.17   12.68
  20   0   3    8.47    4.40
 -20   0  -3    3.21    4.24
  20   0   4   36.97   11.84
 -20   0  -4   38.71   12.07
 -20   0  -4   41.18   14.15
 -20   0  -5    5.55    5.57
 -20   0  -6  385.79   96.56
  20   0   7   12.65    7.01
 -20   0   7   21.30    8.10
  20   1   0   12.59    9.08
  20   1   0    9.13    4.96
 -20  -1   0   12.95    9.76
 -20  -1   0    2.83    4.30
  20  -1   0   15.39    8.55
  20  -1   1    8.34    7.14
 -20   1   1    1.52    9.78
  20   1  -1   -0.05    9.64
  20   1  -1   20.09    9.82
  20   1  -1    6.17    4.72
 -20  -1  -1    2.44    7.03
 -20  -1  -1    2.11    3.82
  20   1   1    6.19    7.65
  20   1   1    2.84    3.68
 -20  -1   1    5.13    8.73
 -20  -1   1   11.75    5.76
  20  -1  -1    1.89    9.43
 -20   1  -1    6.16    6.90
  20  -1   2    4.76    6.38
  20   1  -2    6.92   11.07
  20   1  -2   -0.39    4.49
  20   1   2    3.97    6.02
  20   1   2    6.44    4.20
 -20  -1   2    2.91    9.41
 -20  -1   2   14.41    9.72
  20  -1  -2   10.56   11.52
 -20   1  -2    2.03    5.76
  20  -1   3   11.60    7.22
  20  -1   3   15.62    6.37
  20  -1   3   26.18    9.30
  20   1  -3   16.85   11.06
 -20  -1  -3   21.55    8.58
  20   1   3   31.00   10.30
  20   1   3    8.77    5.45
 -20   1  -3   10.52    5.87
 -20   1  -3   22.39    8.72
  20  -1   4    2.23    5.77
  20  -1   4   13.44    5.44
 -20  -1  -4    5.13    4.38
  20   1   4    8.08    6.96
 -20   1  -4    6.61    5.86
 -20   1  -4   -0.59    3.00
 -20  -1  -5   36.30   11.05
 -20   1  -5   42.22   12.30
 -20  -1  -6    2.90    5.92
 -20   1  -6    4.59    5.72
  20  -1   7    2.42    5.80
 -20   1   7   13.87    5.35
  20   1  -7    3.95    2.31
  20   1   7    3.60    5.70
 -20  -1   7   13.12    5.32
  20   2   0   12.33    8.67
  20   2   0    9.04    5.20
 -20  -2   0   19.83    9.65
 -20  -2   0    6.04    5.04
  20  -2   0   13.55    7.51
 -20   2   0   17.33   10.06
  20  -2   1   25.69    9.48
 -20   2   1   11.22    9.01
  20   2  -1   15.07   11.10
  20   2  -1   31.82   11.72
 -20  -2  -1   33.94   11.85
 -20  -2  -1   25.99   10.10
  20   2   1   24.25   10.24
  20   2   1   16.61    7.21
 -20  -2   1   11.75   10.24
  20  -2  -1   17.38   10.06
 -20   2  -1   23.88    9.43
  20  -2   2   14.63    7.22
  20   2  -2    9.65    6.30
  20   2  -2    3.73   10.19
 -20  -2  -2    5.91    6.37
  20   2   2    5.99    6.40
 -20  -2   2   10.84   11.45
 -20  -2   2    0.19    4.62
 -20  -2   2   11.28    5.77
  20  -2  -2    2.95    9.63
 -20   2  -2   19.23    7.96
 -20   2  -2    9.36    4.66
  20  -2   3   15.39    7.26
  20   2  -3    5.88    5.80
 -20  -2  -3    3.26    5.98
  20   2   3    0.05    5.96
  20   2   3   13.90    7.14
 -20   2  -3   32.23   10.24
 -20   2  -3   13.18    5.33
  20  -2   4    3.67    5.66
 -20  -2  -4    4.66    4.53
  20   2   4    5.69    6.27
  20   2   4   13.65    6.34
 -20  -2   4    5.87    6.34
 -20   2  -4    0.92    5.70
  20  -2   5    1.30    3.81
  20  -2   5    1.99    2.23
  20   2  -5    2.36    7.80
 -20  -2  -5    2.13    5.02
 -20   2  -5    5.86    5.50
 -20  -2  -6   22.92    9.32
 -20   2  -6   15.01    7.28
 -20   2  -6   14.84    5.56
  20  -2   7   10.18    6.57
  20   2  -7   22.38    8.69
  20   2   7   11.42    7.85
 -20  -2   7    7.88    3.77
  20   3   0   10.63    8.21
 -20  -3   0    7.94    8.33
 -20  -3   0   13.71    7.02
 -20   3   0    1.03    8.30
 -20   3   1    1.66    8.44
  20   3  -1   12.94   11.01
  20   3  -1    9.11    5.28
 -20  -3  -1   29.27   11.77
  20   3   1   17.15    8.37
 -20  -3   1   17.95   11.44
 -20   3  -1    5.18    6.90
  20  -3   2   13.94    7.51
  20  -3   2   23.00    8.86
  20   3  -2   22.66    8.99
  20   3  -2    2.50    9.26
 -20  -3  -2    6.00    6.60
  20   3   2   -0.86    6.09
 -20  -3   2    8.79   10.08
 -20  -3   2    2.10    4.81
 -20  -3   2    0.99    3.77
 -20   3  -2    7.00    6.84
  20  -3   3   15.33    9.55
  20  -3   3    1.89    6.20
  20   3  -3    3.97    5.12
  20   3  -3    9.25    6.07
 -20  -3  -3    3.37    6.15
  20   3   3    0.83    5.72
 -20  -3   3    2.78    5.13
 -20  -3   3   15.91    8.22
 -20   3  -3    1.99    5.91
 -20   3  -3   17.06    8.09
  20  -3   4    4.53    6.06
  20   3  -4    4.79    6.26
  20   3  -4    2.22    4.76
 -20  -3  -4    7.24    4.76
  20   3   4    4.96    5.99
  20   3   4   14.26    6.40
 -20  -3   4   -0.27    4.73
 -20  -3   4   12.37    6.83
 -20   3  -4    2.04    6.11
  20   3  -5   27.90   11.13
 -20  -3  -5   18.07    7.96
  20   3   5   71.65   19.25
 -20  -3   5   20.72   11.17
 -20   3  -5   73.66   19.72
  20   3  -6   10.09    9.39
 -20  -3  -6   24.25   10.08
 -20  -3   6   22.92    9.16
 -20  -3   6    4.26    7.65
 -20   3  -6   10.67    7.24
  20  -3   7   12.72    6.68
  20  -3   7   19.20    6.51
  20   3  -7   14.91    6.28
  20   3  -7    6.33    8.02
 -20  -3   7   11.84    5.51
 -20   3  -8    6.43    2.43
  20   4   0    5.13    7.77
 -20  -4   0    3.17    7.97
 -20   4   0    2.51    8.84
 -20   4   1   -0.80    8.74
  20   4  -1   13.40   10.87
 -20  -4  -1    4.38    8.22
  20   4   1    3.90    6.45
 -20  -4   1    2.85    9.83
 -20  -4   1    0.07    5.02
  20   4  -2    1.01    8.26
  20   4  -2    5.93    4.94
 -20  -4  -2   12.50    7.70
  20   4   2   21.17    8.70
 -20  -4   2    1.84    9.32
 -20  -4   2    7.36    5.96
 -20   4  -2   -3.77    6.55
  20  -4   3   -1.96    4.86
 -20  -4  -3   -1.40    4.23
 -20  -4  -3    4.93    6.48
  20   4   3    5.20    6.12
  20   4   3    1.06    5.58
 -20  -4   3    7.38    5.91
 -20   4  -3    5.52    6.33
  20  -4   4    4.52    5.61
  20   4  -4    2.95    5.07
  20   4  -4    5.79    4.90
 -20  -4  -4    8.43    6.14
  20   4   4    5.62    5.92
 -20  -4   4    4.26    4.98
 -20  -4   4   21.13   10.31
 -20   4  -4   10.06    6.45
 -20   4  -4   15.42    7.85
  20  -4   5   -5.33   10.09
  20   4  -5    6.04    5.57
  20   4  -5    3.60    4.87
  20   4   5    1.92    5.08
 -20  -4   5    1.53    4.60
 -20  -4   5    3.26    4.79
 -20   4  -5    3.85    5.33
 -20   4  -5   -4.07    5.23
  20   4  -6    6.57    3.85
  20   4  -6    2.89    5.03
 -20  -4   6   -2.06    4.81
 -20  -4   6    3.67    3.45
 -20   4  -6    3.68    8.25
  20  -4   7    2.56    5.35
  20   4  -7    6.94    4.00
  20   4  -7    1.59    6.21
  20   4  -7    2.74    8.13
  20  -4  -8    1.85    1.70
  20   4  -9   10.46   11.59
  20   5   0  122.22   32.04
  20  -5   0   75.58   21.48
 -20   5   0   57.67   17.75
  20  -5   1   12.28    7.37
 -20   5   1   14.11   10.23
  20   5  -1   33.29   13.92
 -20  -5  -1   28.78   11.21
  20   5   1   35.60   11.61
 -20  -5   1   13.52   10.64
  20  -5  -1   12.54    9.77
 -20   5  -1   20.07    8.99
  20  -5   2   16.14    6.71
 -20  -5  -2   11.90    8.07
  20   5   2   14.20    7.38
 -20  -5   2    1.13    9.13
 -20  -5   2    9.27    6.36
 -20   5  -2    5.35    7.35
 -20  -5  -3   51.90   15.19
 -20  -5  -3   81.71   30.24
  20   5   3   36.47   11.76
  20   5   3  116.81   43.05
 -20   5  -3   82.98   22.19
  20  -5   4    8.12    6.62
  20   5  -4   33.65   16.00
  20   5  -4    3.52    4.56
 -20  -5  -4    8.45    6.19
 -20  -5  -4    1.99    4.78
  20   5   4    6.32    5.61
  20   5   4   11.58    6.49
 -20  -5   4    8.93    6.04
 -20  -5   4    6.65    5.09
 -20   5  -4    7.09    5.45
 -20   5  -4    2.31    4.91
  20  -5   5  180.62   77.96
  20   5  -5  201.71   86.96
  20   5  -5  231.43   76.31
 -20  -5  -5  295.71  107.43
  20   5   5  187.88   47.64
  20   5   5  198.60   72.34
 -20  -5   5  191.34   82.50
 -20  -5   5  178.67   59.42
 -20   5  -5  232.47   58.69
 -20   5  -5  151.94   65.50
  20  -5   6    1.34    4.91
  20   5  -6    9.14    4.50
  20   5  -6    3.81    5.43
 -20  -5   6   19.20    9.88
 -20  -5   6    3.41    3.53
 -20   5  -6   17.67    8.89
  20  -5   7    9.21    6.61
  20   5  -7    1.58    4.93
 -20  -5   7   12.83    6.14
 -20  -5   7    0.78    5.16
 -20   5   8    8.15    3.51
  20   5  -8    6.12    7.10
  20   5  -8    7.09    5.71
 -20  -5   8   -0.51    4.88
  20  -5  -8    9.36    4.15
 -20   5  -8   39.30   19.53
  20   5  -9    0.15    5.44
  20   5 -10    5.71    6.79
 -20  -6   0    4.26    7.58
  20  -6   0    6.82    9.50
 -20   6   0   15.33   10.53
  20  -6   1    2.25    6.36
 -20   6   1    4.94    8.70
 -20  -6  -1    7.62    7.75
  20   6   1    6.27    6.10
 -20  -6   1    4.36    8.92
  20  -6  -1    5.85    9.24
 -20   6  -1    2.93    6.65
  20  -6   2   -0.19    4.74
 -20  -6  -2    1.08    6.83
  20   6   2    2.94    6.33
 -20  -6   2   -0.92    8.16
 -20   6  -2    2.89    6.71
 -20   6  -2   15.08    6.40
  20   6  -3   -2.29    9.82
 -20  -6  -3   10.51    7.26
 -20  -6  -3    1.75    4.32
  20   6   3    5.04    5.89
 -20   6  -3    6.57    5.55
 -20  -6  -4    0.94    5.28
 -20  -6  -4   12.58    6.81
  20   6   4    4.58    5.39
 -20  -6   4   -0.43    6.35
 -20  -6   4    5.25    6.22
 -20   6  -4   -0.20    5.33
  20   6  -5    6.83    7.33
  20   6  -5    5.99    5.14
  20   6   5    2.15    5.53
  20   6   5   10.41    5.85
 -20  -6   5    8.54    4.99
 -20  -6   5   15.78    8.56
  20  -6   6    5.74    5.28
  20   6  -6    5.04    5.51
  20   6  -6   17.16    7.23
 -20  -6  -6   21.55    9.80
 -20  -6   6   17.33    8.64
 -20  -6   6    3.89    3.67
 -20  -6   6    6.62    6.22
 -20   6  -6   22.01   10.50
  20  -6   7    1.79    5.88
  20   6  -7   -0.55    3.32
  20   6  -7    1.39    5.69
  20   6  -7    3.29    5.17
 -20  -6   7    1.10    5.27
 -20  -6   7    1.49    3.09
 -20   6  -7    1.10    4.23
 -20   6   8    4.25    2.48
  20   6  -8    2.12    4.71
  20   6  -8    4.53    6.30
  20  -6  -8    3.93    3.05
 -20   6  -8    1.70    7.50
 -20  -6   9   -0.10    5.14
 -20  -7   0   51.35   15.67
 -20   7   0   13.07    9.39
  20  -7   1    2.02    6.52
  20  -7   1   22.88    9.26
 -20   7   1   11.09    8.87
  20   7  -1    4.89    8.49
 -20  -7  -1   18.77    8.78
 -20  -7   1    1.75    8.74
 -20   7  -1   -0.19    6.68
  20  -7   2   28.19    9.93
  20   7  -2   44.65   15.26
 -20  -7  -2   27.50    9.72
  20   7   2   58.97   16.28
 -20  -7   2   23.89   11.41
 -20   7  -2   60.88   17.27
  20  -7   3    8.24    5.56
  20   7  -3    2.00   10.59
 -20  -7  -3    3.52    5.83
 -20  -7  -3    3.48    6.05
  20   7   3    3.75    5.56
 -20   7  -3    5.05    5.67
  20  -7   4    6.28    5.23
 -20  -7  -4    4.81    6.23
  20   7   4    5.99    5.67
  20   7   4    8.26    6.80
  20  -7   5    6.38    5.23
 -20  -7  -5   13.01    7.33
  20   7   5   14.30    7.37
  20   7   5    5.73    4.91
 -20  -7   5    6.54    4.75
 -20  -7   5    5.64    6.05
 -20  -7   5   12.81    8.12
  20  -7   6    7.57    6.29
  20   7  -6   35.81   13.85
  20   7  -6   28.38   11.39
  20   7   6    9.64    6.29
 -20  -7   6   46.00   17.61
 -20  -7   6   30.67   14.63
 -20  -7   6   65.80   23.37
  20   7  -7   10.61    7.70
  20   7  -7    1.04    3.50
  20   7  -7    4.86    5.25
 -20  -7   7    9.81    5.31
 -20  -7   7    7.20    6.18
 -20   7  -7    8.45    5.95
 -20   7   8   67.59   25.10
  20   7  -8   62.67   21.67
 -20  -7   8   51.82   18.96
  20  -7  -8   54.26   20.40
  20   7  -9   37.39   13.74
 -20  -7   9   29.82   12.13
  20   8   0  327.50   82.34
 -20  -8   0  302.16   76.29
  20  -8   0  220.26   56.50
  20  -8   1   28.08   11.26
  20   8  -1   69.62   19.89
 -20  -8  -1   30.43   10.99
  20  -8  -1   82.31   24.33
 -20   8  -1   52.59   15.77
 -20   8  -1   12.87    6.15
  20  -8   2   62.37   17.33
  20   8  -2   62.86   19.76
 -20  -8  -2   54.28   15.57
 -20   8  -2   88.17   23.95
 -20   8  -2   34.84   13.57
  20  -8   3   19.81    7.74
  20   8  -3   13.40   11.91
 -20  -8  -3   19.80    8.39
 -20  -8  -3    9.23    8.86
  20   8   3   23.68    8.48
  20  -8   4   41.30   12.10
 -20  -8  -4   34.90   11.62
  20   8   4   18.82    7.63
  20   8   4   38.18   15.69
  20  -8   5   14.63    6.77
  20   8  -5   59.79   22.57
  20   8   5   18.72    7.95
 -20  -8   5   30.76   12.61
  20  -8   6  202.74   51.32
  20   8  -6  160.58   59.44
 -20  -8  -6  250.21   91.18
  20   8   6  230.39   58.50
  20   8   6  174.98   63.95
 -20  -8   6  159.66   59.14
 -20  -8   6   83.25   28.74
  20   8  -7   92.08   34.41
  20   8  -7   77.68   26.47
 -20  -8  -7   22.53   10.90
 -20  -8   7   62.67   23.74
 -20  -8   7  149.07   49.95
 -20   8   8    7.65    3.91
  20   8  -8    2.87    4.86
  20   9   0    2.80    6.82
 -20  -9   0    0.38    7.11
  20  -9   0   -0.68    9.95
  20  -9   1    3.88    7.09
  20   9  -1    2.25    7.19
 -20  -9  -1   13.34    7.84
  20   9   1   11.82    6.58
  20  -9  -1   -0.99   10.84
 -20   9  -1   15.46    6.91
  20  -9   2    9.21    7.26
  20   9  -2   -2.38   10.17
 -20  -9  -2    2.46    6.06
 -20   9  -2   10.47    6.02
  20  -9   3    8.13    6.06
  20   9  -3   -1.17   10.66
  20   9   3    6.62    5.42
 -20  -9   3   -2.92    7.89
  20  -9   4    3.15    5.66
 -20  -9  -4    2.61    5.73
  20   9   4    2.16    5.29
  20   9   4    4.14    6.51
  20  -9   5    3.16    4.92
  20   9  -5    0.70    3.12
  20   9   5   -0.33    5.56
  20   9   5   18.03    8.49
 -20  -9   5    5.85    4.51
  20   9  -6    1.21    3.69
 -20  -9  -6    5.54    5.95
 -20  -9   6    2.63    4.27
  20   9  -7   -0.71    4.11
 -20  -9   7    0.91    3.80
 -20  -9   7   10.98    6.22
  20   9  -8    2.04    4.23
 -20  -9   8   -0.62    5.99
  20  10   0   29.84   10.65
 -20 -10   0   37.01   12.42
  20 -10   0   13.41   11.00
  20 -10   1   -1.75    7.18
  20 -10   1    7.97    5.85
  20  10  -1    2.13    7.63
 -20 -10  -1   23.37    9.34
  20  10   1    3.63    5.90
  20 -10  -1   15.69   12.40
 -20  10  -1   12.45    6.75
  20 -10   2   23.26    9.53
  20  10  -2    5.35   10.23
 -20 -10   2    2.98    9.89
  20 -10   3    5.30    6.00
  20  10  -3    6.60   10.37
  20  10   3    1.44    8.11
  20 -10   4   25.70    9.23
  20  10  -4   40.20   17.67
 -20 -10  -4   17.65    8.98
  20  10   4   19.83    8.27
 -20 -10   4   33.51   13.41
 -20 -10  -5    8.80    7.50
  20  10   5    4.98    6.26
 -20 -10   5   10.27    5.77
  20  10  -6   32.07   12.91
  20  10   6   63.06   23.91
  20  10  -7    0.89    4.64
 -20 -10   7    2.97    4.61
  20  11   0    5.73    6.83
  20 -11   0    6.14    8.96
 -20  11   0    3.92    5.26
  20 -11   1    4.34    6.62
  20 -11   1    1.04    5.57
  20  11  -1    5.23    7.09
  20  11   1    0.71    6.32
  20 -11  -1   -4.85   10.69
  20 -11   2    0.66    6.41
  20  11  -2   -3.14    9.62
  20  11  -2    9.99   12.35
  20  11   2    1.62    5.35
  20 -11   3    6.39    6.37
  20  11  -3   -8.15   10.15
  20  11  -3    5.98   10.99
  20  11   3   -2.00    7.71
  20 -11   4    0.88    6.03
  20  11  -4    3.10    4.12
 -20 -11  -4    5.67    6.12
 -20 -11   4    3.16    4.64
  20  11  -5   15.17    7.08
  20  11  -6    4.64    4.79
  20  11   6    1.46    4.33
  20  12   0   24.64   10.84
 -20  12   0   25.25   10.96
  20 -12   1   43.22   14.12
  20  12  -1   29.05   11.67
  20  12  -1   21.30   14.07
  20  12   1   14.48    7.95
  20  12   1   26.71   15.40
 -20  12  -1   20.77    9.87
  20 -12   2   20.16    9.33
  20  12  -2    2.36   12.74
  20  12  -2   16.84   13.67
  20  12   2   10.24    6.81
 -20  12  -2    1.79    5.22
  20 -12   3    3.13    6.93
  20  12  -3   -1.62   11.38
  20  12   3   -1.32    6.91
  20  12  -4   27.09   11.18
  20  12   4    4.08    7.96
  20  12  -5   11.03    5.98
  20  12   5   -0.23    6.93
  20  12  -6    9.53    6.64
 -20  13   0   79.04   29.55
 -20  13  -1   23.34   10.96
 -20  13  -2   10.65    6.96
  20  13   3   -1.24    8.18
  20  13  -4   31.47   12.71
  20  13   4   12.41    8.78
 -20  14   0   45.26   18.27
 -20  14   1    3.60    5.32
 -20  14  -1   10.16    7.22
 -20  14  -2    2.32    5.57
  20  14   3   -5.12    7.61
  21   0   0    2.81    7.04
 -21   0   0   18.57    8.39
  21   0   1  263.45   66.40
  21   0   1  158.39   52.23
  21   0  -1  193.41   49.75
  21   0  -1  112.24   48.41
  21   0   2   85.28   28.35
 -21   0   2   19.17   10.75
  21   0  -2   23.21   13.11
 -21   0  -2   47.83   16.50
  21   0   3  426.92  154.82
  21   0   3  322.44   80.68
  21   0   3  527.71  172.68
 -21   0  -3  335.22   83.83
 -21   0  -3  532.90  174.40
 -21   0  -3  620.10  224.75
  21   0   4   29.61    9.94
 -21   0  -4   45.68   13.11
 -21   0  -4   27.21    9.78
 -21   0  -4   54.91   20.27
 -21   0  -5  115.31   29.96
  21   0   6   21.15    8.36
 -21   0   7   45.42   16.91
  21   0  -8  118.88   43.81
  21   1   0    1.57    7.48
  21   1   0    3.58    3.74
 -21  -1   0   -0.35    8.32
 -21  -1   0   -1.30    4.01
  21  -1   0    1.00    6.59
  21  -1   1    9.49    7.09
  21   1  -1   -1.95    4.07
  21   1  -1    2.10    8.79
  21   1  -1    2.92    4.15
 -21  -1  -1    5.68    4.41
  21   1   1    6.57    6.80
  21   1   1   24.28    8.97
 -21  -1   1    1.95    8.64
 -21  -1   1   13.40    6.34
  21  -1  -1   -3.82    9.61
 -21   1  -1    2.88    6.40
  21  -1   2   19.77    8.12
  21   1  -2   18.53    8.99
  21   1  -2    7.84   10.06
 -21  -1  -2   55.70   19.03
  21   1   2   13.92    7.64
  21   1   2   28.64   10.23
 -21  -1   2    1.14   10.00
 -21  -1   2   31.53   15.02
  21  -1  -2   18.45   11.38
 -21   1  -2   22.38    8.52
  21  -1   3   13.44    5.68
  21  -1   3    6.26    5.85
  21  -1   3    6.67    3.56
  21   1  -3    6.81    7.30
 -21  -1  -3    8.33    4.53
 -21  -1  -3    9.82    5.64
  21   1   3    5.91    5.85
  21   1   3   10.42    6.00
 -21   1  -3   17.71    7.43
 -21   1  -3   12.31    5.70
 -21  -1  -4   27.84    9.42
 -21  -1  -4   51.84   19.18
  21   1   4   32.59   10.23
 -21   1  -4   28.55    9.49
 -21  -1  -5    4.86    5.84
 -21   1  -5    5.51    5.61
 -21   1  -5    4.08    3.10
  21  -1   6    4.47    5.76
  21   1   6    3.63    5.62
 -21  -1   7    2.81    2.35
  21   1  -8    7.53    3.92
  21  -1  -8   12.59    4.88
  21   2   0    3.39    7.38
 -21  -2   0    7.46    7.59
 -21  -2   0    1.40    4.54
  21  -2   0    4.22    6.09
 -21   2   0   -0.20    8.03
  21  -2   1    8.99    6.45
 -21   2   1   -2.28    7.29
  21   2  -1    8.08    5.67
 -21  -2  -1   16.17    8.04
  21   2   1    2.54    6.44
  21   2   1   26.20    9.63
  21  -2  -1    6.48    9.12
 -21   2  -1   16.13    8.37
  21  -2   2   11.18    6.76
  21   2  -2   -2.42    8.13
  21   2  -2   -1.84    4.87
  21   2   2   17.84    7.77
 -21  -2   2    0.96    4.56
 -21  -2   2    1.14   10.10
 -21  -2   2    9.37    4.99
  21  -2  -2   -1.78   10.31
 -21   2  -2    9.01    6.84
 -21   2  -2    6.84    3.70
  21   2  -3   23.70    9.68
 -21  -2  -3   23.19    9.61
  21   2   3   30.73    9.76
 -21  -2   3   56.80   25.02
 -21   2  -3   33.91   10.56
 -21  -2  -4    6.39    5.80
  21   2   4    2.58    5.20
 -21  -2   4    2.08    5.86
 -21   2  -4    4.14    5.08
  21  -2   5    8.01    5.50
  21  -2   5   15.00    5.64
  21   2  -5    8.29    8.94
 -21   2  -5   11.12    6.34
  21  -2   6   12.27    7.00
  21  -2   6    3.03    2.21
  21   2   6    3.09    5.42
 -21   2  -6    0.64    2.46
  21   2  -7   10.56    4.52
 -21  -2   7   10.01    4.45
 -21   2  -7    3.66    2.28
  21   2  -8    4.46    3.81
  21   3   0    3.71    7.39
 -21  -3   0    2.49    7.26
 -21  -3   0   39.71   14.36
 -21   3   0    9.02    8.83
 -21   3   1   16.61    9.27
  21   3  -1   25.09   11.52
  21   3  -1   12.72    6.01
 -21  -3  -1    2.95    7.12
  21   3   1    5.63    7.42
 -21  -3   1   18.93   11.15
  21  -3  -1   14.81   11.21
 -21   3  -1   15.04    8.11
  21   3  -2   11.59    9.35
  21   3  -2   40.18   14.17
 -21  -3  -2   25.44    9.23
  21   3   2   23.41    8.50
 -21  -3   2    2.11   11.25
 -21  -3   2   26.32   10.26
  21  -3  -2   13.48   10.48
 -21   3  -2   22.46    8.99
  21   3  -3   71.92   31.40
  21   3  -3   51.64   17.99
 -21  -3  -3   43.42   16.59
  21   3   3   57.08   15.77
  21   3   3   61.99   23.56
 -21  -3   3   40.19   14.42
 -21   3  -3   54.94   15.14
 -21   3  -3   36.75   16.20
  21   3  -4    3.54    4.89
  21   3  -4    3.23    4.39
 -21  -3  -4    3.67    5.33
  21   3   4    5.97    5.66
 -21  -3   4    0.00    4.60
 -21  -3   4    4.71    4.53
 -21   3  -4    5.70    5.55
  21  -3   5   13.66    6.64
  21   3  -5    6.03    5.90
 -21  -3  -5   21.08    8.87
  21   3   5   11.36    6.01
 -21  -3   5    0.16    5.83
 -21   3  -5   11.57    6.68
  21  -3   6    7.24    5.68
  21   3  -6    1.89    7.52
  21   3   6   19.30    8.02
 -21  -3   6    4.91    6.64
  21  -3   7    4.11    2.14
  21   3  -7    5.89    3.52
  21   3  -7    4.79    8.30
 -21  -3   7   15.24    6.31
  21   3  -8    9.73    5.05
 -21   3  -8   19.88    6.69
  21   4   0   -1.76    6.27
 -21  -4   0   -3.42    8.21
 -21   4   0    1.86    8.09
 -21   4   1    0.78    8.24
  21   4  -1   14.23    9.85
 -21  -4  -1   14.75    8.40
  21   4   1    4.16    7.03
 -21  -4   1   21.97   11.78
 -21   4  -1   14.61    8.38
  21   4  -2    3.57    4.31
 -21  -4  -2   10.08    6.88
  21   4   2   14.01    7.19
 -21  -4   2    2.87   10.34
 -21   4  -2   13.79    7.83
  21  -4   3    8.08    5.92
 -21  -4  -3    2.37    5.41
  21   4   3   16.98    7.37
  21   4   3    6.59    6.62
 -21  -4   3    6.01    5.31
 -21  -4   3    2.77    4.88
 -21   4  -3   17.71    7.58
  21  -4   4   -1.92    5.71
  21  -4   4    3.88    4.93
  21   4  -4    3.65    5.03
  21   4  -4    3.46    4.20
 -21  -4  -4    5.51    4.88
  21   4   4   11.02    5.75
  21   4   4    1.05    5.57
 -21  -4   4    3.54    4.45
 -21  -4   4    4.97    4.92
 -21   4  -4    0.63    5.16
 -21   4  -4    7.91    5.17
  21  -4   5    5.14    5.43
  21   4  -5    3.88    4.84
  21   4  -5    5.14    5.13
 -21  -4  -5   28.44   11.31
  21   4   5    4.28    4.48
 -21  -4   5    0.34    4.76
 -21  -4   5    7.80    5.33
 -21   4  -5    7.13    5.44
  21  -4   6    3.05    5.14
  21   4  -6    2.07    5.38
  21   4  -6   -0.59    4.80
 -21  -4   6    2.73    3.15
 -21  -4   6   -2.76    5.78
 -21   4  -6    0.55    7.42
  21   4  -7   14.30    6.07
  21   4  -7    1.57    5.82
 -21  -4   7   13.73    6.26
 -21   4   8    3.84    1.91
  21   4  -8    3.69    3.81
  21   5   0    1.28    6.76
 -21  -5   0    6.60    9.12
  21  -5   0    2.97    8.86
 -21   5   0   14.03    9.91
  21  -5   1   -1.65    5.64
 -21   5   1    3.70    9.10
 -21  -5  -1    5.58    8.40
  21   5   1    6.42    6.87
 -21  -5   1   16.85   11.34
  21  -5  -1   17.03   10.53
 -21   5  -1    8.58    8.03
  21  -5   2  100.58   26.33
  21  -5   2  111.65   40.65
 -21  -5  -2  101.89   26.93
  21   5   2   88.41   23.30
 -21  -5   2   45.17   16.13
 -21  -5   2  710.76  232.81
 -21   5  -2  105.61   27.91
  21  -5   3  167.26   42.48
 -21  -5  -3  157.93   40.51
 -21  -5  -3  120.38   44.63
  21   5   3  142.62   36.52
 -21   5  -3  155.97   39.83
  21  -5   4  191.68   82.60
  21   5  -4  535.43  229.93
  21   5  -4  230.62   76.02
 -21  -5  -4  198.37   72.27
 -21  -5   4  396.73  170.37
 -21  -5   4  133.40   44.63
 -21   5  -4  297.09  127.64
  21  -5   5   48.95   14.27
  21   5  -5   18.37    9.51
  21   5  -5    4.96    5.25
 -21  -5   5    6.77    6.06
 -21  -5   5    8.13    6.20
 -21   5  -5   28.61   13.14
  21  -5   6   23.80    8.82
 -21  -5  -6    2.13    4.69
 -21  -5   6   51.92   19.87
 -21  -5   6   48.26   21.56
 -21   5  -6   50.79   22.44
  21   5  -7   35.83   16.73
  21   5  -7   60.96   23.04
  21   5  -7   39.62   14.57
 -21  -5   7   51.01   19.24
 -21  -5   7   14.01    7.53
 -21   5  -7  107.47   47.35
  21   5  -9   34.49   13.31
  21   6   0    3.22    6.93
 -21  -6   0   10.03    9.19
  21  -6   0    7.85    9.68
 -21   6   0    4.17    9.24
  21  -6   1    8.41    7.08
 -21   6   1    8.16   10.14
 -21  -6  -1   50.87   15.67
  21   6   1   40.43   12.36
 -21  -6   1   17.46   11.67
  21  -6  -1    4.03    9.42
 -21   6  -1   14.65    8.95
  21  -6   2   12.18    6.93
  21  -6   2    2.62    4.27
  21   6  -2   12.33   10.24
 -21  -6  -2    7.93    6.58
  21   6   2   10.12    6.37
 -21  -6   2   -3.84    9.61
 -21   6  -2   13.75    8.52
 -21   6  -2    7.47    3.82
  21   6  -3    7.44   11.24
 -21  -6  -3    5.92    6.35
  21   6   3    4.51    5.59
 -21  -6   3   38.98   14.49
  21  -6   4    2.33    5.52
  21   6  -4    0.41    4.05
  21   6   4   12.19    7.21
  21   6   4    6.89    6.41
 -21  -6   4    8.05    6.79
 -21  -6   4    3.88    5.37
  21  -6   5   19.53    7.67
  21   6  -5   17.49    9.94
  21   6  -5   17.37    8.20
 -21  -6  -5   22.13    9.59
  21   6   5   21.62    9.12
 -21  -6   5   33.51   15.32
 -21   6  -5   16.43    8.91
  21   6  -6    7.96    6.47
  21   6  -6   10.61    4.94
 -21  -6  -6   13.51    7.15
 -21  -6   6    0.12    5.01
 -21  -6   6    5.80    4.12
 -21   6  -6    7.64    5.64
  21   6  -7    9.64    8.49
  21   6  -7    6.57    4.26
  21   6  -7    7.35    5.42
 -21  -6   7    2.95    3.33
 -21  -6   7    5.48    5.57
 -21   6  -7    7.23    6.08
 -21   6   8    3.49    2.73
  21   6  -8    3.30    4.37
  21   6  -8    3.60    5.42
 -21  -6   8    1.85    4.84
 -21  -7   0    0.52    7.50
  21  -7   1   10.23    5.01
  21   7  -1    5.55    7.05
 -21  -7  -1   23.87    9.97
  21   7   1   14.68    6.93
 -21  -7   1    9.66   10.43
  21  -7  -1    0.22    9.54
  21  -7   2   11.67    7.09
  21   7  -2   33.05   13.92
 -21  -7  -2   25.73    9.50
  21   7   2   33.99   10.89
 -21  -7   2   29.99   12.68
 -21   7  -2   49.29   18.50
  21   7  -3    7.53   11.17
  21   7   3    2.91    5.72
  21   7   4   12.19    7.32
  21   7   4   12.72    7.92
 -21  -7  -5   10.53    7.08
 -21  -7   5    2.14    3.56
 -21  -7   5    2.21    5.90
 -21  -7   5    5.67    6.20
 -21  -7  -6   32.52   13.37
  21   7   6   23.95   10.73
 -21  -7   6   51.11   19.58
 -21  -7   6   32.72   12.57
  21   7  -7    6.86    4.61
  21   7  -7    2.20    4.58
 -21  -7   7   11.90    5.90
 -21  -7   7   -0.24    5.15
  21   7  -8   22.74    9.33
 -21  -7   8   27.38   11.44
  21   8   0    1.92    6.90
 -21  -8   0    4.63    7.86
  21  -8   0   -2.52    9.58
  21  -8   1    6.30    4.26
  21   8  -1   52.17   15.90
 -21  -8   1   27.83   12.54
  21  -8   2   25.30    9.54
  21   8  -2   14.69   10.55
  21   8   2   18.30    7.86
  21  -8   3    4.52    6.07
  21   8  -3   10.54   11.13
  21   8   3   15.90    7.63
  21   8   3    4.55    8.02
  21  -8   4   -1.45    5.30
 -21  -8  -4    6.23    5.50
  21   8   4    6.81    6.32
  21   8   4    6.04    6.19
  21   8   5    2.68    5.08
 -21  -8   5   24.33   10.02
  21   8  -6   18.90    7.91
 -21  -8   6   19.51    8.40
 -21  -8   6    8.93    6.33
  21   8  -7   54.65   21.00
  21   8  -7   11.54    6.74
 -21  -8   7   75.19   28.36
 -21  -8   7   48.14   17.75
  21   8  -8   24.96   10.19
  21   9   0    2.76    6.39
  21  -9   0    4.26    8.75
  21  -9   1    7.19    6.85
  21  -9   1    5.49    4.41
  21   9  -1    5.42    6.93
  21  -9  -1   -0.43   10.66
 -21   9  -1    1.61    4.66
  21  -9   2    7.27    7.12
  21  -9   2   -2.65    5.70
  21   9  -2    3.12    9.33
  21   9   2    4.01    5.71
 -21   9  -2    4.85    4.88
  21  -9   3    7.75    6.15
  21   9  -3    7.43   12.16
  21   9   3   11.31    6.94
  21   9   3   -1.33    7.10
  21  -9   4    9.07    6.58
 -21  -9  -4   20.31    9.39
  21   9  -5    1.74    2.91
 -21  -9  -5    0.42    6.10
  21   9   5    5.75    5.75
  21   9  -6   10.96    5.60
  21   9   6   -0.31    4.76
 -21  -9   6   10.82    5.85
  21  10   0    4.05    7.79
  21 -10   0   -5.96    9.81
  21 -10   1   72.63   20.39
  21  10  -1   68.76   19.71
 -21  10  -1   28.87   11.55
  21 -10   2    4.74    7.41
  21  10  -2    0.33   10.72
 -21  10  -2   14.77    6.90
 -21 -10  -3   54.37   23.60
  21  10   3    4.15    8.06
 -21 -10  -4    2.88    5.50
  21  10  -5   25.18   10.18
  21  11   0   -0.42    8.26
  21 -11   0   -1.40   10.67
 -21  11   0    5.03    6.30
  21 -11   1    1.94    8.51
  21  11  -1    5.98    8.92
  21  11   1    3.38    6.93
  21 -11  -1    2.03   13.37
 -21  11  -1    6.24    5.57
 -21  11  -2   17.30    8.13
  21  11   3   -5.04    7.85
  21  11   4   -0.74    8.76
  21  11  -5    1.12    3.30
 -21  12   0    1.33    5.86
  21  12   3   -1.92    7.28
  21  12   4   -0.45    6.83
 -21  13  -1   19.83    9.99
  22   0   0   23.41    9.93
 -22   0   0   14.57    6.77
  22   0   1   31.87   10.93
  22   0   1   21.25    8.12
 -22   0   1    1.09    9.76
  22   0  -1    9.03   10.65
  22   0  -1   12.63    6.50
 -22   0  -1   31.08   10.92
  22   0   2   18.95    7.90
  22   0   2   20.65    7.82
 -22   0   2    3.35    9.05
  22   0  -2   10.88   11.50
  22   0  -2    2.20    5.58
 -22   0  -2   28.97    9.93
 -22   0  -2    1.13    3.53
  22   0   3    4.89    4.10
 -22   0  -3    1.58    5.41
 -22   0  -3    3.92    3.62
 -22   0  -4   49.32   18.30
 -22   0  -4  133.63   44.35
  22   0   5   33.76   10.87
  22   1   0   18.11    9.79
  22   1   0    0.42    4.24
 -22  -1   0   28.89   13.18
 -22  -1   0   -0.48    3.76
  22  -1   0   15.08    8.68
 -22   1   0   22.95   12.33
  22  -1   1    2.30    6.40
  22   1  -1    5.29   10.40
  22   1  -1   17.77    8.68
  22   1  -1    3.23    4.03
  22   1   1    6.76    7.43
  22   1   1    5.62    3.91
 -22  -1   1   -3.86    8.79
 -22  -1   1    1.54    2.58
  22  -1  -1    3.04    9.55
 -22   1  -1    1.80    6.75
  22  -1   2    8.43    6.32
  22   1  -2   -0.02    9.17
  22   1  -2   -2.15    4.13
 -22  -1  -2    0.81    3.63
 -22  -1  -2    0.22    5.82
  22   1   2    3.42    5.94
  22   1   2    6.99    4.18
 -22  -1   2    4.41    9.63
 -22  -1   2   14.96    8.99
  22  -1  -2   13.86   12.69
 -22   1  -2    6.08    5.97
  22  -1   3    6.52    3.99
  22  -1   3    4.23    2.98
  22   1  -3    2.18    5.94
 -22  -1  -3    6.07    6.51
 -22  -1  -3    0.47    3.50
 -22  -1  -3    2.46    4.67
  22   1   3    1.66    5.33
 -22   1  -3    6.39    5.66
 -22   1  -3    1.63    3.69
  22  -1   4    4.56    5.64
  22  -1   4    4.06    2.99
  22   1  -4    2.89    6.39
 -22  -1  -4    5.57    4.39
  22   1   4    5.03    3.72
 -22   1  -4    0.84    2.89
  22  -1   5    5.74    6.21
  22  -1   5    1.68    2.72
  22   1   5    0.15    5.46
 -22   1  -5    3.28    3.11
 -22   1  -6   14.89    5.73
  22   2   0   -0.71    8.15
 -22  -2   0    1.48    7.93
 -22  -2   0    3.53    4.42
  22  -2   0    7.48    7.23
 -22   2   0    2.95    9.06
  22  -2   1   35.26   11.58
 -22   2   1    0.91    8.61
  22   2  -1    5.46   10.44
  22   2  -1   34.73   12.58
  22   2   1   16.68    8.58
  22   2   1   23.97    8.96
 -22  -2   1    7.15   10.35
 -22  -2   1   10.74    6.28
  22  -2  -1    7.28    9.89
 -22   2  -1   17.22    8.57
  22   2  -2    3.69    4.85
  22   2  -2   -2.32    9.77
 -22  -2  -2    4.66    3.97
  22   2   2    4.28    6.13
 -22  -2   2   -1.31    4.50
 -22  -2   2    1.40   10.18
 -22  -2   2    4.83    3.46
  22  -2  -2   30.58   13.94
 -22   2  -2    6.41    6.71
 -22   2  -2    5.98    3.27
  22   2  -3    9.66    6.15
 -22  -2  -3    8.45    6.56
  22   2   3    2.55    5.34
  22   2   3    5.62    5.45
 -22  -2   3   13.28    7.37
 -22   2  -3   14.08    7.25
 -22   2  -3    9.40    4.39
  22  -2   4    5.99    5.95
  22   2   4    3.91    3.48
 -22  -2   4    6.77    6.01
  22  -2   5   12.63    6.67
 -22  -2  -5   21.83    8.96
  22   2   5    5.23    5.54
  22  -2   6    2.25    1.92
  22   2  -6    1.10    7.85
 -22   2  -6    4.53    2.57
 -22  -2   7   23.59    9.38
 -22   2  -7   21.05    7.29
  22   3   0   80.03   22.44
  22   3   0  113.01   37.59
 -22  -3   0   89.30   25.15
 -22  -3   0   90.20   30.43
  22  -3   0   64.54   19.20
 -22   3   0  102.31   28.03
 -22   3   1   -0.77    8.44
  22   3  -1   26.15   12.83
  22   3  -1    6.21    4.62
 -22  -3  -1   28.80   11.37
  22   3   1   12.01    7.92
 -22  -3   1   12.64   11.26
 -22  -3   1    3.34    5.30
  22  -3  -1   11.89    9.55
 -22   3  -1   17.49    8.64
  22  -3   2   45.80   20.07
  22   3  -2    5.86   10.79
  22   3  -2   17.74    7.48
  22   3   2   15.60    7.43
 -22  -3   2    9.29   11.17
 -22  -3   2   24.91    9.91
 -22  -3   2   19.08    8.82
  22  -3  -2   29.17   13.77
 -22   3  -2   12.06    7.60
  22  -3   3    5.38    5.27
  22   3  -3    4.77    4.48
  22   3  -3    3.53    4.72
 -22  -3  -3   27.45   12.43
  22   3   3    3.80    5.77
  22   3   3    7.25    6.25
 -22  -3   3    1.43    4.47
 -22  -3   3    3.59    3.44
 -22   3  -3    2.33    6.26
 -22   3  -3   13.16    6.33
  22   3  -4   11.88    6.77
  22   3  -4   14.19    6.82
 -22  -3  -4    6.61    4.58
  22   3   4    9.86    5.54
 -22  -3   4    3.89    3.97
 -22  -3   4    1.08    5.24
  22  -3   5    6.22    5.85
  22   3  -5    5.01    5.30
  22   3  -5    8.28    6.58
 -22  -3  -5    7.65    5.23
  22   3   5    5.83    5.92
 -22  -3   5    1.65    5.76
  22   3  -6    7.94    8.73
 -22  -3   6    4.56    7.10
  22  -3   7    6.77    2.85
 -22  -3   7    4.89    3.27
 -22   3  -8    2.30    1.60
  22   4   0    0.12    7.08
 -22  -4   0    0.70    9.18
 -22   4   0    0.55    8.83
 -22   4   1    6.58    9.00
  22   4  -1    2.25    9.42
 -22  -4  -1    5.78    8.11
  22   4   1    5.29    7.11
 -22  -4   1    5.80   10.80
 -22   4  -1    1.45    7.10
  22  -4   2    1.01    5.24
  22   4  -2    0.35    4.04
  22   4   2   -1.67    5.87
 -22  -4   2   -1.01   10.08
  22  -4  -2   -3.43    9.62
 -22   4  -2    1.39    6.88
  22  -4   3    5.70    6.01
  22  -4   3   -0.63    4.00
  22   4  -3    5.36    9.77
  22   4   3    7.94    6.46
 -22  -4   3    1.40    5.28
 -22  -4   3    2.82    3.99
  22  -4   4    2.45    5.98
  22   4  -4    2.84    4.57
  22   4  -4   -0.39    4.74
 -22  -4  -4    2.54    4.25
  22   4   4   -0.90    5.20
 -22  -4   4    4.68    5.80
 -22   4  -4    2.73    3.81
  22  -4   5    6.63    6.48
  22   4  -5    0.48    4.89
  22   4  -5    1.90    4.58
 -22  -4  -5    2.64    4.00
  22   4   5    5.68    4.45
 -22  -4   5   -0.36    3.85
 -22  -4   5   -0.72    4.62
 -22   4  -5   -0.35    4.41
  22   4  -6   -2.26    5.18
  22   4  -6   -1.17    4.44
 -22  -4   6   -0.89    4.74
 -22   4  -6   -0.39    8.22
  22   4  -7    4.88    3.07
 -22  -4   7    4.37    3.41
  22   5   0    3.15    7.12
 -22  -5   0    3.22    8.77
  22  -5   1    3.17    6.15
  22   5   1   31.38   10.88
  22  -5   2   18.66    8.11
  22  -5   2   30.91   11.45
  22   5  -2   40.92   15.78
  22   5   2    4.41    6.84
 -22  -5   2   30.32   11.89
  22  -5   3    6.00    6.47
  22   5  -3    0.04   10.39
  22   5  -3   22.85    9.28
  22   5   3    5.27    6.39
 -22  -5   3    8.95    6.58
  22   5  -4   82.19   36.03
  22   5  -4   13.04    6.55
  22   5   4    3.25    5.75
 -22  -5   4   92.09   39.89
 -22  -5   4   19.78    9.15
  22   5  -5    2.32    5.30
  22   5  -5    4.23    4.71
 -22  -5  -5    5.48    5.54
  22   5   5    5.87    4.90
 -22  -5   5    0.94    4.62
 -22   5  -5    3.69    4.80
  22   5  -6    8.61    7.82
  22   5  -6    5.80    5.74
 -22  -5  -6    3.02    5.10
 -22  -5   6   19.09    7.93
 -22   5  -6   16.08    8.61
  22   5  -7    3.46    3.23
  22   5  -7   -0.50    5.22
 -22  -5   7    6.96    4.35
 -22  -5   7   -0.11    4.77
  22   5  -8   19.08    8.54
  22   6   0    1.12    6.25
  22  -6   0    3.67    9.05
  22  -6   1    0.93    6.01
  22   6   1    3.44    6.60
  22  -6  -1    1.89    7.90
  22  -6   2    8.92    6.85
  22  -6   2    9.56    4.69
  22   6  -2   10.68    9.46
  22   6   2   22.12    9.09
  22  -6   3   -0.83    5.49
  22   6  -3    4.46   11.36
  22   6   3    2.80    5.96
  22   6   3   -2.34    7.17
 -22  -6   3    5.73    5.48
  22  -6   4   -1.47    5.67
  22   6  -4    0.90    4.08
 -22  -6  -4    1.64    4.66
  22   6   4    1.68    6.00
  22   6   4    1.63    5.70
 -22  -6   4    2.63    5.58
 -22  -6   4    0.98    4.67
  22   6  -5   -0.15    6.45
  22   6  -5    1.60    4.38
 -22  -6  -5   18.79    8.76
  22   6   5    2.98    4.49
 -22  -6   5    3.02    5.06
 -22  -6   5   13.77    7.40
 -22   6  -5   -0.38    5.35
  22   6   6    1.60    4.72
 -22  -6   6   12.08    6.17
 -22  -6   6    1.53    5.16
  22   6  -7    1.12    4.46
 -22  -6   7    1.26    4.86
  22  -7   0   17.94   11.11
  22  -7   1   12.05    8.03
  22   7  -1    8.79    6.92
  22   7   1   21.14    8.83
  22  -7  -1   -1.34    8.82
  22  -7   2   44.95   17.06
  22   7  -2   12.14   11.50
  22   7   2   28.64   10.16
 -22   7  -2   59.58   21.90
  22   7  -3   -3.00   13.43
 -22  -7  -3   14.68   10.14
  22   7   3    1.96    5.75
  22   7   3    0.52    6.91
 -22  -7  -4    8.10    5.74
  22   7   4    0.82    5.83
 -22  -7   4  127.64   42.86
  22   7  -5    2.21    5.05
 -22  -7   5   20.38    9.18
  22   7  -6   34.37   13.24
 -22  -7   6   41.76   16.16
  22   7  -7    2.69    4.38
  22  -8   1  135.70   49.53
  22   8  -1   89.30   24.96
  22   8   1  111.23   29.41
  22  -8   2   43.94   14.09
  22   8  -2   13.48   12.71
  22   8   2   54.56   15.85
 -22   8  -2   42.66   16.39
 -22  -8  -3   42.44   18.88
  22   8   3    7.92    7.90
 -22  -8  -4    5.45    5.24
 -22  -8  -5   10.93    7.25
  22   8   5   16.51    8.28
 -22  -8   5   11.88    6.23
  22   8  -7   99.06   33.50
  22   9   0    4.29    8.01
  22  -9   0    2.42   11.45
  22  -9   1    2.22    7.96
  22   9  -1   -1.01    8.41
 -22   9  -1    1.38    4.13
  22  -9   2   -2.33    5.39
 -22   9  -2    5.88    4.58
 -22  -9  -3    2.20   10.37
  22   9   3   -0.12    7.59
 -22  -9  -4    7.60    6.76
 -22  10  -1    7.75    5.63
  22  10   3   19.78   11.01
 -22  11  -1    7.32    5.90
 -22  11  -2    5.59    5.01
  23   0   0    2.06    6.71
 -23   0   0    1.73    2.50
  23   0   1    5.45    6.69
  23   0   1    7.27    4.73
  23   0  -1    6.68    9.53
  23   0  -1    3.24    3.25
  23   0   2    0.10    5.89
  23   0   2   -0.35    3.36
  23   0  -2    1.07   10.45
  23   0  -2    8.29    6.46
 -23   0  -2   -1.31    3.70
 -23   0  -3  421.16  152.86
 -23   0  -3  180.05   59.48
  23   1   0    3.29    7.56
 -23  -1   0    2.07    4.31
  23  -1   0    0.66    6.59
  23  -1   1    4.48    6.27
  23   1  -1    2.47    5.12
  23   1  -1    3.17    9.77
  23   1  -1    4.32    4.05
  23   1   1    3.69    6.60
  23   1   1    0.38    3.46
 -23  -1   1    0.06    2.40
  23  -1  -1    1.54    9.05
  23   1  -2    4.26    4.44
  23   1  -2    2.39   10.20
 -23  -1  -2    4.91    4.66
  23   1   2    8.16    6.68
  23   1   2    6.01    4.14
 -23  -1   2   16.63    9.25
  23  -1  -2   -3.13   11.58
  23  -1   3   -1.41    3.10
  23  -1   3   13.75    7.35
  23  -1   3    1.77    2.66
 -23  -1  -3    1.80    3.72
  23   1   3   -2.21    4.47
 -23   1  -3    0.02    4.10
  23  -1   4    5.89    3.38
  23   1  -4   20.52   11.24
  23   1   4    5.75    4.10
 -23   1  -4   12.64    5.53
 -23   1  -4    1.75    2.79
  23  -1   5    1.47    2.27
 -23   1  -5    2.50    2.81
 -23   1  -6   12.89    4.98
  23   2   0   -0.92    7.61
 -23  -2   0    1.91    4.44
  23  -2   0    3.10    6.51
  23  -2   1    7.57    7.36
  23   2  -1    6.49   10.80
  23   2  -1   11.24    6.00
 -23  -2  -1   34.42   13.02
  23   2   1    5.10    4.26
  23   2   1    2.04    6.98
 -23  -2   1   -0.08    3.96
  23  -2  -1   -2.10    9.24
  23   2  -2    3.82   10.04
  23   2  -2    1.73    4.58
 -23  -2  -2    3.75    4.35
  23   2   2   13.67    7.91
 -23  -2   2    0.80    2.48
  23  -2  -2    4.13   12.44
 -23   2  -2    0.89    1.87
  23  -2   3    9.54    4.29
  23  -2   3    2.89    5.68
  23   2  -3    8.45    5.52
  23   2  -3    2.62    5.08
 -23  -2   3    6.98    5.54
 -23   2  -3    9.96    4.80
  23   2  -4   -1.30    5.93
 -23  -2  -4    8.77    5.23
 -23  -2   4    3.37    5.83
 -23  -2  -5    7.78    5.01
  23  -2   6   -0.80    1.98
 -23   2  -6    0.19    1.99
 -23   2  -7   11.68    4.58
  23   3   0   -0.57    7.28
  23  -3   0    1.24    7.48
  23   3  -1   -2.39   11.08
  23   3  -1    5.21    4.46
 -23  -3  -1    8.96    5.32
  23   3   1   17.11    8.91
 -23  -3   1    2.76    4.97
  23  -3  -1    3.60    9.80
  23  -3   2   45.23   19.78
  23  -3   2   12.83    7.24
  23   3  -2   20.77    8.49
  23   3   2   17.00    8.04
 -23  -3   2   40.93   14.99
 -23  -3   2   17.34    8.12
  23  -3  -2   11.44   12.49
  23  -3   3    8.15    6.58
  23   3  -3   11.87    6.62
  23   3  -3    4.08   13.12
  23   3  -3    5.00    4.95
 -23  -3  -3   39.63   16.24
  23   3   3    4.96    6.05
 -23  -3   3    5.96    4.10
 -23  -3   3    1.10    4.37
 -23   3  -3   10.10    5.21
  23   3  -4   -0.12    4.69
  23   3  -4    2.18    3.98
 -23  -3  -4    5.27    4.64
  23   3   4    2.58    4.27
 -23  -3   4    3.09    4.21
 -23  -3   4   -0.10    4.45
  23   3  -5   -0.58    5.14
  23   3  -5    6.93    5.91
 -23  -3  -5   24.78    9.95
  23   3   5    9.05    5.27
 -23  -3   5    3.47    6.47
  23  -3   7    0.86    1.65
  23   4   0    5.33    8.17
  23   4  -1    4.31   11.97
  23   4   1    3.44    8.74
  23  -4  -1   -0.66    9.28
  23  -4   2   10.15    6.86
  23   4  -2    0.17    4.00
  23   4   2    6.21    6.84
 -23  -4   2   -0.82    4.62
  23  -4  -2   53.98   19.30
  23  -4   3    3.23    6.94
  23   4  -3    3.34    4.71
 -23  -4  -3   10.37    8.35
  23   4   3   -0.30    6.33
 -23  -4   3    7.53    4.86
 -23  -4   3   10.21    6.06
  23   4  -4   -1.38    4.85
  23   4  -4    3.35    4.79
 -23   4  -4    1.10    4.01
  23   4  -5    4.40    4.86
 -23  -4   5    0.03    4.71
  23   4  -6    1.10    4.50
  23   5   0   10.07    9.19
  23  -5   1    9.84    7.66
  23   5   1    9.84    9.04
  23  -5   2   33.27   11.82
  23   5  -2   12.05   12.06
  23   5   2   38.63   12.98
 -23  -5   2   21.15    9.02
  23  -5  -2    5.96   11.77
  23   5  -3    3.58    4.23
 -23  -5  -3   70.10   27.08
  23   5   3   32.96   13.97
  23   5  -4    4.00    4.89
 -23  -5  -4    3.92    4.97
  23   5   4   19.32    9.53
 -23  -5   4    7.35    6.17
  23   5  -5   32.75   12.27
 -23  -5  -5   51.16   19.47
  23   5   5   81.16   30.11
 -23  -5   5   40.83   15.16
  23   5  -6   68.08   23.41
  23   6   0    3.12    7.85
  23  -6   0    0.33   10.28
  23  -6   1    3.47    8.09
  23  -6   2   15.90    6.53
 -23  -6  -3    7.78    9.18
  23   6   3    2.09    6.96
 -23  -6   3    1.32    4.64
  23   6  -4    1.68    4.51
 -23  -6  -4   -1.67    4.43
  23   6   4   -0.62    5.69
 -23  -6   4    5.46    6.03
  23   6  -5   -0.75    4.66
  23   6  -6    3.04    5.23
  23  -7   2    2.50    3.91
 -23   7  -2    3.38    3.48
 -23  -7  -3    6.09    9.53
  23   7   3   -0.37    6.70
 -23  -7  -4    2.66    4.88
  23   7  -5   -0.04    3.95
 -23   8  -2   19.32    8.00
  23   8   3   33.55   15.07
 -24   0   0   13.45    6.50
  24   0   1   50.57   17.35
  24   0  -1   32.20   14.36
  24   0   2    4.99    3.59
 -24   0  -2    0.34    3.36
  24   0   3  168.07   61.24
  24   0   3  327.16  107.29
  24   0   4  135.59   44.66
 -24   0  -4   88.76   29.52
 -24   0  -5    6.30    3.78
 -24  -1   0    4.70    4.37
  24   1  -1    0.56    4.61
 -24  -1  -1    9.51    5.21
  24   1   1    0.43    3.36
 -24  -1   1    1.66    3.14
  24   1  -2    1.41    4.18
 -24  -1  -2    7.27    4.68
  24   1   2    2.51    3.25
  24  -1   3    0.20    2.77
 -24  -1  -3    2.91    4.24
  24  -1   4   14.39    5.66
 -24  -1  -4   13.21    6.31
 -24   1  -4    1.46    2.83
  24  -1   5    9.81    4.10
 -24   1  -5   24.53    8.70
 -24   1  -6    2.41    2.76
  24   2   0    4.93    4.12
 -24  -2   0    4.28    4.23
  24   2  -1   24.39    9.43
 -24  -2  -1    2.80    4.07
  24   2   1   13.43    5.87
 -24  -2   1    3.98    4.21
 -24  -2  -2    7.41    4.76
 -24  -2   2   10.51    5.50
  24   2  -3    5.14    5.24
  24   2   4    5.91    4.41
  24   3   0   16.13    6.87
  24   3  -1    1.44    4.03
 -24  -3  -1    2.43    3.92
 -24  -3   1    1.34    4.46
  24   3  -2   12.45    6.00
  24   3  -3   10.14    5.96
  24   3   3   19.87    9.34
 -24  -3   3   -1.35    4.71
  24   3  -4   67.56   23.17
  24   3  -5    2.61    5.20
 -24  -4   0    2.18    3.74
  24   4  -1    3.66    3.87
 -24  -4   1    2.97    4.85
  24   4  -2    1.39    3.99
 -24  -4   2   -0.26    4.62
  24   4  -3    6.41    4.90
  24   4   3    3.10    6.13
 -24  -4   3    8.83    5.86
  24   4  -4    4.85    4.95
  24   4  -5    0.69    4.38
 -24  -5   2    5.51    5.96
  24   5  -3   42.69   15.17
  24   5   3    1.75    6.68
  24   5  -5   42.52   15.36
  24   6  -4    0.57    4.33
  25   0   1  178.67   58.90
  25   0   2    0.98    2.92
 -25   0  -2    0.15    3.17
  25   0   3    7.47    3.99
  25   0   4   15.60    6.14
 -25  -1   0   -0.27    3.71
  25   1  -1    6.09    5.41
 -25  -1  -1    8.24    4.63
  25   1   1    9.53    5.04
 -25  -1  -2    2.18    3.48
  25   1   2   -0.82    3.04
  25  -1   3    0.06    2.71
  25   1   3    8.67    4.44
 -25   1  -4    2.15    3.06
  25   2   0    5.75    4.10
 -25  -2   0    5.08    4.24
  25   2  -1    4.86    4.53
 -25  -2  -1    7.99    5.01
  25   2   1    4.73    3.94
 -25  -2   1    2.16    4.35
 -25  -2  -2    4.48    4.24
  25   2  -3    0.57    4.72
  25   3   0    6.07    4.42
 -25  -3  -1   16.10    6.99
  25   3  -2    1.65    3.82
  25   3  -3    6.14    5.07
  25   4  -1   -0.58    3.77
  25   4  -2    1.21    4.25
  25   4  -3    2.58    4.49
  25   5  -2   15.44    7.49
   0   0   0    0.00    0.00

_computing_structure_solution     'SHELXT 2014/5 (Sheldrick, 2014)'
;
_shelx_hkl_checksum              36430
loop_
_space_group_symop_operation_xyz
'x, y, z'
'-x+1/2, -y, z+1/2'
'-x, y+1/2, -z'
'x+1/2, -y+1/2, -z+1/2'
'-x, -y, -z'
'x-1/2, y, -z-1/2'
'x, -y-1/2, z'
'-x-1/2, y-1/2, z-1/2'
loop_
_atom_site_label
_atom_site_type_symbol
_atom_site_fract_x
_atom_site_fract_y
_atom_site_fract_z
_atom_site_U_iso_or_equiv
_atom_site_adp_type
_atom_site_occupancy
_atom_site_site_symmetry_order
_atom_site_calc_flag
_atom_site_refinement_flags_posn
_atom_site_refinement_flags_adp
_atom_site_refinement_flags_occupancy
Si1 Si 0.42848(18) 0.5279(2) 0.6877(4) 0.0181(11) Uani 1 1 d . . .
Si2 Si 0.43056(19) 0.3697(2) 0.6841(4) 0.0221(12) Uani 1 1 d . . .
Si3 Si 0.3802(2) 0.32665(19) 0.4725(4) 0.0237(13) Uani 1 1 d . . .
Si4 Si 0.19319(19) 0.5289(2) 0.6911(5) 0.0272(14) Uani 1 1 d . . .
Si5 Si 0.2249(2) 0.32729(19) 0.4718(4) 0.0230(12) Uani 1 1 d . . .
Si6 Si 0.3141(2) 0.3276(2) 0.8217(5) 0.0263(13) Uani 1 1 d . . .
Si7 Si 0.57741(19) 0.3278(2) 0.6734(4) 0.0236(13) Uani 1 1 d . . .
Si8 Si 0.2804(2) 0.43769(19) 0.9713(4) 0.0242(13) Uani 1 1 d . . .
Si9 Si 0.1225(2) 0.43570(19) 0.9752(4) 0.0219(12) Uani 1 1 d . . .
Si10 Si 0.1932(2) 0.3711(2) 0.6876(5) 0.0248(13) Uani 1 1 d . . .
Si11 Si 0.5776(2) 0.55674(19) 0.6622(5) 0.0240(13) Uani 1 1 d . . .
Si12 Si 0.3146(2) 0.5592(2) 0.8298(5) 0.0256(14) Uani 1 1 d . . .
O1 O 0.3020(3) 0.3456(4) 0.4716(10) 0.055(3) Uani 1 1 d . . .
O2 O 0.2024(4) 0.4407(5) 0.9733(11) 0.066(4) Uani 1 1 d . . .
O3 O 0.4213(5) 0.4481(3) 0.6750(10) 0.052(3) Uani 1 1 d . . .
O4 O 0.3108(6) 0.2500 0.8500(11) 0.040(3) Uani 1 2 d S T P
O5 O 0.2146(6) 0.2500 0.4474(13) 0.051(4) Uani 1 2 d S T P
O6 O 0.5037(3) 0.5491(4) 0.7062(8) 0.039(2) Uani 1 1 d . . .
O7 O 0.3857(3) 0.5541(4) 0.7779(8) 0.042(2) Uani 1 1 d . . .
O8 O 0.5764(7) 0.2500 0.6390(13) 0.057(4) Uani 1 2 d S T P
O9 O 0.1921(4) 0.3428(5) 0.5777(9) 0.052(3) Uani 1 1 d . . .
O10 O 0.6298(4) 0.5542(5) 0.7480(8) 0.054(3) Uani 1 1 d . . .
O11 O 0.2591(4) 0.5531(5) 0.7500(9) 0.053(3) Uani 1 1 d . . .
O12 O 0.5045(4) 0.3498(5) 0.7099(8) 0.047(2) Uani 1 1 d . . .
O13 O 0.3919(6) 0.2500 0.4399(11) 0.043(3) Uani 1 2 d S T P
O14 O 0.2592(4) 0.3468(5) 0.7445(9) 0.062(3) Uani 1 1 d . . .
O15 O 0.3845(3) 0.3429(4) 0.7740(8) 0.048(3) Uani 1 1 d . . .
O16 O 0.0988(5) 0.4368(4) 1.0860(7) 0.044(2) Uani 1 1 d . . .
O17 O 0.3097(5) 0.5009(4) 0.9126(10) 0.059(3) Uani 1 1 d . . .
O18 O 0.5812(4) 0.6261(4) 0.6045(8) 0.046(2) Uani 1 1 d . . .
O19 O 0.1932(6) 0.4492(4) 0.6851(15) 0.085(5) Uani 1 1 d . . .
O20 O 0.1880(4) 0.3692(4) 0.3876(8) 0.040(2) Uani 1 1 d . . .
O21 O 0.6283(4) 0.3428(5) 0.7602(8) 0.054(3) Uani 1 1 d . . .
O22 O 0.4104(5) 0.3356(5) 0.5816(9) 0.058(3) Uani 1 1 d . . .
O23 O 0.1937(4) 0.5622(4) 0.5865(9) 0.045(2) Uani 1 1 d . . .
O24 O 0.5903(5) 0.4976(4) 0.5858(9) 0.058(3) Uani 1 1 d . . .
O25 O 0.5962(4) 0.3670(4) 0.5729(8) 0.045(2) Uani 1 1 d . . .
O26 O 0.3035(5) 0.3693(4) 0.9212(10) 0.062(3) Uani 1 1 d . . .
loop_
_atom_site_aniso_label
_atom_site_aniso_U_11
_atom_site_aniso_U_22
_atom_site_aniso_U_33
_atom_site_aniso_U_23
_atom_site_aniso_U_13
_atom_site_aniso_U_12
Si1 0.018(2) 0.017(2) 0.019(3) 0.001(2) 0.0068(19) 0.0009(15)
Si2 0.021(2) 0.019(2) 0.027(3) 0.003(2) 0.001(2) -0.0007(15)
Si3 0.026(2) 0.015(2) 0.030(3) 0.002(2) -0.007(2) -0.0039(16)
Si4 0.025(2) 0.016(2) 0.040(4) 0.003(2) 0.010(2) -0.0037(16)
Si5 0.024(2) 0.016(2) 0.029(3) 0.000(2) -0.003(2) 0.0022(16)
Si6 0.023(2) 0.021(2) 0.034(4) 0.007(2) 0.005(2) 0.0022(16)
Si7 0.019(2) 0.017(2) 0.035(4) 0.001(2) 0.002(2) 0.0000(15)
Si8 0.022(2) 0.017(2) 0.033(4) -0.003(2) 0.005(2) -0.0013(16)
Si9 0.023(2) 0.018(2) 0.024(3) -0.003(2) 0.002(2) 0.0028(16)
Si10 0.030(2) 0.017(2) 0.027(3) 0.002(2) 0.005(2) 0.0005(16)
Si11 0.017(2) 0.021(2) 0.035(4) 0.005(2) 0.002(2) -0.0003(15)
Si12 0.021(2) 0.024(2) 0.032(4) -0.007(2) 0.012(2) -0.0038(16)
O1 0.023(4) 0.039(4) 0.102(10) 0.006(5) 0.003(4) 0.003(3)
O2 0.021(4) 0.086(7) 0.090(11) -0.010(6) 0.001(4) 0.002(4)
O3 0.066(5) 0.023(4) 0.068(9) 0.006(4) 0.025(6) -0.002(3)
O4 0.067(7) 0.027(5) 0.028(8) 0.000 0.018(6) 0.000
O5 0.049(6) 0.013(4) 0.091(13) 0.000 -0.027(7) 0.000
O6 0.021(3) 0.052(5) 0.045(6) -0.006(4) 0.003(3) -0.006(3)
O7 0.023(3) 0.060(5) 0.044(7) -0.017(4) 0.012(4) -0.001(3)
O8 0.098(10) 0.016(5) 0.056(11) 0.000 0.020(8) 0.000
O9 0.044(5) 0.061(6) 0.050(8) -0.003(5) 0.006(4) -0.002(4)
O10 0.033(4) 0.100(7) 0.029(6) -0.014(5) -0.020(4) 0.008(4)
O11 0.042(4) 0.077(6) 0.040(7) -0.013(5) -0.002(5) -0.008(4)
O12 0.031(4) 0.073(6) 0.037(6) -0.004(4) 0.005(4) 0.015(4)
O13 0.080(8) 0.024(5) 0.025(8) 0.000 -0.004(6) 0.000
O14 0.040(4) 0.083(7) 0.062(8) 0.021(6) -0.013(5) 0.022(4)
O15 0.028(4) 0.048(4) 0.067(8) 0.004(5) 0.016(4) -0.014(3)
O16 0.071(5) 0.032(4) 0.028(6) -0.001(4) 0.025(5) 0.005(3)
O17 0.082(6) 0.032(4) 0.062(9) -0.002(5) 0.020(6) -0.007(4)
O18 0.061(5) 0.027(4) 0.050(6) 0.005(4) 0.024(5) 0.006(3)
O19 0.146(12) 0.020(4) 0.089(13) 0.017(6) -0.006(9) 0.007(5)
O20 0.055(5) 0.028(4) 0.036(6) -0.002(4) -0.020(4) 0.011(3)
O21 0.035(4) 0.078(6) 0.047(7) -0.002(5) -0.015(4) -0.009(4)
O22 0.070(6) 0.060(6) 0.045(7) -0.025(5) -0.031(5) 0.008(4)
O23 0.053(5) 0.047(5) 0.035(7) 0.006(4) 0.002(4) 0.007(3)
O24 0.086(6) 0.031(4) 0.057(8) -0.005(5) 0.010(6) 0.008(4)
O25 0.058(5) 0.028(4) 0.050(7) 0.012(4) 0.012(5) -0.005(3)
O26 0.096(7) 0.029(4) 0.062(9) -0.024(5) 0.011(6) 0.011(4)
loop_
_atom_type_symbol
_atom_type_description
_atom_type_scat_dispersion_real
_atom_type_scat_dispersion_imag
_atom_type_scat_source
Si Si 0.0000 0.0000 'International Tables Vol C Tables 4.3.2.2 and 4.3.2.3'
O O 0.0000 0.0000 'International Tables Vol C Tables 4.3.2.2 and 4.3.2.3'
loop_
_geom_angle_atom_site_label_1
_geom_angle_atom_site_label_2
_geom_angle_atom_site_label_3
_geom_angle
_geom_angle_site_symmetry_1
_geom_angle_site_symmetry_3
O7 Si1 O6 108.3(5) . .
O7 Si1 O3 111.0(5) . .
O6 Si1 O3 111.4(5) . .
O7 Si1 O16 108.5(5) . 2_564
O6 Si1 O16 109.7(5) . 2_564
O3 Si1 O16 107.9(6) . 2_564
O3 Si2 O12 112.2(5) . .
O3 Si2 O22 109.0(6) . .
O12 Si2 O22 108.9(6) . .
O3 Si2 O15 108.4(5) . .
O12 Si2 O15 107.3(6) . .
O22 Si2 O15 111.1(6) . .
O22 Si3 O18 110.0(6) . 5_666
O22 Si3 O13 107.5(7) . .
O18 Si3 O13 108.0(6) 5_666 .
O22 Si3 O1 110.7(7) . .
O18 Si3 O1 109.4(5) 5_666 .
O13 Si3 O1 111.2(6) . .
O23 Si4 O19 112.4(8) . .
O23 Si4 O10 109.4(5) . 6_557
O19 Si4 O10 109.9(7) . 6_557
O23 Si4 O11 108.0(6) . .
O19 Si4 O11 108.8(7) . .
O10 Si4 O11 108.2(7) 6_557 .
O5 Si5 O20 107.4(6) . .
O5 Si5 O9 108.5(8) . .
O20 Si5 O9 109.7(5) . .
O5 Si5 O1 110.4(6) . .
O20 Si5 O1 109.6(6) . .
O9 Si5 O1 111.2(6) . .
O14 Si6 O15 108.7(6) . .
O14 Si6 O26 109.6(6) . .
O15 Si6 O26 111.1(6) . .
O14 Si6 O4 111.4(7) . .
O15 Si6 O4 108.7(5) . .
O26 Si6 O4 107.4(7) . .
O21 Si7 O25 112.0(5) . .
O21 Si7 O12 108.5(6) . .
O25 Si7 O12 109.8(5) . .
O21 Si7 O8 113.6(7) . .
O25 Si7 O8 103.2(7) . .
O12 Si7 O8 109.6(6) . .
O2 Si8 O26 109.4(6) . .
O2 Si8 O17 110.4(6) . .
O26 Si8 O17 110.9(7) . .
O2 Si8 O23 107.7(7) . 2_565
O26 Si8 O23 108.0(6) . 2_565
O17 Si8 O23 110.4(6) . 2_565
O16 Si9 O25 107.0(6) . 6_557
O16 Si9 O2 108.7(7) . .
O25 Si9 O2 112.2(6) 6_557 .
O16 Si9 O24 110.5(6) . 6_557
O25 Si9 O24 108.1(6) 6_557 6_557
O2 Si9 O24 110.3(6) . 6_557
O19 Si10 O9 109.6(8) . .
O19 Si10 O21 111.3(7) . 6_557
O9 Si10 O21 106.0(6) . 6_557
O19 Si10 O14 108.1(7) . .
O9 Si10 O14 110.4(6) . .
O21 Si10 O14 111.5(7) 6_557 .
O10 Si11 O24 110.2(6) . .
O10 Si11 O18 111.0(6) . .
O24 Si11 O18 108.8(7) . .
O10 Si11 O6 110.5(6) . .
O24 Si11 O6 108.6(5) . .
O18 Si11 O6 107.7(5) . .
O11 Si12 O7 109.9(6) . .
O11 Si12 O17 112.1(6) . .
O7 Si12 O17 108.2(5) . .
O11 Si12 O20 112.0(6) . 2_565
O7 Si12 O20 107.0(4) . 2_565
O17 Si12 O20 107.4(7) . 2_565
Si5 O1 Si3 153.4(6) . .
Si8 O2 Si9 174.3(7) . .
Si2 O3 Si1 164.0(9) . .
Si6 O4 Si6 151.9(11) 7_565 .
Si5 O5 Si5 151.6(11) 7_565 .
Si1 O6 Si11 148.1(8) . .
Si1 O7 Si12 148.0(6) . .
Si7 O8 Si7 146.7(13) . 7_565
Si10 O9 Si5 153.4(6) . .
Si11 O10 Si4 157.9(7) . 6_657
Si12 O11 Si4 162.0(8) . .
Si2 O12 Si7 149.6(8) . .
Si3 O13 Si3 143.8(11) . 7_565
Si6 O14 Si10 166.9(9) . .
Si6 O15 Si2 151.7(7) . .
Si9 O16 Si1 155.0(6) . 2_565
Si8 O17 Si12 158.5(8) . .
Si11 O18 Si3 148.2(6) . 5_666
Si10 O19 Si4 175.9(14) . .
Si5 O20 Si12 144.6(6) . 2_564
Si7 O21 Si10 158.0(8) . 6_657
Si2 O22 Si3 160.2(7) . .
Si4 O23 Si8 149.2(6) . 2_564
Si11 O24 Si9 164.0(8) . 6_657
Si9 O25 Si7 146.3(7) 6_657 .
Si8 O26 Si6 147.6(9) . .
loop_
_geom_bond_atom_site_label_1
_geom_bond_atom_site_label_2
_geom_bond_distance
_geom_bond_site_symmetry_2
Si1 O7 1.592(9) .
Si1 O6 1.611(7) .
Si1 O3 1.618(8) .
Si1 O16 1.649(10) 2_564
Si2 O3 1.590(8) .
Si2 O12 1.598(8) .
Si2 O22 1.605(11) .
Si2 O15 1.631(10) .
Si3 O22 1.613(11) .
Si3 O18 1.615(10) 5_666
Si3 O13 1.619(6) .
Si3 O1 1.640(8) .
Si4 O23 1.570(12) .
Si4 O19 1.603(9) .
Si4 O10 1.617(9) 6_557
Si4 O11 1.637(10) .
Si5 O5 1.601(5) .
Si5 O20 1.607(10) .
Si5 O9 1.614(13) .
Si5 O1 1.614(8) .
Si6 O14 1.581(10) .
Si6 O15 1.603(8) .
Si6 O26 1.603(13) .
Si6 O4 1.607(6) .
Si7 O21 1.599(10) .
Si7 O25 1.621(11) .
Si7 O12 1.629(8) .
Si7 O8 1.630(7) .
Si8 O2 1.592(8) .
Si8 O26 1.604(9) .
Si8 O17 1.613(11) .
Si8 O23 1.650(13) 2_565
Si9 O16 1.579(11) .
Si9 O25 1.619(8) 6_557
Si9 O2 1.631(8) .
Si9 O24 1.632(10) 6_557
Si10 O19 1.568(9) .
Si10 O9 1.597(14) .
Si10 O21 1.605(9) 6_557
Si10 O14 1.625(9) .
Si11 O10 1.578(10) .
Si11 O24 1.597(11) .
Si11 O18 1.600(9) .
Si11 O6 1.628(8) .
Si12 O11 1.572(11) .
Si12 O7 1.615(8) .
Si12 O17 1.625(12) .
Si12 O20 1.638(9) 2_565
O4 Si6 1.607(6) 7_565
O5 Si5 1.601(5) 7_565
O8 Si7 1.630(7) 7_565
O10 Si4 1.617(9) 6_657
O13 Si3 1.619(6) 7_565
O16 Si1 1.648(10) 2_565
O18 Si3 1.615(10) 5_666
O20 Si12 1.638(9) 2_564
O21 Si10 1.605(9) 6_657
O23 Si8 1.650(13) 2_564
O24 Si9 1.632(10) 6_657
O25 Si9 1.619(8) 6_657
