#------------------------------------------------------------------------------
#$Date: 2019-07-12 07:21:08 +0300 (Fri, 12 Jul 2019) $
#$Revision: 216970 $
#$URL: file:///home/coder/svn-repositories/cod/cif/1/55/20/1552092.cif $
#------------------------------------------------------------------------------
#
# This file is available in the Crystallography Open Database (COD),
# http://www.crystallography.net/. The original data for this entry
# were provided by IUCr Journals, http://journals.iucr.org/.
#
# The file may be used within the scientific community so long as
# proper attribution is given to the journal article from which the
# data were obtained.
#
data_1552092
loop_
_publ_author_name
'Wang, Bin'
'Zou, Xiaodong'
'Smeets, Stef'
_publ_section_title
;
 Automated serial rotation electron diffraction combined with cluster
 analysis: an efficient multi-crystal workflow for structure determination
;
_journal_issue                   5
_journal_name_full               IUCrJ
_journal_page_first
;
;
_journal_paper_doi               10.1107/S2052252519007681
_journal_volume                  6
_journal_year                    2019
_chemical_formula_moiety         'O2880 Si1440'
_chemical_formula_sum            'O2880 Si1440'
_chemical_formula_weight         86520.24
_chemical_name_common            ZSM-25
_chemical_name_systematic        Si-MWF
_space_group_crystal_system      cubic
_space_group_IT_number           229
_space_group_name_Hall           '-I 4 2 3'
_space_group_name_H-M_alt        'I m -3 m'
_symmetry_space_group_name_Hall  '-I 4 2 3'
_symmetry_space_group_name_H-M   'I m -3 m'
_audit_creation_method           SHELXL-2014/7
_cell_angle_alpha                90
_cell_angle_beta                 90
_cell_angle_gamma                90
_cell_formula_units_Z            1
_cell_length_a                   45.070
_cell_length_b                   45.070
_cell_length_c                   45.070
_cell_measurement_reflns_used    1492
_cell_measurement_temperature    293(2)
_cell_measurement_theta_max      0.963
_cell_measurement_theta_min      0.072
_cell_volume                     91550.912
_computing_cell_refinement       'XDS-20180126 (Kabsch, 2018)'
_computing_data_collection       'Instamatic-1.0.0 (Smeets et al., 2018)'
_computing_data_reduction        'XDS-20180126 (Kabsch, 2018)'
_computing_structure_refinement  'SHELXL-2014/7 (Sheldrick, 2014)'
_computing_structure_solution    'FOCUS (Grosse-Kunstleve et al., 1997)'
_diffrn_ambient_temperature      293(2)
_diffrn_measured_fraction_theta_full 0.997
_diffrn_measured_fraction_theta_max 0.997
_diffrn_measurement_device_type  'JEOL JEM-2100 LaB6'
_diffrn_measurement_method       'Continuous rotation electron diffraction'
_diffrn_radiation_type           electron
_diffrn_radiation_wavelength     0.0251
_diffrn_reflns_av_R_equivalents  0.3321
_diffrn_reflns_av_unetI/netI     0.1757
_diffrn_reflns_Laue_measured_fraction_full 0.997
_diffrn_reflns_Laue_measured_fraction_max 0.997
_diffrn_reflns_limit_h_max       30
_diffrn_reflns_limit_h_min       -30
_diffrn_reflns_limit_k_max       27
_diffrn_reflns_limit_k_min       -27
_diffrn_reflns_limit_l_max       29
_diffrn_reflns_limit_l_min       -29
_diffrn_reflns_number            15974
_diffrn_reflns_point_group_measured_fraction_full 0.997
_diffrn_reflns_point_group_measured_fraction_max 0.997
_diffrn_reflns_theta_full        0.489
_diffrn_reflns_theta_max         0.489
_diffrn_reflns_theta_min         0.039
_diffrn_source                   'electron microscope'
_exptl_absorpt_coefficient_mu    0.000
_exptl_crystal_density_diffrn    1.569
_exptl_crystal_description       cubes
_exptl_crystal_F_000             14089
_refine_diff_density_max         0.253
_refine_diff_density_min         -0.250
_refine_diff_density_rms         0.068
_refine_ls_extinction_coef       2.8(17)
_refine_ls_extinction_expression Fc^*^=kFc[1+0.001xFc^2^\l^3^/sin(2\q)]^-1/4^
_refine_ls_extinction_method     'SHELXL-2014/7 (Sheldrick 2014'
_refine_ls_goodness_of_fit_ref   3.065
_refine_ls_hydrogen_treatment    undef
_refine_ls_matrix_type           full
_refine_ls_number_parameters     150
_refine_ls_number_reflns         1492
_refine_ls_number_restraints     165
_refine_ls_restrained_S_all      2.957
_refine_ls_R_factor_all          0.5268
_refine_ls_R_factor_gt           0.4863
_refine_ls_shift/su_max          0.001
_refine_ls_shift/su_mean         0.000
_refine_ls_structure_factor_coef Fsqd
_refine_ls_weighting_details
'w=1/[\s^2^(Fo^2^)+(0.2000P)^2^] where P=(Fo^2^+2Fc^2^)/3'
_refine_ls_weighting_scheme      calc
_refine_ls_wR_factor_gt          0.8264
_refine_ls_wR_factor_ref         0.8448
_reflns_Friedel_coverage         0.000
_reflns_number_gt                695
_reflns_number_total             1492
_reflns_threshold_expression     'I > 2\s(I)'
_cod_data_source_file            fc5033.cif
_cod_data_source_block           zsm25_mixed_phase
_cod_original_cell_volume        91550.9
_cod_database_code               1552092
_shelx_shelxl_version_number     2014/7
_shelx_space_group_comment
;
The symmetry employed for this shelxl refinement is uniquely defined
by the following loop, which should always be used as a source of
symmetry information in preference to the above space-group names.
They are only intended as comments.
;
_shelx_res_file
;

    zsm25_32_UCScale.res created by SHELXL-2014/7


TITL Fw0000
CELL 0.0251 45.07 45.07 45.07 90 90 90
ZERR 96 0.00000 0.00000 0.00000 0.00000 0.00000 0.00000
LATT 2
SYMM z,x,y
SYMM y,z,x
SYMM x,-y,-z
SYMM z,-x,-y
SYMM y,-z,-x
SYMM -x,y,-z
SYMM -z,x,-y
SYMM -y,z,-x
SYMM -x,-y,z
SYMM -z,-x,y
SYMM -y,-z,x
SYMM -x,-z,-y
SYMM -y,-x,-z
SYMM -z,-y,-x
SYMM -x,z,y
SYMM -y,x,z
SYMM -z,y,x
SYMM x,-z,y
SYMM y,-x,z
SYMM z,-y,x
SYMM x,z,-y
SYMM y,x,-z
SYMM z,y,-x
SFAC SI  2.1293 57.7748  2.5333 16.4756         =
         0.8349  2.8796  0.3216  0.3860  0.0000 =
         0.0000  0.0000  0.0000  1.1100 28.0860
SFAC O   0.4548 23.7803  0.9173  7.6220         =
         0.4719  2.1440  0.1384  0.2959  0.0000 =
         0.0000  0.0000  0.0000  0.7300 15.9990

UNIT 1440 2880
LIST 6

EQIV $1   -x, y, z
EQIV $2   y, x, z
EQIV $3   x, y, -z+1
EQIV $4   -z+1/2, -y+1/2, -x+1/2
EQIV $5   x, z, y

DFIX 21 0.02 Si1 O1 Si1 O3 Si1 O2 Si1 O4
DFIX 21 0.02 Si2 O5 Si2 O7 Si2 O6 Si2 O8
DFIX 21 0.02 Si3 O9 Si3 O11 Si3 O10 Si3 O6
DFIX 21 0.02 Si4 O12 Si4 O14 Si4 O2 Si4 O13
DFIX 21 0.02 Si5 O15 Si5 O11_$4 Si5 O17 Si5 O16
DFIX 21 0.02 Si6 O18 Si6 O20 Si6 O19 Si6 O21
DFIX 21 0.02 Si7 O22 Si7 O24 Si7 O14 Si7 O23
DFIX 21 0.02 Si8 O18 Si8 O1 Si8 O25 Si8 O23
DFIX 21 0.02 Si9 O26 Si9 O27 Si9 O4 Si9 O8
DFIX 21 0.02 Si10 O30 Si10 O25 Si10 O28 Si10 O29
DFIX 21 0.02 Si11 O31 Si11 O32 Si11 O15 Si11 O29
DFIX 21 0.02 Si12 O24 Si12 O33 Si12 O19 Si12 O34
DFIX 21 0.02 Si13 O35 Si13 O37 Si13 O36 Si13 O13
DFIX 21 0.02 Si14 O21 Si14 O21_$4 Si14 O30 Si14 O30_$4
DFIX 21 0.02 Si15 O28 Si15 O28_$4 Si15 O17_$4 Si15 O17
DFIX 21 0.02 Si16 O38 Si16 O40 Si16 O36 Si16 O39
DANG 31 0.04 O4 O1 O3 O4 O2 O1 O2 O4 O2 O3 O3 O1
DANG 31 0.04 O7 O5 O8 O6 O8 O5 O8 O7 O5 O6 O7 O6
DANG 31 0.04 O6 O10 O9 O10 O9 O6 O11 O10 O11 O6 O11 O9
DANG 31 0.04 O14 O2 O13 O2 O13 O14 O12 O2 O12 O14 O12 O13
DANG 31 0.04 O17 O16 O11_$4 O16 O11_$4 O17 O15 O16 O15 O17 O15 O11_$4
DANG 31 0.04 O19 O21 O19 O18 O19 O20 O21 O18 O21 O20 O18 O20
DANG 31 0.04 O23 O24 O23 O22 O23 O14 O24 O22 O24 O14 O22 O14
DANG 31 0.04 O18 O23 O18 O1 O18 O25 O23 O1 O23 O25 O1 O25
DANG 31 0.04 O27 O4 O27 O26 O27 O8 O4 O26 O4 O8 O26 O8
DANG 31 0.04 O28 O29 O28 O30 O28 O25 O29 O30 O29 O25 O30 O25
DANG 31 0.04 O31 O15 O31 O29 O31 O32 O15 O29 O15 O32 O29 O32
DANG 31 0.04 O19 O34 O19 O24 O19 O33 O34 O24 O34 O33 O24 O33
DANG 31 0.04 O13 O36 O13 O37 O13 O35 O36 O37 O36 O35 O37 O35
DANG 31 0.04 O21_$4 O21 O21_$4 O30_$4 O21_$4 O30 O21 O30_$4 O21 O30 O30_$4 O30
DANG 31 0.04 O17_$4 O17 O17_$4 O28 O17_$4 O28_$4 O17 O28 O17 O28_$4 O28 O28_$4
DANG 31 0.04 O40 O36 O40 O38 O40 O39 O36 O38 O36 O39 O38 O39

DFIX 3.16 0.04 Si2 Si2_$1 Si9 Si9_$1 Si16 Si16_$1 Si1 Si1_$1 Si3 Si3_$1

EADP SI1 > SI16
EADP O1 > LAST

L.S. 30
ACTA
WGHT    0.200000
EXTI    2.767389
FVAR       0.77690   1.63675   2.67231
SI1   1    0.034212    0.140051    0.310741    11.00000    0.22574
SI2   1    0.034842    0.083631    0.423987    11.00000    0.22574
SI3   1    0.034695    0.136615    0.465115    11.00000    0.22574
SI4   1    0.035593    0.138710    0.241808    11.00000    0.22574
SI5   1    0.035073    0.305871    0.423112    11.00000    0.22574
SI6   1    0.145617    0.193495    0.315895    11.00000    0.22574
SI7   1    0.078145    0.193660    0.244036    11.00000    0.22574
SI8   1    0.074914    0.195043    0.313701    11.00000    0.22574
SI9   1    0.033885    0.081594    0.353234    11.00000    0.22574
SI10  1    0.074075    0.249704    0.354934    11.00000    0.22574
SI11  1    0.035545    0.307028    0.357211    11.00000    0.22574
SI12  1    0.146859    0.195905    0.246180    11.00000    0.22574
SI13  1    0.034773    0.081993    0.202101    11.00000    0.22574
SI14  1    0.144853    0.250000    0.355147    10.50000    0.22574
SI15  1    0.074670    0.250000    0.425330    10.50000    0.22574
SI16  1    0.034000    0.081546    0.131651    11.00000    0.22574
O1    2    0.057139    0.164925    0.322829    11.00000    0.21303
O2    2    0.042575    0.130889    0.276650    11.00000    0.21303
O3    2    0.000000    0.153194    0.311298    10.50000    0.21303
O4    2    0.034567    0.111125    0.332395    11.00000    0.21303
O5    2    0.000000    0.077949    0.432255    10.50000    0.21303
O6    2    0.048168    0.110226    0.444321    11.00000    0.21303
O7    2    0.053001    0.053001    0.432072    10.50000    0.21303
O8    2    0.038601    0.090170    0.388313    11.00000    0.21303
O9    2    0.000000    0.142943    0.455518    10.50000    0.21303
O10   2    0.035626    0.127369    0.500000    10.50000    0.21303
O11   2    0.053975    0.166553    0.460238    11.00000    0.21303
O12   2    0.000000    0.143245    0.236225    10.50000    0.21303
O13   2    0.047677    0.110295    0.221644    11.00000    0.21303
O14   2    0.054508    0.168510    0.232958    11.00000    0.21303
O15   2    0.047435    0.315555    0.390469    11.00000    0.21303
O16   2    0.000000    0.297516    0.420726    10.50000    0.21303
O17   2    0.054795    0.278483    0.435680    11.00000    0.21303
O18   2    0.109969    0.189276    0.320850    11.00000    0.21303
O19   2    0.152298    0.202614    0.281303    11.00000    0.21303
O20   2    0.162638    0.162638    0.324387    10.50000    0.21303
O21   2    0.156802    0.220636    0.337410    11.00000    0.21303
O22   2    0.074737    0.223299    0.223299    10.50000    0.21303
O23   2    0.070451    0.203037    0.278544    11.00000    0.21303
O24   2    0.112873    0.182546    0.242095    11.00000    0.21303
O25   2    0.062381    0.221933    0.334698    11.00000    0.21303
O26   2    0.057308    0.057308    0.340976    10.50000    0.21303
O27   2    0.000000    0.067773    0.350092    10.50000    0.21303
O28   2    0.068928    0.242900    0.390188    11.00000    0.21303
O29   2    0.055444    0.279284    0.345055    11.00000    0.21303
O30   2    0.109414    0.255019    0.349133    11.00000    0.21303
O31   2    0.040989    0.335880    0.335880    10.50000    0.21303
O32   2    0.000000    0.299245    0.358096    10.50000    0.21303
O33   2    0.150826    0.226492    0.226492    10.50000    0.21303
O34   2    0.170933    0.170933    0.234577    10.50000    0.21303
O35   2    0.051375    0.051375    0.212000    10.50000    0.21303
O36   2    0.039445    0.088563    0.166842    11.00000    0.21303
O37   2    0.000000    0.077371    0.210394    10.50000    0.21303
O38   2    0.034928    0.112494    0.112494    10.50000    0.21303
O39   2    0.058280    0.058280    0.118633    10.50000    0.21303
O40   2    0.000000    0.067965    0.128443    10.50000    0.21303
HKLF 4

REM  Fw0000
REM R1 =  0.4863 for     695 Fo > 4sig(Fo)  and  0.5268 for all    1492 data
REM    150 parameters refined using    165 restraints

END

WGHT      0.2000      0.0000

REM Highest difference peak  0.253,  deepest hole -0.250,  1-sigma level  0.068
Q1    1   0.1167  0.1468  0.1468  10.50000  0.05    0.24
Q2    1   0.0786  0.2585  0.3498  11.00000  0.05    0.23
Q3    1   0.0314  0.1493  0.4546  11.00000  0.05    0.23
Q4    1   0.0000  0.0371  0.0371  10.25000  0.05    0.23
Q5    1   0.0163  0.0724  0.3521  11.00000  0.05    0.22
Q6    1   0.0386  0.3080  0.4181  11.00000  0.05    0.22
Q7    1   0.0321  0.1416  0.3159  11.00000  0.05    0.21
Q8    1   0.0000  0.0701  0.3576  10.50000  0.05    0.21
Q9    1   0.0294  0.0810  0.4315  11.00000  0.05    0.21
Q10   1   0.0000  0.0720  0.4285  10.50000  0.05    0.21
Q11   1   0.0389  0.1306  0.3111  11.00000  0.05    0.21
Q12   1   0.0245  0.0764  0.4311  11.00000  0.05    0.20
Q13   1   0.1455  0.2025  0.3045  11.00000  0.05    0.20
Q14   1   0.0338  0.3006  0.4272  11.00000  0.05    0.19
Q15   1   0.0802  0.1880  0.2443  11.00000  0.05    0.19
Q16   1   0.0704  0.1985  0.2500  11.00000  0.05    0.18
Q17   1   0.0321  0.3168  0.3889  11.00000  0.05    0.18
Q18   1   0.1445  0.1973  0.2990  11.00000  0.05    0.18
Q19   1   0.1084  0.1798  0.2472  11.00000  0.05    0.17
Q20   1   0.0381  0.1351  0.2494  11.00000  0.05    0.17
;
_shelx_res_checksum              56840
_shelx_hkl_file
;
   1   2  -1 8281.33 1842.13   1
   2   0  -2  47338.  23228.   1
  -3   1   0 7207.58 1597.40   1
  -1  -3   2 2973.21 741.263   1
  -2  -1   3  23217.  11421.   1
  -1  -2   3 5107.48 1196.12   1
   1  -3   2 3971.99 922.169   1
  -3   1   2  18664. 9183.10   1
   1  -2   3  13868. 6829.45   1
  -3   0   3  28332.  13923.   1
  -3   0   3 5810.82 1460.70   1
  -3   3  -2 2208.13 507.882   1
  -2   3  -3 5364.34 2692.09   1
  -2  -3   3 2082.46 654.613   1
   2  -3   3 3575.13 1827.80   1
  -4   0   0 1389.04 416.381   1
   4   0   0 1912.69 478.668   1
  -4  -1   1  390.36 341.748   1
  -4   1   1 2287.51 1324.00   1
   0  -4   2  321.24 278.139   1
   0   4  -2  637.64 297.762   1
  -4  -2   2 8465.43 1899.46   1
  -2  -4   2 5783.26 1319.59   1
  -2  -2   4  10233. 2323.89   1
   4   2  -2 8717.88 1954.58   1
  -1  -4   3  16779. 3697.49   1
  -3  -1   4  18399. 9078.37   1
  -3  -1   4  15753. 3526.62   1
   4  -1  -3  30493.  14982.   1
   4  -1  -3  14221. 3176.05   1
  -1   3  -4  15489. 3436.22   1
  -4  -1   3  18443. 4078.93   1
  -1  -3   4  12402. 2756.03   1
   1  -4   3  20185. 4442.73   1
   1   4  -3  18917. 4161.61   1
  -4   1   3  19028. 9365.00   1
   1  -3   4  15952. 3537.64   1
   1   3  -4  13394. 2971.00   1
  -3   4  -3  989.86 312.755   1
  -3  -4   3  630.91 401.058   1
   3  -4   3  985.12 309.888   1
   3   4  -3 1160.84 434.241   1
  -4   0   4 726049. 356079.   1
  -4   0   4 678756. 148605.   1
   4   0  -4 999999. 490464.   1
   4   0  -4 708741. 155220.   1
  -4  -4   2  716.90 400.396   1
   2  -4   4 1028.55 416.381   1
   4   4  -2  468.75 343.402   1
  -4  -4   4  515.49 472.494   1
   4   4  -4 1424.32 512.071   1
  -5   1   0 1692.20 456.068   1
   5  -1   0 1721.97 456.399   1
  -5   0   1 1551.10 486.054   1
   5   0  -1 1541.17 487.708   1
   5  -2  -1  866.61 716.017   1
   5  -2  -1 2452.87 700.804   1
  -2  -1   5 1691.10 1134.38   1
  -2  -1   5 2342.63 794.950   1
   5  -1  -2 2060.41 645.573   1
  -5  -1   2 1896.15 596.295   1
  -1  -2   5 1875.20 773.453   1
  -5   2   1 1530.15 550.545   1
  -5   2   1 2639.18 1439.75   1
   5  -2   1  866.83 269.320   1
  -5   1   2 2450.66 729.687   1
   5   1  -2 2200.42 636.203   1
   1   2  -5  219.16 591.775   1
  -3   0   5 4067.90 1081.47   1
   0  -5   3 5117.40 1172.97   1
   0   5  -3 4061.29 932.642   1
  -5   0   3 4296.10 1048.06   1
   0  -3   5 5391.90 2781.39   1
   5   0  -3 2865.17 732.884   1
  -2   5  -3  36611. 8026.67   1
  -2  -5   3  28696. 6303.60   1
   2  -5   3  37526. 8226.21   1
  -5   2   3  37394. 8216.29   1
  -1   5  -4 268989.  58913.   1
  -1  -5   4 231176.  50623.   1
  -4  -1   5 226987. 111344.   1
  -4  -1   5 259949.  56951.   1
  -1   4  -5 239665.  52508.   1
  -5  -1   4 147503.  32312.   1
   1  -5   4 266343.  58318.   1
   1   5  -4 203505.  44571.   1
  -5   1   4 238562.  52254.   1
   1  -4   5 216514. 106173.   1
   1  -4   5 248043.  54338.   1
   5   1  -4 243854. 119612.   1
   5   1  -4 189064.  41418.   1
  -3   5  -4  301.84 287.730   1
  -5  -4   3 -581.85 395.546   1
  -3  -5   4   80.70 394.884   1
  -4  -3   5 -298.42 417.043   1
  -4   5  -3  185.98 160.401   1
  -5  -3   4  402.05 439.312   1
  -4  -5   3 -349.13 382.317   1
   3  -5   4 1016.42 358.395   1
   5   4  -3 -456.07 362.694   1
   3   5  -4  312.31 335.795   1
   4   3  -5  245.73 411.200   1
   4   5  -3  460.81 349.575   1
  -5   0   5 737184. 361592.   1
  -2   5  -5  517.36 351.119   1
  -5  -2   5 -195.02 452.651   1
  -2  -5   5 1250.14 513.945   1
   2  -5   5  784.92 391.798   1
   5   2  -5  429.72 461.470   1
  -5   5  -4 -584.17 552.529   1
  -4  -5   5 1357.07 559.805   1
   5   4  -5  284.42 356.079   1
   4   5  -5  854.92 492.117   1
  -6   0   0 1970.01 507.772   1
   6   0   0 1111.23 346.488   1
   6  -1  -1  709.29 343.402   1
  -6  -1   1  -99.44 339.764   1
  -6   1   1  826.26 375.151   1
   6   1  -1 -185.76 298.754   1
   6  -2   0 5018.18 1132.18   1
  -6   0   2 5013.77 1180.68   1
   6   0  -2 4695.18 1097.34   1
   0   2  -6 2707.53 934.075   1
   6  -2  -2   49.70 670.488   1
  -2  -2   6  444.16 654.503   1
  -6   2   2 -589.57 745.231   1
   6  -3  -1 -346.60 601.477   1
  -6   3  -1 1492.67 388.601   1
  -1   6  -3  350.46 268.658   1
  -6  -3   1   82.10 285.635   1
  -1  -6   3  476.02 362.473   1
  -3  -1   6  239.22 874.324   1
  -3  -1   6  822.40 692.646   1
  -1  -3   6  221.59 834.306   1
   6  -3   1 1158.64 321.574   1
   1  -6   3  316.83 257.965   1
   1   6  -3  744.02 339.213   1
   3   1  -6  738.18 628.596   1
   3   1  -6  876.53 877.962   1
  -6   1   3 1578.66 1228.09   1
  -6   1   3  915.11 631.903   1
   1  -3   6  132.29 487.597   1
   6   1  -3 1229.19 505.015   1
   1   3  -6  216.62 842.905   1
  -6  -3   3  11311. 2516.81   1
  -3  -6   3 8474.25 1903.87   1
  -3  -3   6  12490. 2822.18   1
   3   6  -3 7213.09 1620.55   1
   3   3  -6  11090. 2492.56   1
   0  -6   4 3216.84 792.304   1
   0   6  -4 2487.04 626.942   1
  -6   0   4 2984.23 876.749   1
   0  -4   6 2269.87 1397.86   1
   0  -4   6 2038.36 804.100   1
   6   0  -4 2467.20 794.068   1
   0   4  -6 1461.80 1123.36   1
   0   4  -6 2959.98 923.602   1
  -6   4  -2  53809.  11785.   1
  -2  -6   4  63234.  13857.   1
  -4  -2   6  57601.  28277.   1
  -4  -2   6  66123.  14508.   1
   6  -2  -4  83398.  40922.   1
  -2   4  -6  52673.  11564.   1
  -2   4  -6  69243.  33976.   1
  -2  -4   6  51692.  11344.   1
   6  -4   2  61559.  13483.   1
   2  -6   4  64778.  14199.   1
   4   2  -6  83210.  40833.   1
   4   2  -6  75085.  16470.   1
  -6   2   4  59773.  29335.   1
   2  -4   6  57888.  28409.   1
   2  -4   6  56840.  12479.   1
  -4   6  -4 2193.80 530.922   1
  -6  -4   4 2356.96 685.481   1
  -4  -6   4 1382.43 485.613   1
  -4  -4   6 1472.82 556.388   1
   6   4  -4 3112.11 797.045   1
   4   6  -4  960.09 398.853   1
   4   4  -6 1675.67 556.829   1
  -1  -6   5  48694.  10683.   1
  -5  -1   6  36920. 8146.83   1
  -1   5  -6  35575. 7807.29   1
  -6  -1   5  28530.  14034.   1
  -6  -1   5  36843. 8097.22   1
  -5   1   6  27318. 6039.02   1
   1   6  -5  41892. 9197.43   1
   5   1  -6  44030.  21629.   1
   5   1  -6  42961. 9455.40   1
   1  -5   6  38629. 8480.86   1
  -3   6  -5  377.14 315.731   1
  -6  -5   3  800.90 416.271   1
  -3  -6   5  807.41 453.092   1
  -5  -3   6 1020.50 544.923   1
  -3   5  -6  785.91 835.078   1
  -5  -6   3  309.56 387.719   1
   3  -6   5 1340.53 441.847   1
   6   5  -3  520.34 337.008   1
   3   6  -5  562.89 394.113   1
   5   3  -6  235.25 430.272   1
   3  -5   6 -475.03 781.390   1
   3  -5   6  903.43 593.208   1
   5   6  -3  757.69 359.056   1
  -5   6  -5 3275.27 1721.97   1
  -5  -6   5 5730.34 1320.69   1
   5   6  -5 6169.10 1415.50   1
  -6   0   6  27230.  13416.   1
  -6   0   6  17771. 4000.66   1
  -2   6  -6  239.22 378.348   1
   2  -6   6  291.81 341.969   1
  -6   6  -4 1691.10 401.168   1
  -4   6  -6  650.97 740.160   1
  -4  -6   6 2309.56 695.071   1
   6  -6   4 1753.94 416.161   1
   4  -6   6  310.33 632.454   1
   4  -6   6 2162.93 706.537   1
   4   6  -6 2450.66 703.781   1
  -6   6  -6  887.22 443.832   1
  -6  -6   6 2813.36 779.847   1
   6   6  -6 3371.18 889.537   1
   7  -1   0  10809. 2393.34   1
  -7   0   1  13527. 2986.44   1
   7   0  -1  12799. 2826.59   1
   7  -2  -1  686.36 376.584   1
  -7  -2   1  343.84 319.479   1
  -1  -2   7  317.94 567.081   1
  -7   2   1  468.75 341.087   1
   7  -2   1  415.06 240.326   1
   7  -3   0 7746.66 1721.97   1
  -7   0   3 4771.24 1142.10   1
   0  -3   7 4274.06 1155.33   1
   7   0  -3 5455.84 1258.96   1
   0   3  -7 3366.77  999.12   1
   7  -3  -2  474.37 727.482   1
  -7   3  -2  593.54 203.836   1
  -7  -3   2 1094.48 432.256   1
  -3  -2   7  -79.50 841.031   1
  -3  -2   7  141.22 738.948   1
   7  -2  -3 1087.97 1080.36   1
  -7  -2   3 1294.23 525.520   1
  -2  -3   7  672.25 962.517   1
  -7   3   2 -112.56 713.702   1
   7   3  -2  919.08 407.783   1
   3   2  -7 1121.15 1059.53   1
   3   2  -7  857.24 709.844   1
   7   2  -3  599.38 424.650   1
   7  -4  -1 -386.84 649.432   1
  -7   4  -1  347.81 253.555   1
  -1   7  -4 1546.69 419.578   1
  -1  -7   4 1712.05 497.519   1
  -4  -1   7  -79.48 897.034   1
  -4  -1   7   69.76 688.347   1
   7  -1  -4  865.95 1007.39   1
   7  -1  -4  734.54 623.745   1
  -1   4  -7  331.61 790.871   1
  -7  -1   4  -72.31 447.910   1
  -1  -4   7 -161.50 842.023   1
  -1  -4   7  563.44 682.284   1
   7  -4   1  417.26 254.878   1
   1  -7   4 2136.48 558.262   1
   1   7  -4  847.42 340.094   1
   4   1  -7  300.41 627.163   1
   4   1  -7  352.22 897.034   1
  -7   1   4 1188.40 697.607   1
  -7   1   4 1027.89 1097.56   1
   1  -4   7  937.27 908.609   1
   7   1  -4  715.58 420.460   1
   1   4  -7  901.00 1168.56   1
  -3   7  -4  48705.  10674.   1
  -7  -4   3  74964.  16426.   1
  -3  -7   4  49873.  10938.   1
  -4  -3   7  70951.  15577.   1
  -7  -3   4  90563.  19843.   1
  -3  -4   7  51582.  25333.   1
  -3  -4   7  64403.  14122.   1
   3  -7   4  59343.  12997.   1
   7   4  -3  79021.  17319.   1
   3   7  -4  50072.  10976.   1
   4   3  -7  73663.  16161.   1
  -7   3   4  55815.  12248.   1
   3   4  -7  65450.  14353.   1
  -5   0   7 1215.96 1109.03   1
  -5   0   7  218.72 707.970   1
   0  -7   5 1305.26 420.571   1
   0   7  -5 1419.91 476.022   1
   5   0  -7  109.12 988.534   1
   5   0  -7  166.57 691.103   1
   0  -5   7  515.82 566.199   1
   0   5  -7  922.39 573.696   1
  -7   5  -2  25333.  12435.   1
  -2   7  -5  28001. 6143.75   1
  -7  -5   2  24870. 5471.28   1
  -2  -7   5  31518. 6927.56   1
  -5  -2   7  27748.  13659.   1
  -5  -2   7  30416. 6722.52   1
   7  -2  -5  41131.  20196.   1
   7  -2  -5  26866. 5939.80   1
  -2   5  -7  24782.  12193.   1
  -2   5  -7  27825. 6136.03   1
  -7  -2   5  24088. 5303.71   1
  -2  -5   7  17980. 8884.35   1
  -2  -5   7  24948. 5496.63   1
   2  -7   5  29104. 6388.48   1
   7   5  -2  20560. 4522.10   1
   5   2  -7  36920.  18146.   1
   5   2  -7  32201. 7099.54   1
  -7   2   5  26326.  12953.   1
  -7   2   5  28696. 6345.49   1
   2  -5   7  23724.  11664.   1
   2  -5   7  23900. 5287.17   1
   2   5  -7  24815. 5467.97   1
  -4   7  -5 1297.54 385.293   1
  -7  -5   4 1101.86 445.926   1
  -4  -7   5 2997.46 757.468   1
  -5  -4   7  630.14 566.971   1
  -5   7  -4 1831.11 438.871   1
  -7  -4   5  432.37 465.990   1
  -4  -5   7  516.15 440.414   1
   4  -7   5  732.77 319.259   1
   7   5  -4  940.91 426.413   1
   5   4  -7  313.64 461.470   1
   7   4  -5 1165.25 540.072   1
   4   5  -7  236.47 461.029   1
  -1  -7   6 2351.45 675.449   1
  -1   6  -7 1577.55 541.285   1
  -7  -1   6 3040.46 928.563   1
  -1  -6   7 1339.43 518.796   1
  -6   1   7  845.99 696.946   1
   1   7  -6 2144.19 650.314   1
  -7  -6   3  731.23 453.312   1
  -6  -3   7 -222.69 523.536   1
  -3   6  -7  -78.48 877.631   1
  -3   6  -7  869.91 589.571   1
  -7  -3   6  894.06 467.974   1
  -6  -7   3  123.91 334.362   1
   3  -7   6  749.20 373.167   1
   7   6  -3  846.54 368.647   1
   6   3  -7  866.50 1114.54   1
   6   3  -7 -163.60 460.147   1
   3  -6   7  522.32 557.821   1
   7   3  -6  377.25 458.935   1
   6   7  -3  661.34 354.095   1
  -5   7  -6  24044. 5280.56   1
  -7  -6   5  26050. 5733.65   1
  -5  -7   6  26811. 5897.91   1
  -6   7  -5  19546. 4286.18   1
  -7  -5   6  21684. 4791.09   1
  -6  -7   5  23625. 5198.98   1
  -5  -6   7  20769. 4581.63   1
   5   7  -6  24837. 5463.56   1
   6  -7   5  20306. 4453.75   1
   7   5  -6  26458. 5828.46   1
   6   7  -5  21784. 4793.29   1
  -7   0   7  13008. 6464.55   1
  -7   0   7 6613.38 1863.08   1
  -7  -2   7  -27.46 647.668   1
  -7   2   7  462.79 755.263   1
   7   2  -7  109.50 985.006   1
   7   2  -7  681.29 534.340   1
  -7   7  -4 3285.19 727.813   1
  -4   7  -7 4794.40 1129.97   1
  -7  -4   7 4124.13 1018.96   1
  -7  -7   4 6270.53 1425.42   1
  -4  -7   7 4260.83 1065.04   1
   7  -7   4 3856.24 852.276   1
   7   4  -7 3952.15 989.636   1
   7   7  -4 5111.89 1169.66   1
   4   7  -7 4827.47 1157.53   1
  -6   7  -7 5003.85 2542.16   1
  -7  -7   6 7640.83 1738.51   1
  -6  -7   7  10883. 2445.15   1
   7   6  -7 6224.22 1493.77   1
   7   7  -6 7779.73 1761.66   1
   6   7  -7  10190. 2298.53   1
  -8   0   0 360930.  79054.   1
   8   0   0 346709.  75945.   1
   8  -1  -1 2203.72 611.288   1
  -8  -1   1 1769.37 509.756   1
  -8   1   1 2042.77 577.334   1
   8  -1   1 1592.99 425.091   1
   8  -2   0  29247. 6417.15   1
   8  -2  -2 1936.94 1223.68   1
  -8  -2   2 2590.67 681.181   1
  -2  -2   8 1176.27 821.849   1
  -8   2   2  989.09 975.525   1
   8   2  -2 2534.45 650.424   1
   8  -3  -1   72.67 330.503   1
  -8   3  -1  537.10 275.934   1
  -8  -3   1  288.50 357.182   1
  -3  -1   8 -160.51 677.102   1
   8  -1  -3 -113.11 375.151   1
  -8  -1   3   93.28 399.294   1
  -1  -3   8 -127.88 815.345   1
  -1  -3   8  349.46 697.276   1
   8  -3   1  570.94 271.855   1
   8   3  -1  431.70 329.070   1
   3   1  -8 -208.47 598.500   1
  -8   1   3  -22.31 376.695   1
   8  -3  -3 9834.63 4900.23   1
   8  -3  -3 8391.57 1965.60   1
  -8  -3   3  10746. 2408.77   1
  -3  -3   8  11355. 5669.71   1
  -3  -3   8 7713.58 2115.53   1
  -8   3   3 9142.31 4566.20   1
   3   3  -8  12534. 6244.07   1
   0  -8   4 2204.83 584.058   1
   0   8  -4  806.97 336.677   1
  -8   0   4  924.48 463.014   1
   0  -4   8 1112.33 1044.10   1
   8   0  -4 1054.57 467.203   1
   8  -4  -2 2612.72 1436.44   1
  -8   4  -2 1629.37 391.798   1
  -2  -8   4 1351.56 462.683   1
  -4  -2   8 2160.73 1412.19   1
  -4  -2   8 1086.21 1171.87   1
  -2   4  -8  389.37 679.417   1
  -2  -4   8 1233.60 1069.12   1
  -2  -4   8  628.27 1086.43   1
   8  -4   2 1480.54 361.812   1
   2  -8   4 1136.59 355.749   1
   4   2  -8 2118.84 1475.03   1
   4   2  -8  817.00 791.533   1
   2   4  -8 2338.22 1619.44   1
   2   4  -8 1342.74 768.713   1
  -8  -4   4 436666.  95634.   1
  -4  -8   4 405578.  88832.   1
  -4  -4   8 528166. 115643.   1
   8   4  -4 412523.  90343.   1
   4   8  -4 428067.  93760.   1
   4   4  -8 464006. 101620.   1
  -8   5  -1  -44.86 541.175   1
   8  -1  -5   75.79 684.158   1
   8  -1  -5 -413.40 991.731   1
  -1   5  -8  196.23 644.140   1
  -1   5  -8  190.39 893.616   1
  -8  -1   5  399.29 437.327   1
  -1  -5   8  916.33 957.115   1
   8  -5   1 -458.60 502.480   1
   1  -8   5  613.93 346.268   1
  -8   1   5  359.83 1002.20   1
  -8   1   5  124.46 681.071   1
   1  -5   8 1147.61 938.043   1
   1  -5   8  466.10 688.347   1
  -8   5  -3  28916. 6335.57   1
  -3   8  -5  36821. 8070.77   1
  -8  -5   3  27604. 6066.58   1
  -5  -3   8  29798.  14662.   1
   3  -8   5  44074. 9660.45   1
   8   5  -3  27891. 6126.11   1
   3   8  -5  38838. 8524.96   1
   3  -5   8  22875. 5056.77   1
   3   5  -8  24639. 5438.20   1
  -5   8  -5 175614.  38463.   1
  -8  -5   5 206813.  45298.   1
  -5  -8   5 187410.  41065.   1
  -5  -5   8 177378.  38860.   1
   8   5  -5 201742.  44185.   1
   5   8  -5 185205.  40569.   1
  -6   0   8  743.36 998.125   1
  -6   0   8  537.87 1226.99   1
   0  -8   6 2082.46 572.924   1
   0   8  -6 2355.86 600.815   1
   6   0  -8 1607.32 1245.73   1
   6   0  -8 1002.20 789.769   1
  -8   0   6  -33.55 906.404   1
  -8   0   6 1331.72 825.707   1
   0  -6   8  961.41 530.261   1
   0   6  -8  815.34 489.141   1
  -2  -8   6 2926.91 735.530   1
  -6  -2   8 1742.92 1354.87   1
  -6  -2   8 2301.84 1233.60   1
   8  -2  -6 1931.43 1319.59   1
  -2   6  -8 2234.59 773.784   1
  -8  -2   6 2869.58 775.107   1
  -2  -6   8 1821.19 645.904   1
   2  -8   6 3193.69 792.084   1
   6   2  -8 2870.68 1788.11   1
   6   2  -8 2802.33 1032.41   1
  -8   2   6 1384.63 1104.62   1
  -8   2   6  764.52 1016.54   1
   2  -6   8 2554.29 895.600   1
   2   6  -8 1655.82 567.412   1
  -4   8  -6 9131.29 2030.65   1
  -6  -4   8 2793.51 1630.47   1
  -6  -4   8 5179.14 1279.90   1
  -4   6  -8 4048.06 2182.78   1
  -4   6  -8 3912.46 1045.97   1
  -6  -8   4 4254.21 1015.87   1
  -4  -6   8 6225.33 1445.26   1
   6   4  -8 4775.65 1177.38   1
   4  -6   8 2776.98 1031.42   1
   6   8  -4 5536.32 1283.21   1
   4   6  -8 5566.08 1317.38   1
  -6   8  -6  26502. 5811.92   1
  -6  -8   6  29060. 6386.28   1
   6  -8   6  24705. 5419.46   1
   8   6  -6  27759. 6110.68   1
   6   8  -6  30151. 6623.30   1
  -1  -8   7 2018.52 601.477   1
  -1   7  -8  857.24 403.152   1
  -1  -7   8 1445.26 502.039   1
   1  -7   8 1504.79 595.854   1
   8   1  -7  899.46 714.033   1
  -8  -7   3 1324.00 465.770   1
  -3  -8   7  568.18 438.430   1
  -7  -3   8  394.11 519.788   1
  -3   7  -8  951.27 954.249   1
  -8  -3   7  142.98 476.022   1
   3  -8   7 -373.39 332.488   1
   8   7  -3 1570.94 492.779   1
   3   8  -7  765.41 475.581   1
   3  -7   8 -664.20 685.811   1
  -5   8  -7  11961. 2639.18   1
  -8  -7   5  12832. 2844.23   1
  -7  -5   8  12380. 2763.75   1
  -7   8  -5  11664. 2559.80   1
  -8  -5   7  12689. 2818.87   1
  -7  -8   5  11366. 2524.53   1
  -5  -7   8  10239. 2286.40   1
   8   7  -5  13703. 3036.05   1
   5   8  -7  12303. 2736.19   1
   7   5  -8  11873. 2665.64   1
   7  -8   5  13262. 2910.37   1
   5  -7   8  10352. 5117.40   1
   7   8  -5  11388. 2530.04   1
  -7   8  -7  26822.  13174.   1
  -8  -7   7  34902. 7676.10   1
  -7  -8   7  35299. 7754.37   1
   7  -8   7  30250.  14850.   1
   7   8  -7  32940. 7237.34   1
  -8   0   8  86738.  42564.   1
  -8   0   8  93948.  20648.   1
   0  -8   8  52750.  11575.   1
   8   0  -8  91346.  44835.   1
   8   0  -8  76177.  16735.   1
  -2   8  -8  230.96 342.740   1
  -8  -2   8  161.28 897.034   1
  -2  -8   8 1240.21 440.304   1
  -8   2   8  796.71 951.603   1
   8   2  -8  615.92 641.604   1
  -8  -8   4    6.33 342.961   1
   4  -8   8 1102.41 500.496   1
   8   8  -4  726.49 369.198   1
   4   8  -8 1820.08 636.423   1
  -8   8  -6 3117.62 1623.85   1
  -6   8  -8 2656.82 1541.17   1
  -8  -6   8 3663.32 909.160   1
  -8  -8   6 4202.40 1014.55   1
  -6  -8   8 6351.00 1481.64   1
   8  -8   6 4027.12 2009.70   1
   8   6  -8 4356.74 1056.11   1
   8   8  -6 4329.18 1029.76   1
   6   8  -8 7531.69 1732.99   1
  -8  -8   8 197993.  43369.   1
   8   8  -8 201080.  44052.   1
  -9  -1   0 185095.  40547.   1
  -9   1   0 218278.  47812.   1
   9  -1   0 225664.  49410.   1
   9   1   0 195017.  42707.   1
  -9   0   1 220813.  48363.   1
   9  -2  -1  805.20 338.000   1
  -9   2  -1  998.01 340.646   1
  -9  -2   1 1066.36 375.041   1
   9  -1  -2  460.92 319.590   1
  -9  -1   2 2244.51 615.477   1
   9  -2   1  774.56 281.446   1
   9   2  -1  551.87 361.481   1
  -9   1   2  734.98 370.631   1
   9   1  -2 1613.93 475.691   1
  -9   3   0 4317.05 984.565   1
   9  -3   0 5327.96 1196.12   1
   9   0  -3 4060.19 951.493   1
   9  -3  -2 3365.67 920.625   1
  -9   3  -2 2812.26 641.384   1
  -9  -3   2 3124.24 769.154   1
  -3  -2   9 1321.79 1209.35   1
   9  -2  -3 3080.14 794.068   1
  -9  -2   3 3883.80 959.871   1
  -2  -3   9 4098.77 2216.95   1
  -2  -3   9 1697.72 1276.59   1
   9  -3   2 2762.65 638.187   1
   9   3  -2 2272.07 602.138   1
   3   2  -9 2771.47 1007.50   1
  -9   2   3 3917.98 976.738   1
   9   2  -3 3378.90 820.195   1
   2   3  -9 4648.88 2483.74   1
   2   3  -9 2788.00 942.343   1
   9  -4  -1  568.62 787.344   1
   9  -4  -1  405.25 519.016   1
  -9   4  -1  603.02 227.759   1
  -4  -1   9  197.33 904.089   1
  -1   4  -9  622.64 621.651   1
  -9   4   1  -17.62 753.169   1
  -9   4   1  426.74 463.565   1
   9  -4   1   98.83 218.057   1
   4   1  -9   37.98 622.974   1
  -9   1   4  -44.69 437.989   1
   1  -4   9 -510.64 636.423   1
   9   1  -4  125.01 340.756   1
   9  -4  -3  25697. 5687.35   1
  -9  -4   3  27538. 6050.04   1
  -4  -3   9  29710.  14607.   1
  -4  -3   9  31209. 6972.76   1
   9  -3  -4  42498.  20869.   1
  -9  -3   4  30129. 6627.71   1
  -3  -4   9  32885.  16172.   1
  -3  -4   9  27637. 6211.00   1
  -9   4   3  31121.  15290.   1
   4   3  -9  30482.  15004.   1
   4   3  -9  41506. 9175.38   1
  -9   3   4  38342.  18829.   1
  -9   3   4  41263. 9104.83   1
   3   4  -9  40558.  19932.   1
   3   4  -9  37173. 8206.36   1
  -9   5   0 1911.58 1146.51   1
  -5   0   9  128.98 1106.82   1
   9  -5   0 3697.49 1920.40   1
   0  -9   5 1209.35 373.167   1
   5   0  -9  973.54 748.098   1
   0  -5   9 2366.88 1460.70   1
   0  -5   9  362.36 1090.40   1
   9   0  -5 2498.07 1516.92   1
   9   0  -5 1641.49 525.520   1
   0   5  -9 1616.14 1276.59   1
   9  -5  -2  529.16 475.030   1
  -9   5  -2  381.88 180.796   1
  -9  -5   2  643.37 354.757   1
  -2  -9   5 1385.73 417.815   1
  -5  -2   9 -496.09 959.320   1
  -5  -2   9 -238.45 1283.21   1
  -2  -5   9  813.36 1003.75   1
  -2  -5   9   87.45 950.280   1
   9  -5   2  508.87 220.593   1
   9   5  -2  530.92 347.591   1
   5   2  -9 -136.81 846.102   1
   5   2  -9 -1268.9 1298.64   1
  -9   2   5 1358.17 1170.76   1
  -9   2   5 1587.47 1030.09   1
   2   5  -9 -1649.2 1375.81   1
   2   5  -9 -251.68 747.436   1
  -4   9  -5  82582.  18091.   1
  -9  -5   4  99394.  21773.   1
  -4  -9   5  66961.  14673.   1
  -5  -4   9  98115.  21541.   1
   9  -4  -5  71966.  15787.   1
  -9  -4   5 107838.  23636.   1
  -5  -9   4  63587.  13935.   1
  -4  -5   9  82626.  18124.   1
   9   5  -4  84500.  18521.   1
   4   9  -5  51108.  11212.   1
   5   4  -9  96263.  21122.   1
  -9   4   5  65682.  14431.   1
   9   4  -5 105159.  23040.   1
   4   5  -9  69562.  34153.   1
   4   5  -9  84037.  18432.   1
  -9   6  -1  658.25 614.044   1
  -1   9  -6  139.90 252.342   1
  -1  -9   6  968.69 397.971   1
   9  -1  -6 1011.35 1094.81   1
   9  -1  -6 1141.00 746.995   1
  -1   6  -9 1659.13 799.801   1
  -9  -1   6  175.72 878.623   1
  -9  -1   6  446.15 507.992   1
  -1  -6   9  122.70 834.417   1
   9  -6   1 1167.46 752.397   1
   1  -9   6  804.54 336.677   1
  -9   1   6 1067.69 1025.35   1
  -9   1   6  289.82 901.774   1
  -9   6  -3 2686.58 602.469   1
  -3   9  -6 3776.87 882.482   1
  -3  -9   6 3806.63 914.231   1
  -6  -3   9 3870.57 2194.90   1
  -6  -3   9 2516.81 1161.94   1
   9  -3  -6 2340.42 1449.67   1
  -3   6  -9 1652.52 1153.12   1
  -3   6  -9 2394.44 821.188   1
  -3  -6   9 2071.43 698.930   1
   9  -6   3 3615.92 805.864   1
   3  -9   6 3892.62 909.050   1
   9   6  -3 2427.51 653.731   1
   3   9  -6 2817.77 703.560   1
   6   3  -9 3198.10 1981.04   1
   6   3  -9 3445.04 1172.97   1
   3  -6   9 1798.04 985.116   1
   3  -6   9 3213.53 1691.10   1
   9   3  -6 1938.04 631.573   1
   3   6  -9  201.63 1186.20   1
   3   6  -9 1938.04 621.320   1
  -5   9  -6  70532.  15456.   1
  -5  -9   6  80829.  17716.   1
  -6  -5   9  81457.  17859.   1
  -6   9  -5  61515.  13471.   1
  -9  -5   6  99945.  21905.   1
  -6  -9   5  51780.  11355.   1
   9   6  -5  64028.  14034.   1
   5   9  -6  63962.  14023.   1
   6   5  -9  77610.  17021.   1
   6  -9   5  59486.  13031.   1
   9   5  -6  92889.  20362.   1
  -7   0   9 5307.02 2784.70   1
  -7   0   9 4621.32 1616.14   1
   0   9  -7 8935.06 1996.47   1
   7   0  -9 5846.10 3068.02   1
   7   0  -9 4174.84 1218.17   1
  -9   0   7 4684.15 2474.92   1
  -9   0   7 5700.58 1650.31   1
  -2   9  -7 2134.27 572.042   1
  -2  -9   7 1674.57 529.599   1
  -7  -2   9 2154.12 1429.83   1
  -7  -2   9 1448.57 1147.61   1
  -2   7  -9 1472.82 1185.09   1
  -9  -2   7 1412.19 597.839   1
  -2  -7   9 1143.20 559.475   1
   2  -9   7 1977.73 557.601   1
   2   9  -7 1421.01 475.912   1
   7   2  -9 1772.68 1456.29   1
   7   2  -9 1242.42 886.120   1
  -9   2   7  667.07 1041.67   1
  -9   2   7  160.62 819.754   1
   2  -7   9  474.59 714.805   1
   2  -7   9 1461.80 939.587   1
   9   2  -7  360.27 433.910   1
   2   7  -9 1853.16 645.573   1
  -9  -7   4  757.80 381.435   1
  -4  -9   7 1847.64 556.057   1
  -7  -9   4 1021.06 426.744   1
  -4  -7   9  133.83 407.672   1
   9   7  -4  615.26 329.401   1
   4   9  -7 2000.88 555.065   1
   7   4  -9  654.61 558.152   1
   4  -7   9  -68.53 788.556   1
   9   4  -7  948.52 524.418   1
   7   9  -4  409.88 347.260   1
   4   7  -9  355.75 428.288   1
  -6   9  -7  22258. 4885.90   1
  -9  -7   6  24099. 5304.81   1
  -6  -9   7  21508. 4743.68   1
  -7  -6   9  15368. 3408.66   1
  -7   9  -6  23305. 5110.79   1
  -9  -6   7  26182. 5768.93   1
  -7  -9   6  19877. 4380.99   1
   6  -9   7  18344. 4034.83   1
   7   6  -9  17749. 3927.90   1
   7  -9   6  27847. 6104.06   1
   9   6  -7  27439. 6042.33   1
   8  -1  -9  176.17 1100.21   1
   8  -1  -9 -177.38 829.345   1
  -1  -9   8 3424.10 890.640   1
  -1   8  -9  857.46 400.837   1
  -1  -8   9 1395.66 503.693   1
  -8   1   9 1898.36 1300.85   1
  -8   1   9 -867.82 1182.89   1
   1  -9   8 1598.50 509.535   1
  -9   1   8 -344.83 917.538   1
  -9   1   8  696.39 1159.74   1
   1  -8   9  389.37 753.169   1
   1  -8   9 1024.69 537.647   1
  -3  -9   8  678.31 464.116   1
  -8  -3   9  100.82 660.125   1
  -3   8  -9 -133.06 418.586   1
  -9  -3   8 -121.93 488.700   1
   3  -9   8 -462.68 342.189   1
   3   9  -8  446.92 425.201   1
   8   3  -9 1022.71 579.208   1
  -9   3   8   92.88 1082.46   1
   9   3  -8  520.12 434.682   1
  -9   8  -5 2562.01 569.066   1
  -9  -8   5 1907.17 548.892   1
  -5  -9   8 2523.42 764.964   1
  -5   8  -9 1314.08 1102.41   1
  -8  -9   5 1536.76 474.479   1
  -5  -8   9 2987.54 761.878   1
   9  -8   5 3714.03 1836.62   1
   9   8  -5 2589.57 678.976   1
   8   5  -9 2198.21 669.385   1
   8  -9   5 1734.10 397.199   1
   5  -8   9 3949.95 2037.26   1
   9   5  -8 3340.31 896.703   1
   8   9  -5 1465.11 440.194   1
   5   8  -9 2693.20 719.214   1
  -7   9  -8  16966. 8371.73   1
  -9  -8   7  23162. 5099.76   1
  -7  -9   8  20196. 4454.85   1
  -8  -7   9  20373. 4491.23   1
  -8   9  -7  24992. 5487.81   1
  -9  -7   8  25091. 5529.70   1
  -7  -8   9  15831. 3501.26   1
   7  -9   8  23592.  11597.   1
   9   8  -7  23316. 5130.63   1
   7   9  -8  22754. 5009.37   1
   8   7  -9  21684. 4777.86   1
   8  -9   7  22048.  10830.   1
   9   7  -8  27075. 5961.85   1
   8   9  -7  21563. 4743.68   1
  -9   0   9 512953. 251571.   1
  -9   0   9 377025.  82593.   1
   0  -9   9 327527.  71734.   1
   9   0  -9 579318. 284202.   1
   9   0  -9 508874. 111454.   1
  -2   9  -9 3016.20 734.648   1
  -9  -2   9 4179.25 2294.12   1
  -2  -9   9 3900.34 930.437   1
  -9   2   9 2845.33 1177.38   1
   9   2  -9 5127.32 1315.18   1
  -4   9  -9  924.26 356.631   1
  -9  -4   9  368.32 495.755   1
  -9  -9   4  448.90 344.835   1
   9   4  -9  324.22 428.508   1
   9   9  -4  609.30 344.063   1
  -9   9  -6 1662.44 390.365   1
  -6   9  -9 4098.77 2239.00   1
  -9  -9   6 1516.92 516.922   1
  -6  -9   9 2261.05 662.881   1
   6  -9   9 3163.93 1729.69   1
   9   6  -9 1620.55 627.163   1
   6   9  -9 3290.70 857.567   1
  -8   9  -9 125344.  61504.   1
  -8   9  -9  89428.  19645.   1
  -9  -8   9  90255.  19788.   1
  -9  -9   8  98126.  21497.   1
  -8  -9   9 113659.  24915.   1
   9   8  -9 101808.  22313.   1
   9   9  -8  90563.  19843.   1
   8   9  -9 108863.  23856.   1
 -10   0   0 585822. 128321.   1
  10   0   0 545915. 119612.   1
 -10   1   1 2543.27 658.692   1
  10  -1   1 2159.63 538.088   1
  10  -2   0  43964. 9637.30   1
 -10   0   2  56642.  12413.   1
  10   0  -2  53258.  11675.   1
  10  -2  -2 2840.92 709.954   1
 -10  -2   2 2847.53 710.064   1
 -10   2   2 1591.88 461.911   1
  10   2  -2 3139.67 760.004   1
   2   2 -10 2056.00 1104.62   1
  10  -3  -1    5.17 331.275   1
 -10   3  -1  416.93 230.074   1
 -10  -3   1   96.92 292.580   1
  10  -1  -3  -86.73 369.970   1
 -10  -1   3  159.08 398.412   1
  -1  -3  10 -774.67 990.188   1
  10  -3   1  312.42 246.279   1
  10   3  -1  132.29 288.943   1
 -10   1   3  200.20 339.543   1
  10   1  -3  201.08 379.010   1
   1   3 -10  263.92 705.103   1
  -3  -3  10  13879. 6883.47   1
  -3  -3  10 6452.42 1889.54   1
 -10   3   3  11906. 5933.19   1
 -10   3   3  11520. 2619.33   1
   3   3 -10  15059. 7467.75   1
   3   3 -10 8921.83 2137.58   1
  10  -4   0 1660.23 482.416   1
 -10   0   4 1839.93 556.057   1
   0  -4  10  184.65 884.907   1
  10   0  -4 1890.64 568.184   1
  10  -4  -2  -18.52 743.357   1
  10  -4  -2  343.73 577.113   1
 -10   4  -2 1037.92 282.438   1
  -4  -2  10 2183.88 1404.47   1
  -4  -2  10  332.82 1211.55   1
  10  -2  -4  842.35 550.104   1
 -10  -2   4 2097.89 623.525   1
  -2  -4  10 1751.73 1320.69   1
  10  -4   2 1201.63 325.873   1
   4   2 -10  815.46 859.000   1
   4   2 -10 1949.07 1492.67   1
  10   2  -4 1598.50 555.065   1
   2   4 -10  638.52 758.570   1
 -10  -4   4 163929.  35906.   1
  -4  -4  10 192151.  42123.   1
 -10   4   4 181016.  39654.   1
   4   4 -10 244515. 119943.   1
   4   4 -10 237901.  52122.   1
  10  -5  -1  211.33 725.498   1
 -10   5  -1  187.30 205.269   1
  -1  10  -5  -54.58 227.207   1
  -1 -10   5  -69.28 295.336   1
  10  -1  -5  233.16 454.745   1
  -1   5 -10   -8.77 993.495   1
  -1   5 -10 -128.43 715.246   1
 -10  -1   5   -9.76 383.199   1
  -1  -5  10 -264.80 919.743   1
  -1  -5  10  432.59 1143.20   1
 -10   5   1  940.69 862.308   1
 -10   5   1  366.66 662.991   1
  10  -5   1  -60.43 241.759   1
   1 -10   5  314.08 272.186   1
 -10   1   5  496.86 615.257   1
   1  -5  10 -379.56 1110.13   1
  10   1  -5  -41.30 376.805   1
   1   5 -10  815.12 808.289   1
  10  -5  -3 2738.39 1534.56   1
 -10   5  -3 2698.71 609.194   1
 -10  -5   3 4508.87 1050.49   1
  -3 -10   5 2866.27 731.120   1
  -5  -3  10 2032.85 1418.81   1
  -5  -3  10 2162.93 1276.59   1
  10  -3  -5 2994.15 1728.58   1
  -3  -5  10 -551.21 975.305   1
  -3  -5  10 3897.03 1390.14   1
  10  -5   3 2987.54 671.700   1
  10   5  -3 2040.57 557.490   1
   3  10  -5 3495.75 843.126   1
   5   3 -10 2831.00 1890.64   1
   5   3 -10 2435.23 1167.46   1
 -10   3   5 4669.82 2469.41   1
 -10   3   5 3411.97 1261.16   1
   3   5 -10 1047.51 1298.64   1
   3   5 -10 3841.91 1122.26   1
 -10  -5   5 342079.  74909.   1
  -5 -10   5 331275.  72561.   1
  -5  -5  10 436004.  95502.   1
  10   5  -5 328960.  72054.   1
   5  10  -5 346378.  75868.   1
   5   5 -10 371734.  81424.   1
 -10   6   0 2193.80 1268.88   1
 -10   6   0 1413.29 677.764   1
  -6   0  10  912.91 969.462   1
   0 -10   6 3473.70 819.754   1
   0  10  -6 3011.79 720.868   1
   6   0 -10  -63.31 724.285   1
 -10   0   6 1434.24 599.382   1
   0  -6  10 1363.69 1112.33   1
  10   0  -6 1730.79 570.940   1
 -10   6  -2  484.29 215.852   1
  -2  10  -6  132.18 237.901   1
  -2 -10   6   26.73 319.479   1
  -6  -2  10 1476.13 1263.37   1
  -6  -2  10   55.19 1228.09   1
  -2   6 -10  299.53 896.372   1
 -10  -2   6  477.68 436.445   1
  10  -6   2  508.87 225.113   1
   2 -10   6   68.00 298.754   1
   2  10  -6  170.32 328.629   1
   6   2 -10  718.55 1294.23   1
   6   2 -10  554.95 907.948   1
 -10   2   6 -354.21 1010.91   1
 -10   2   6  529.60 928.232   1
   2  -6  10 -125.12 689.780   1
   2  -6  10  187.74 863.961   1
   2   6 -10 2049.39 863.630   1
  -4  10  -6  17143. 3769.15   1
  -4 -10   6  16900. 3731.67   1
  10  -4  -6  10101. 2315.07   1
   4 -10   6  20439. 4492.33   1
  10   6  -4  16150. 3563.00   1
   4  10  -6  16073. 3546.46   1
   6   4 -10  11818. 2771.47   1
  -6  10  -6  12678. 2789.11   1
 -10  -6   6  15313. 3393.23   1
  -6 -10   6  12116. 2689.89   1
  -6  -6  10  13317. 2984.23   1
   6 -10   6  13207. 2904.86   1
  10   6  -6  14497. 3210.23   1
   6  10  -6  11586. 2573.03   1
   6   6 -10  13141. 2940.14   1
   7  -1 -10 -483.85 738.286   1
  10  -1  -7  -83.71 1103.52   1
  10  -1  -7  547.13 763.090   1
  -1   7 -10 -490.24 1038.69   1
  -1   7 -10 1459.59 702.017   1
  -1  -7  10  611.73 661.668   1
  -7   1  10  923.93 1129.97   1
   1 -10   7 2100.10 548.010   1
 -10   1   7   73.40 890.088   1
 -10   1   7 1221.47 1012.68   1
   1  -7  10 1669.05 1104.62   1
   1  -7  10  743.47 998.015   1
   1   7 -10  739.50 515.599   1
  -3  10  -7  542.17 277.147   1
 -10  -7   3  529.05 375.482   1
  -3 -10   7  649.43 348.363   1
  -7  -3  10 -317.38 1032.41   1
  -7  -3  10 -709.29 1125.56   1
  10  -3  -7  364.02 956.454   1
  -3   7 -10  252.89 713.041   1
 -10  -3   7  848.97 439.863   1
  -3  -7  10 -271.74 506.890   1
  -3  -7  10  725.39 888.104   1
   3 -10   7 -155.11 260.831   1
  10   7  -3  -24.69 302.282   1
   3  10  -7  543.16 319.590   1
   7   3 -10  123.36 762.760   1
   7   3 -10 -2920.3 1970.01   1
 -10   3   7  491.79 873.221   1
 -10   3   7 -696.84 1088.52   1
   3  -7  10  363.13 831.330   1
  10   3  -7  285.52 400.948   1
   3   7 -10  197.22 451.989   1
  -5  10  -7 6923.15 1544.48   1
 -10  -7   5 6205.48 1415.50   1
  -5 -10   7 6700.47 1524.64   1
  -7  -5  10 6271.63 1491.57   1
  -7 -10   5 5595.85 1289.82   1
  10   7  -5 4312.64 1010.25   1
   5  10  -7 7367.43 1660.23   1
   7   5 -10 6242.97 3387.72   1
   7   5 -10 7951.71 1824.49   1
   5  -7  10 2081.36 1040.68   1
   7  10  -5 4853.93 1133.28   1
   5   7 -10 4758.02 1166.35   1
  -7  10  -7 6494.32 1443.06   1
 -10  -7   7 6834.96 1576.45   1
  -7 -10   7 7712.48 1735.20   1
  -7  -7  10 5464.66 1282.11   1
  10   7  -7 6327.85 1439.75   1
   7  10  -7 7575.78 1702.13   1
   7   7 -10 5184.65 1233.60   1
  -8   0  10 3734.98 2102.30   1
  -8   0  10  635.76 1245.73   1
   0 -10   8 3458.27 849.630   1
   8   0 -10 1854.26 1472.82   1
   8   0 -10 1784.81 951.493   1
 -10   0   8 4459.26 2413.18   1
 -10   0   8 3866.16 1457.39   1
  -2  10  -8 2481.53 634.329   1
  -2 -10   8 2584.06 707.970   1
  -8  -2  10 2899.35 1747.32   1
  -8  -2  10 2061.51 1307.46   1
  -2   8 -10 1437.55 654.944   1
  -2  -8  10 2272.07 660.015   1
   2 -10   8 3306.14 806.305   1
   2  10  -8 1975.52 550.986   1
   8   2 -10 3205.82 2133.17   1
   8   2 -10 2722.96 1054.90   1
 -10   2   8 1650.31 1222.58   1
 -10   2   8  771.25 1135.49   1
   2  -8  10 1366.99 1123.36   1
  10   2  -8 1631.57 1397.86   1
  10   2  -8 2171.75 647.227   1
  -4 -10   8  105.93 352.331   1
  -8  -4  10  900.89 1052.14   1
  -8  -4  10  731.56 682.945   1
  -4   8 -10 -755.70 1022.49   1
 -10  -4   8 -209.68 397.420   1
  -4  -8  10  722.41 421.894   1
  10   8  -4  678.31 329.070   1
   4  10  -8  693.97 347.591   1
   8   4 -10  448.68 519.678   1
   4  -8  10 -130.08 708.852   1
  10   4  -8  314.19 412.192   1
   4   8 -10  546.69 453.092   1
  -6  10  -8  718.00 296.659   1
 -10  -8   6  607.32 341.087   1
  -6 -10   8 1853.16 528.607   1
  -8  -6  10 1023.48 497.960   1
  -8  10  -6 1018.85 258.736   1
 -10  -6   8  381.88 337.890   1
  -8 -10   6 1057.66 382.096   1
  10   8  -6  977.18 363.796   1
   6  10  -8 1928.12 532.025   1
   8   6 -10  771.25 464.667   1
   8 -10   6  771.25 207.584   1
   8  10  -6  722.41 328.850   1
  -8  10  -8 3536.54 818.983   1
  -8 -10   8 3877.19 910.814   1
  -8  -8  10 5061.18 1187.30   1
   8   8 -10 4249.80 1016.87   1
   9  -1 -10 3612.61 2134.27   1
   9  -1 -10 3621.43 1341.64   1
  -9  -1  10 1652.52 1405.58   1
  10  -1  -9 -231.29 1427.62   1
  -1   9 -10 4091.06 967.257   1
 -10  -1   9 6582.51 1904.97   1
 -10  -1   9 5239.77 2772.57   1
  -1  -9  10 4653.29 1091.72   1
  -9   1  10 1491.57 1591.88   1
  -9   1  10 5039.13 2676.66   1
   1 -10   9 5810.82 1321.79   1
 -10   1   9 3000.77 1766.07   1
 -10   1   9 5092.05 1806.86   1
   1  -9  10 5551.75 1318.49   1
  10   1  -9 7758.78 4030.42   1
  -3 -10   9 -116.41 392.239   1
  -9  -3  10    7.31 956.564   1
  -3   9 -10  541.73 437.768   1
 -10  -3   9 -385.95 905.743   1
 -10  -3   9  530.15 519.126   1
  -3  -9  10  414.51 413.184   1
   3 -10   9  436.45 346.047   1
   3  10  -9 -517.25 403.152   1
   9   3 -10 1185.09 752.948   1
 -10   3   9 -1627.2 1295.34   1
   3  -9  10  612.94 540.403   1
  10   3  -9 -128.32 1538.97   1
  10   3  -9 -501.05 448.021   1
  -5  10  -9 1341.64 425.752   1
 -10  -9   5  961.75 356.190   1
  -9  -5  10 1740.71 640.833   1
  -5   9 -10 2722.96 1784.81   1
 -10  -5   9 1199.43 484.952   1
  -9 -10   5  900.89 351.339   1
  -5  -9  10 1278.80 450.667   1
  10   9  -5  872.78 318.818   1
   9   5 -10 1360.38 563.884   1
   5  -9  10 2230.18 1398.96   1
  10   5  -9  983.35 502.259   1
   9  10  -5  784.81 338.661   1
   5   9 -10 1922.61 556.829   1
  -7  10  -9 1891.74 565.317   1
 -10  -9   7 2159.63 576.672   1
  -9  10  -7 2062.61 480.321   1
  -7   9 -10 2796.82 1661.34   1
  -9 -10   7 2912.58 727.152   1
  10   9  -7 2180.57 579.098   1
   7  10  -9 1315.18 549.002   1
   9   7 -10 1817.88 661.889   1
  10   7  -9 1800.24 593.208   1
   9  10  -7 2429.72 629.919   1
   7   9 -10 1542.28 558.593   1
  -9  10  -9 123029.  60335.   1
 -10  -9   9  96638.  21177.   1
  -9 -10   9  85558.  18752.   1
   9 -10   9 110032.  53974.   1
   9  10  -9  94278.  20659.   1
   9   9 -10  94212.  20648.   1
 -10   0  10  91941.  45122.   1
 -10   0  10  91566.  20207.   1
  10   0 -10 105148.  51604.   1
  10   0 -10 123029.  27031.   1
  -2  10 -10 5297.10 1208.24   1
  -2 -10  10 6514.16 1473.93   1
   2 -10  10 6849.29 1554.40   1
   2  10 -10 7302.38 1648.11   1
  -4  10 -10  478.12 298.864   1
 -10  -4  10  479.88 510.638   1
  -4 -10  10  220.48 321.574   1
   4 -10  10  122.15 411.310   1
  10   4 -10  705.88 477.235   1
 -10  10  -6  249.37 104.895   1
  -6  10 -10  552.86 1274.39   1
 -10  -6  10 -105.28 423.106   1
 -10 -10   6  790.76 335.575   1
  -6 -10  10 1487.16 555.506   1
  10 -10   6  -47.89 100.970   1
   6 -10  10  585.27 870.465   1
  10   6 -10 -289.05 428.508   1
  10  10  -6  647.67 312.424   1
   6  10 -10 -460.48 472.605   1
 -10  10  -8 9814.78 4887.00   1
  -8  10 -10  11068. 5547.34   1
  -8 -10  10  16757. 3710.72   1
  10   8 -10  10220. 2294.12   1
   8  10 -10  16977. 3760.33   1
 -10 -10  10  44626. 9796.04   1
  10  10 -10  45607.  10014.   1
 -11  -1   0  23404. 5139.45   1
  11  -1   0  29357. 6440.30   1
  11   1   0  25455. 5589.23   1
 -11   0   1  31683. 6955.12   1
  11   0  -1  31353. 6879.06   1
 -11   2  -1  801.23 271.635   1
 -11  -2   1  321.02 279.572   1
 -11  -1   2  677.32 333.700   1
  11  -2   1 1024.47 319.810   1
  11   2  -1  230.40 310.991   1
  11   1  -2  959.76 390.805   1
  11  -3   0  33050. 7250.57   1
  11  -3  -2  761.66 349.465   1
 -11   3  -2  708.85 236.909   1
 -11  -3   2  527.61 321.243   1
  -3  -2  11 1067.69 1121.15   1
  11  -2  -3  673.13 374.600   1
 -11  -2   3 1335.02 473.927   1
  -2  -3  11  551.87 926.137   1
  11  -3   2  883.03 274.721   1
  11   3  -2  355.86 309.668   1
   3   2 -11 -226.99 777.863   1
 -11   2   3  918.75 428.398   1
  11   2  -3  756.48 360.489   1
   2   3 -11  783.26 727.042   1
  11  -4  -1  216.07 280.674   1
 -11   4  -1 -241.43 226.436   1
  11  -4   1  -43.78 251.901   1
   4   1 -11  365.67 1081.03   1
 -11   1   4  224.23 396.648   1
   1   4 -11 -511.41 813.912   1
  11  -4  -3  50446.  24771.   1
  11  -4  -3  49046.  10779.   1
 -11  -4   3  27759. 6099.65   1
  -4  -3  11  41164.  20218.   1
  -4  -3  11  29754. 6654.17   1
  11  -3  -4  42366. 9315.39   1
  11  -3  -4  50656.  24870.   1
 -11  -3   4  31661. 6955.12   1
  -3  -4  11  28751. 6446.91   1
   4   3 -11  39610.  19491.   1
 -11   3   4  44537.  21872.   1
 -11   3   4  43104. 9484.06   1
   3   4 -11  40955. 9035.38   1
 -11   5   0 3697.49 871.678   1
  11  -5   0 3833.09 904.199   1
   0  -5  11 4272.95 2270.97   1
   0  -5  11  783.93 1125.56   1
  11  -5  -2 4423.98 2327.19   1
  11  -5  -2 4905.74 1256.75   1
 -11   5  -2 2916.99 669.165   1
 -11  -5   2 1742.92 502.811   1
  -5  -2  11 4400.83 2388.93   1
  -5  -2  11 2542.16 1360.38   1
  -2   5 -11  573.37 783.265   1
 -11  -2   5 2446.25 679.748   1
  -2  -5  11 3178.26 1860.87   1
  -2  -5  11 1303.05 1242.42   1
 -11   5   2 4998.34 2588.47   1
 -11   5   2 3888.21 1144.30   1
  11  -5   2 2782.49 647.337   1
   5   2 -11 4023.81 2302.94   1
   5   2 -11 1537.87 923.932   1
   2   5 -11  515.16 1315.18   1
   2   5 -11 4073.42 1260.06   1
  11  -5  -4  726.38 857.016   1
  11  -5  -4 1075.18 716.789   1
 -11  -5   4 1158.64 451.659   1
  -4 -11   5  687.69 336.457   1
  -4  -5  11 1723.07 1326.20   1
  -4  -5  11 1484.95 1254.55   1
  11   5  -4 2472.71 649.542   1
   5   4 -11 1327.31 962.076   1
 -11   4   5  376.58 998.676   1
   4   5 -11 -1081.9 1483.85   1
   4   5 -11  688.13 867.930   1
  11  -6  -1  -34.59 675.779   1
  -1  11  -6  453.53 300.628   1
  11  -1  -6  498.29 538.419   1
  -1   6 -11 -160.07 1073.86   1
  -1  -6  11   89.31 926.248   1
 -11   6   1  585.71 681.291   1
  11  -6   1  206.15 305.148   1
   6   1 -11 2579.65 1785.91   1
   6   1 -11  438.87 897.254   1
 -11   1   6  -34.85 603.240   1
   1  -6  11 -165.14 807.407   1
  11  -6  -3 -157.98 526.292   1
 -11   6  -3  564.88 188.402   1
  -3  11  -6  260.17 243.192   1
  -6  -3  11  967.70 1153.12   1
  -6  -3  11  332.82 1357.07   1
  11  -3  -6  566.09 1043.65   1
  11  -3  -6  710.62 820.747   1
  -3   6 -11  -88.29 614.485   1
 -11  -3   6  223.24 325.543   1
  -3  -6  11  385.84 1035.61   1
  -3  -6  11  877.19 1079.26   1
 -11   6   3   -1.54 801.234   1
  11  -6   3  292.14 158.527   1
   3 -11   6  405.47 277.367   1
   6   3 -11 1520.23 1064.49   1
   6   3 -11 -472.16 1439.75   1
 -11   3   6 1521.33 1181.79   1
 -11   3   6  548.56 1139.90   1
   3  -6  11  -33.03 946.532   1
   3   6 -11 -537.43 1290.93   1
  -5  11  -6  26348. 5778.85   1
 -11  -6   5  26745. 5875.86   1
  -6  -5  11  39444. 8733.32   1
  11  -5  -6  20461. 4591.55   1
 -11  -5   6  28960. 6368.64   1
  -6 -11   5  26612. 5848.30   1
  -5  -6  11  33535. 7409.32   1
  11   6  -5  28619. 6284.86   1
   6   5 -11  36512. 8060.85   1
   6  11  -5  20395. 4486.82   1
   5   6 -11  27373. 6043.43   1
 -11   7   0 -329.84 574.908   1
  -7   0  11 -710.73 1003.97   1
  11  -7   0   -7.84 571.711   1
   0 -11   7  624.19 307.573   1
   0  11  -7  667.73 342.520   1
 -11   0   7  590.34 668.834   1
   0  -7  11 2232.39 1403.37   1
   0  -7  11  658.14 1163.05   1
 -11   7  -2  566.31 644.691   1
 -11   7  -2  340.65 510.417   1
  -2  11  -7   23.92 239.775   1
  -2 -11   7   98.21 306.361   1
  -7  -2  11 -1466.2 1318.49   1
  -7  -2  11  943.11 1501.49   1
  -2   7 -11 -3198.1 1938.04   1
  -2   7 -11  606.99 868.702   1
  -2  -7  11  -13.44 878.954   1
   2 -11   7  514.06 269.430   1
   7   2 -11 -2293.0 1172.97   1
   7   2 -11 -1695.5 1647.01   1
 -11   2   7 -959.10 1058.21   1
 -11   2   7   89.49 1152.02   1
   2  -7  11 -474.70 1050.27   1
  11   2  -7   11.52 400.837   1
   2   7 -11  161.50 623.856   1
 -11   7  -4 4309.33 950.170   1
  -4  11  -7 4631.24 1041.89   1
 -11  -7   4 6933.08 1561.02   1
  -7  -4  11 3635.76 2118.84   1
  -7  -4  11 3479.22 1468.41   1
 -11  -4   7 4002.86 960.202   1
  11  -7   4 3988.53 880.056   1
   4 -11   7 4938.81 1107.93   1
  11   7  -4 7356.40 1645.90   1
  11   4  -7 3911.36 957.005   1
  -6  11  -7  407.89 191.489   1
  -7  -6  11  148.94 1022.82   1
  -7  -6  11  344.83 555.175   1
  -7  11  -6  162.39 143.424   1
 -11  -6   7   16.84 390.805   1
  -7 -11   6  495.20 277.367   1
  -6  -7  11   52.02 497.078   1
   7   6 -11 4588.24 2861.86   1
   7   6 -11  574.47 504.023   1
   7 -11   6  240.99 153.015   1
  11   6  -7  130.64 375.372   1
   6   7 -11  -25.84 464.888   1
   8  -1 -11   58.13 967.588   1
  -1  11  -8 2037.26 517.914   1
  -1 -11   8 2462.79 616.910   1
  -1   8 -11  674.90 1207.14   1
 -11  -1   8 2165.14 782.713   1
  -1  -8  11 1333.92 648.439   1
  -8   1  11 -703.12 1245.73   1
   1 -11   8 2246.72 574.247   1
   8   1 -11  197.33 1182.89   1
   1  -8  11 1687.79 1240.21   1
  11   1  -8 1489.36 601.366   1
 -11   8  -3 -223.02 471.502   1
 -11   8  -3  688.24 456.289   1
  -3  11  -8  519.02 261.933   1
 -11  -8   3  517.47 326.535   1
  -8  -3  11 -796.16 1195.02   1
  -8  -3  11  579.65 1638.19   1
  11  -3  -8 -214.42 1121.15   1
  11  -3  -8  678.76 1126.67   1
  -3   8 -11 -444.16 1179.58   1
  -3  -8  11  -41.11 480.983   1
  11  -8   3  506.34 485.393   1
  11  -8   3   83.75 322.897   1
   3 -11   8 -251.90 316.723   1
   8   3 -11 1677.87 1766.07   1
   8   3 -11 -175.28 1084.22   1
 -11   3   8  -32.86 1038.36   1
 -11   3   8 1649.21 1547.79   1
   3  -8  11 1874.10 1233.60   1
  11   3  -8 -427.63 397.751   1
   3   8 -11  275.38 432.587   1
  -5  11  -8 2235.69 558.262   1
 -11  -8   5 1662.44 470.620   1
  -5 -11   8 2237.90 621.100   1
  -5   8 -11  357.07 1117.85   1
  -5   8 -11  700.80 1048.95   1
 -11  -5   8 1734.10 531.584   1
  -8 -11   5 4773.45 1103.52   1
  11   8  -5 1630.47 460.147   1
   5  11  -8 1737.40 477.235   1
   5  -8  11 1810.16 1409.99   1
  11   5  -8 1587.47 510.858   1
   8  11  -5 2401.06 621.100   1
   5   8 -11 1327.31 526.953   1
  -7  11  -8 1164.15 350.678   1
 -11  -8   7 1469.52 456.950   1
  -7 -11   8  176.83 296.659   1
  -8  -7  11 1363.69 490.243   1
  -8  11  -7  431.15 187.520   1
 -11  -7   8  922.50 444.934   1
  -7  -8  11 1630.47 551.868   1
  11   8  -7  783.04 365.229   1
   7  11  -8  153.13 290.376   1
   8   7 -11 1327.31 566.751   1
   8 -11   7  560.58 191.269   1
  11   7  -8 1654.72 545.584   1
   8  11  -7  511.63 313.306   1
   7   8 -11 1085.33 529.599   1
  -9   0  11  412.08 1070.88   1
  -9   0  11 -1351.6 1815.67   1
   0 -11   9  527.73 356.741   1
   0  11  -9   68.57 347.150   1
 -11   0   9  402.93 1117.85   1
 -11   0   9  707.64 1552.20   1
   0  -9  11  365.34 497.960   1
  11   0  -9 -1380.2 1586.37   1
  11   0  -9  -89.86 1099.99   1
   9  -2 -11  770.48 1251.24   1
  -2  11  -9 2092.38 554.624   1
  -9  -2  11 3166.13 1942.45   1
  -9  -2  11 1645.90 1708.74   1
  -2   9 -11 1281.00 593.208   1
 -11  -2   9 1016.98 570.168   1
  -9   2  11  443.28 1730.79   1
   9   2 -11 4830.77 2854.15   1
   9   2 -11 2986.44 1405.58   1
 -11   2   9 2166.24 1697.72   1
   2  -9  11 2614.92 1070.22   1
 -11  -9   4  568.73 314.739   1
  -4 -11   9  549.66 335.685   1
  -9  -4  11 1622.75 906.294   1
  11  -4  -9 1368.09 1139.90   1
  -4   9 -11 -832.10 1379.12   1
  -4   9 -11  853.93 961.084   1
 -11  -4   9  899.13 421.232   1
  -4  -9  11 1226.99 505.677   1
   4 -11   9 1071.66 362.143   1
  11   9  -4  604.67 308.014   1
   4  11  -9  924.15 376.474   1
   9   4 -11  634.88 645.353   1
 -11   4   9 -681.18 1634.88   1
  11   4  -9  511.41 454.304   1
   4   9 -11 1232.50 518.796   1
  -6  11  -9 3658.91 849.189   1
  -6 -11   9 3115.42 779.957   1
  -9  -6  11 2313.97 677.212   1
 -11  -6   9 2239.00 600.154   1
  -9 -11   6 1325.10 399.956   1
   6  11  -9 2716.35 682.173   1
   9 -11   6 3011.79 672.803   1
   6  -9  11 1796.93 1159.74   1
  11   6  -9 2178.37 598.500   1
 -11  -9   8 5553.96 1269.98   1
  -8 -11   9 6246.27 1416.60   1
  -9  11  -8 5627.82 1250.14   1
 -11  -8   9 6841.58 1569.84   1
  -9 -11   8 5718.22 1300.85   1
  -8  -9  11 6246.27 1435.34   1
  11   9  -8 6567.08 1489.36   1
   8  11  -9 6661.88 1503.69   1
   9   8 -11 4484.62 1139.90   1
  11   8  -9 6527.39 1505.90   1
   9  11  -8 6766.61 1525.74   1
   8   9 -11 6894.49 1580.86   1
  10  -1 -11 5324.66 2995.26   1
  10  -1 -11 1914.89 1363.69   1
 -10  -1  11  726.49 1198.32   1
  11  -1 -10 1850.95 1540.07   1
  11  -1 -10 1233.60 1663.54   1
 -11  -1  10 2952.26 1495.97   1
 -11  -1  10 4289.49 2404.36   1
  -1 -10  11  446.15 377.136   1
 -10   1  11 1469.52 1375.81   1
 -10   1  11  855.58 1835.52   1
   1 -11  10  772.57 327.527   1
 -11   1  10 1985.45 1715.35   1
 -11   1  10 1201.63 1256.75   1
   1 -10  11 1586.37 575.019   1
  11   1 -10 3192.59 1201.63   1
  11   1 -10 6079.81 3368.97   1
   1  10 -11  652.08 426.193   1
  -3 -11  10 6875.75 1566.53   1
 -10  -3  11 5894.60 3140.78   1
 -10  -3  11 6457.94 1832.21   1
  -3 -10  11 5287.17 1254.55   1
   3 -11  10 4126.33 972.108   1
   3  11 -10 6438.09 1476.13   1
  10   3 -11 5495.53 1464.00   1
 -11   3  10 2580.75 1492.67   1
  11   3 -10 4280.67 1084.55   1
  -5  11 -10  734.43 329.291   1
 -11 -10   5 1247.93 451.218   1
  -5 -11  10 3561.90 902.546   1
 -10  -5  11 1034.95 549.222   1
  -5  10 -11 1650.31 1522.43   1
 -11  -5  10  956.89 446.698   1
 -10 -11   5  989.09 371.183   1
  -5 -10  11 1264.47 454.966   1
  11  10  -5  951.38 362.143   1
   5  11 -10  766.62 453.202   1
  10   5 -11 1441.96 593.539   1
   5 -10  11 1944.66 1286.52   1
  11   5 -10  773.01 459.376   1
  10  11  -5  633.12 342.079   1
   5  10 -11 2229.08 629.147   1
 -11  10  -7 2074.74 1156.43   1
 -11 -10   7 2126.55 565.758   1
  -7 -11  10 2447.36 712.710   1
 -10  -7  11 1188.40 485.062   1
 -10  11  -7 3672.14 817.219   1
  -7  10 -11 -568.85 1179.58   1
 -11  -7  10 1634.88 515.378   1
  11  10  -7 1540.07 451.438   1
  10   7 -11 1433.14 553.301   1
  10 -11   7 3188.18 717.451   1
  11   7 -10 1329.51 504.354   1
  10  11  -7 2194.90 573.475   1
   7  10 -11 1605.11 535.001   1
  -9  11 -10 3944.43 2235.69   1
 -11 -10   9 7117.18 1608.42   1
 -10  11  -9 3120.93 1784.81   1
 -11  -9  10 7051.03 1619.44   1
 -10 -11   9 6204.38 1405.58   1
   9 -11  10 4035.93 2113.33   1
  11  10  -9 6348.80 1439.75   1
   9  11 -10 5496.63 1271.08   1
  10 -11   9 3264.25 1725.28   1
  11   9 -10 6816.22 1574.25   1
  10  11  -9 5891.30 1354.87   1
   9  10 -11 6528.49 1542.28   1
 -11   0  11  11785. 5924.37   1
 -11   0  11 7967.14 2774.77   1
   0 -11  11 6605.66 1508.10   1
  11   0 -11  12854. 6540.62   1
  11   0 -11  14364. 3510.08   1
  11  -2 -11 -765.07 1537.87   1
  11  -2 -11  380.33 1310.77   1
  -2  11 -11 -128.43 303.605   1
 -11  -2  11  639.73 1245.73   1
  -2 -11  11 -234.81 330.614   1
 -11   2  11  -71.95 1222.58   1
 -11   2  11 -723.40 1509.20   1
   2 -11  11  -30.34 322.235   1
   2  11 -11   10.42 321.464   1
  -4  11 -11  20306. 4466.98   1
 -11  -4  11  17407. 3883.80   1
   4 -11  11  17661. 8723.40   1
   4 -11  11  26491. 5830.66   1
  11   4 -11  23261.  11586.   1
  11   4 -11  20836. 4611.39   1
   4  11 -11  20979. 4632.34   1
  -6  11 -11  -84.58 443.391   1
 -11  -6  11  -12.34 397.530   1
 -11 -11   6  127.00 249.917   1
  11   6 -11 -200.53 481.865   1
  11  11  -6  263.15 312.755   1
   6  11 -11 -240.88 427.736   1
 -11  11  -8 1038.80 917.869   1
 -11  -8  11 1406.68 491.456   1
 -11 -11   8 2649.10 658.471   1
  -8 -11  11 2570.83 717.451   1
  11 -11   8 1295.34 821.077   1
   8 -11  11  456.62 884.576   1
  11   8 -11 2428.62 700.914   1
  11  11  -8 2588.47 643.479   1
   8  11 -11 2806.74 763.642   1
 -10  11 -11 1370.30 1190.61   1
 -11 -10  11 1007.50 490.023   1
 -11 -11  10 1647.01 501.929   1
 -10 -11  11 1802.45 586.374   1
  11  10 -11 2237.90 701.906   1
  11  11 -10 1652.52 525.631   1
  10  11 -11 1864.18 616.139   1
 -12   0   0 6300.29 1411.09   1
  12   0   0 8233.92 1831.11   1
  12  -1  -1 1002.64 364.678   1
 -12   1   1  692.65 305.368   1
  12  -1   1  416.16 252.342   1
  12   1  -1  260.50 309.999   1
 -12   2   0  12027. 2652.41   1
  12  -2   0  14816. 3264.25   1
  12   0  -2  15180. 3351.34   1
  12  -2  -2  753.83 325.543   1
 -12  -2   2  784.81 359.607   1
  12   2  -2  301.62 303.825   1
  12  -3  -1 1200.53 363.025   1
 -12   3  -1 1351.56 380.112   1
 -12  -3   1 1338.33 413.515   1
  12  -1  -3 1260.06 412.523   1
 -12  -1   3 1403.37 492.338   1
  12  -3   1 1681.18 425.531   1
  12   3  -1 1813.47 505.456   1
  12  -3  -3  18928. 9340.75   1
 -12  -3   3  15632. 3450.55   1
  12   3  -3  14122. 3118.73   1
 -12   4   0  25300. 5552.85   1
  12  -4   0  31750. 6962.84   1
  12   0  -4  27263. 5992.72   1
  12  -4  -2  39235. 8609.85   1
 -12   4  -2  40139. 8796.15   1
 -12  -4   2  25852. 5679.63   1
  12  -2  -4  39577. 8685.91   1
 -12  -2   4  50590.  11090.   1
  -2  -4  12  38276. 8537.09   1
 -12   4   2  39720. 8716.78   1
  12  -4   2  36975. 8103.84   1
   4   2 -12  34891. 7713.58   1
 -12   2   4  51317.  25201.   1
 -12   2   4  38287. 8407.00   1
  12   2  -4  47657.  10452.   1
   2   4 -12  48440.  23812.   1
   2   4 -12  40999. 9050.81   1
  12  -4  -4 3490.24 1942.45   1
  -4  -4  12 -493.77 1437.55   1
 -12   4   4  379.56 1148.71   1
   4   4 -12 -315.62 1378.02   1
   4   4 -12 1425.42 1158.64   1
  12  -5  -1 6001.54 1374.71   1
 -12   5  -1 3348.03 768.933   1
  -5  -1  12 3191.49 1498.18   1
  12  -1  -5 4353.43 1037.15   1
  -1  -5  12 8730.01 4407.45   1
  -1  -5  12 2552.09 1558.81   1
  12  -5   1 3752.61 850.953   1
   5   1 -12 1783.70 1042.11   1
 -12   1   5 4313.74 1052.80   1
  12   1  -5 3741.59 891.632   1
   1   5 -12 3330.39 2070.33   1
   1   5 -12 4242.09 1347.15   1
  12  -5  -3 -1337.2 1104.62   1
  12  -5  -3  211.77 807.518   1
 -12   5  -3  687.24 208.025   1
 -12  -5   3  993.49 372.395   1
  -5  -3  12  466.43 1105.72   1
  12  -3  -5    8.69 781.060   1
  12  -3  -5 -951.16 1158.64   1
 -12  -3   5  216.51 405.468   1
  -3  -5  12 9400.28 2645.79   1
  -3  -5  12 3458.27 2035.05   1
  12  -5   3  576.78 197.111   1
  12   5  -3  921.40 346.047   1
 -12   3   5 -396.43 1005.95   1
 -12   3   5  251.24 909.932   1
   3   5 -12 3105.50 2147.50   1
   3   5 -12  730.02 1179.58   1
  12  -5  -5 1003.75 1083.34   1
  12  -5  -5  884.14 1083.34   1
 -12  -5   5  310.22 320.251   1
  -5  -5  12 1448.57 1312.97   1
  -5  -5  12 2106.71 1701.02   1
 -12   5   5 1409.99 1193.91   1
 -12   5   5 -308.23 1351.56   1
  12   5  -5   22.73 299.305   1
   5   5 -12 -327.09 1590.78   1
   5   5 -12  556.72 1208.24   1
   0 -12   6 6634.32 1491.57   1
   0  12  -6 6231.94 1398.96   1
 -12   0   6 9521.54 2147.50   1
   0  -6  12  15147. 7510.74   1
  12   0  -6 8136.91 1835.52   1
  12  -6  -2   30.56 734.538   1
 -12   6  -2  182.12 164.149   1
  -2  12  -6  215.41 224.892   1
 -12  -6   2  138.46 270.532   1
  -2 -12   6  552.09 313.857   1
  -6  -2  12  -45.33 1100.32   1
  -6  -2  12 -535.99 1675.67   1
  -2  -6  12 -251.57 1038.69   1
  12  -6   2  104.35 181.016   1
   2 -12   6  410.10 234.263   1
   2  12  -6  130.97 272.296   1
   6   2 -12 -751.85 1501.49   1
   6   2 -12  857.68 1177.38   1
 -12   2   6 1409.99 1253.44   1
 -12   2   6  967.81 883.253   1
   2  -6  12 -773.89 1188.40   1
 -12  -6   4 1472.82 476.353   1
  -4 -12   6 1179.58 387.278   1
 -12  -4   6 1989.86 591.004   1
  -4  -6  12 1507.00 1405.58   1
  -4  -6  12 4788.88 1690.00   1
  12   6  -4 1319.59 408.775   1
   4  12  -6 2269.87 587.476   1
   6   4 -12 4171.53 1792.52   1
  12   4  -6 3386.61 845.771   1
   4   6 -12 1542.28 1831.11   1
   4   6 -12 2716.35 1278.80   1
 -12  -6   6 4233.27 991.290   1
  -6 -12   6 3762.54 893.616   1
  -6  -6  12 4731.56 1505.90   1
  12   6  -6 4554.07 1052.80   1
   6  12  -6 3350.23 807.738   1
   6   6 -12 2624.85 934.846   1
  12  -7  -1 2367.98 1327.31   1
  12  -7  -1 1402.27 944.217   1
 -12   7  -1 3671.04 1932.53   1
 -12   7  -1 7371.84 1814.57   1
  -1  12  -7 3888.21 883.364   1
  -1 -12   7 4405.24 1005.95   1
  -7  -1  12 5356.63 2850.84   1
  -7  -1  12  782.82 1833.31   1
  12  -1  -7 4981.81 1360.38   1
  -1   7 -12 1193.91 1438.65   1
 -12  -1   7 3963.18 973.541   1
  -1  -7  12 4573.91 1841.03   1
  -1  -7  12 5666.40 3025.02   1
 -12   7   1 6066.58 3085.65   1
  12  -7   1 3127.55 1613.93   1
  12  -7   1 5585.93 1439.75   1
   1 -12   7 5116.30 1154.23   1
   7   1 -12 2156.32 1810.16   1
   7   1 -12 1321.79 1322.90   1
   1  -7  12 3373.38 1626.06   1
   1   7 -12 4069.01 2396.65   1
   1   7 -12 5293.79 1577.55   1
 -12   7  -3  385.95 190.166   1
  -3  12  -7  321.24 203.395   1
 -12  -7   3  207.80 303.825   1
  -3 -12   7  814.57 330.283   1
  -7  -3  12 1677.87 1423.22   1
  -7  -3  12 1641.49 2037.26   1
  12  -3  -7  965.71 1310.77   1
  12  -3  -7 1669.05 1206.04   1
  -3   7 -12 -214.97 1088.19   1
  12  -7   3  168.56 170.102   1
   3 -12   7  747.55 266.123   1
  12   7  -3  889.65 338.331   1
   3  12  -7 1342.74 391.467   1
   7   3 -12 1595.19 1500.38   1
   7   3 -12 2524.53 2054.90   1
 -12   3   7  -61.98 1739.61   1
 -12   3   7  227.87 1116.74   1
  12   3  -7  318.71 360.599   1
   3   7 -12  518.69 817.109   1
  -5  12  -7 8034.39 1772.68   1
 -12  -7   5 9488.47 2106.71   1
  -5 -12   7 8146.83 1815.67   1
  12  -5  -7 5390.80 1606.22   1
 -12  -5   7  12071. 2685.48   1
  -5  -7  12 8641.82 2000.88   1
   5  12  -7 8587.80 1909.38   1
   7   5 -12 9308.78 2276.48   1
  12   5  -7  12171. 2707.53   1
  -7  12  -7  203.17 145.960   1
 -12  -7   7 1089.07 426.744   1
  -7 -12   7  708.74 320.251   1
  -7  -7  12  549.00 1344.94   1
  -7  -7  12   48.61 489.141   1
   7 -12   7  709.84 225.223   1
  12   7  -7  709.95 373.277   1
   7  12  -7  691.43 323.228   1
   7   7 -12 -396.76 461.580   1
   0 -12   8  894.17 323.448   1
   0  12  -8  554.40 277.147   1
 -12   0   8  162.72 691.103   1
   0  -8  12  947.08 1139.90   1
   0  -8  12  663.65 1228.09   1
 -12   8  -2  466.65 708.852   1
  -2  12  -8 1306.36 357.843   1
  -2 -12   8 1129.97 368.757   1
  -8  -2  12 2423.10 1747.32   1
  -8  -2  12 2255.54 2018.52   1
  -2   8 -12 -1062.0 1459.59   1
 -12  -2   8  560.14 473.376   1
  -2  -8  12  435.12 780.839   1
  12  -8   2  711.94 554.183   1
  12  -8   2 1551.10 725.719   1
   2 -12   8 1415.50 396.318   1
   2  12  -8 1927.02 497.960   1
   8   2 -12  -69.39 1477.23   1
   8   2 -12 -1478.3 1830.01   1
 -12   2   8 2417.59 1598.50   1
 -12   2   8 1412.19 1568.73   1
   2  -8  12 2151.91 1396.76   1
   2  -8  12  886.01 1535.66   1
  12   2  -8  396.43 411.421   1
   2   8 -12  955.13 624.186   1
 -12   8  -4 2502.48 565.428   1
  -4  12  -8 3451.66 799.580   1
  -4 -12   8 3795.61 891.962   1
  -8  -4  12 3142.98 1999.78   1
  12  -4  -8 1634.88 1511.41   1
  -4   8 -12 2065.92 1587.47   1
  -4   8 -12 1613.93 1167.46   1
  -4  -8  12 1489.36 616.580   1
  12  -8   4 3341.41 743.798   1
   4 -12   8 4162.71 948.847   1
  12   8  -4 2167.34 579.869   1
   4  12  -8 3502.37 830.338   1
   8   4 -12  277.70 1845.44   1
   4  -8  12 3592.76 1952.37   1
  12   4  -8 1909.38 578.877   1
   4   8 -12 -225.44 1748.43   1
  -6 -12   8 1799.14 510.307   1
  -6   8 -12 -479.55 919.082   1
 -12  -6   8 3236.69 830.338   1
  -8 -12   6 1148.71 395.656   1
  -6  -8  12  951.16 550.104   1
  12   8  -6 2588.47 647.117   1
   6  12  -8 1174.07 395.766   1
   8   6 -12  741.59 520.339   1
   8  12  -6  848.42 359.387   1
  -8  12  -8 1448.57 361.592   1
 -12  -8   8 2004.19 566.089   1
  -8 -12   8 1310.77 412.413   1
  -8  -8  12 1484.95 535.222   1
   8 -12   8 1457.39 384.411   1
  12   8  -8 2372.39 629.588   1
   8  12  -8 1340.53 466.651   1
   8   8 -12 1490.46 560.467   1
   9  -1 -12 -181.35 1057.43   1
  -1  12  -9 2301.84 568.845   1
  -1 -12   9 1003.42 357.954   1
  -1   9 -12  585.16 686.583   1
 -12  -1   9   -4.47 907.507   1
  -9   1  12 1503.69 1536.76   1
   1 -12   9 2028.44 528.387   1
   9   1 -12  721.75 1684.49   1
   9   1 -12  510.75 1278.80   1
  12   1  -9  362.47 587.035   1
  -3 -12   9 3327.08 793.076   1
  -9  -3  12 2382.31 1716.46   1
  -9  -3  12 2190.49 1875.20   1
  12  -3  -9 4129.64 2444.05   1
  12  -3  -9 4753.61 1716.46   1
  -3   9 -12 1505.90 1073.97   1
 -12  -3   9 1135.49 485.833   1
  -3  -9  12 1157.53 572.924   1
   3 -12   9 2082.46 548.671   1
   3  12  -9 1848.75 506.118   1
   9   3 -12 2094.58 1321.79   1
   9   3 -12  105.19 1858.67   1
 -12   3   9 7290.26 3777.97   1
 -12   3   9 -634.55 1701.02   1
   3   9 -12  666.63 432.477   1
  -5  12  -9 7611.06 1694.41   1
 -12  -9   5 6847.09 1534.56   1
  -5 -12   9 8081.79 1816.78   1
  -9  -5  12 3491.34 2070.33   1
  -9  -5  12 7326.64 1773.78   1
  -5  -9  12 5404.03 1295.34   1
   5 -12   9 7600.04 1702.13   1
  12   9  -5 6688.34 1498.18   1
   9   5 -12 5653.17 1376.91   1
   5  -9  12 7540.51 3819.86   1
  12   5  -9 6319.03 1457.39   1
   5   9 -12 4382.09 1094.92   1
 -12  -9   7 5351.11 1224.78   1
  -9  -7  12 5850.51 1374.71   1
  -9  12  -7 4082.24 905.522   1
  -9 -12   7 4548.56 1044.65   1
  -7  -9  12 8873.32 2005.29   1
   7 -12   9 6341.08 1416.60   1
  12   9  -7 5525.29 1260.06   1
   7  12  -9 7375.14 1652.52   1
   9 -12   7 4997.24 1105.72   1
  12   7  -9 7832.65 1781.50   1
   9  12  -7 6267.22 1413.29   1
   7   9 -12 7799.57 1793.63   1
  -9  12  -9 1010.36 304.927   1
  -9 -12   9  783.60 353.544   1
  12   9  -9  681.62 370.962   1
   9  12  -9 1005.73 371.623   1
 -10   0  12 1501.49 1422.11   1
 -10   0  12 -1546.7 1784.81   1
   0 -12  10  576.89 370.411   1
 -12   0  10 -525.41 1278.80   1
 -12   0  10  641.49 1507.00   1
   0 -10  12  520.78 484.952   1
   0 -10  12  520.89 1020.72   1
  12   0 -10 2575.24 1986.55   1
  12   0 -10  851.72 1146.51   1
  10  -2 -12  574.47 1093.26   1
  -2  12 -10 2118.84 573.365   1
  -2 -12  10 2932.42 736.743   1
  -2  10 -12 1074.30 483.629   1
 -12  -2  10  725.28 1088.85   1
 -12  -2  10 1617.24 748.979   1
 -10   2  12  707.42 1498.18   1
  10   2 -12 1774.89 2046.08   1
  10   2 -12 3094.47 1491.57   1
   2 -10  12 2770.36 872.891   1
  12   2 -10 1415.50 612.611   1
   2  10 -12 1185.09 494.543   1
 -12 -10   4  29666. 6513.06   1
 -10  -4  12  52265.  11531.   1
  -4  10 -12  31529.  15544.   1
 -12  -4  10  30559. 6721.41   1
  -4 -10  12  30647. 6741.26   1
   4 -12  10  41506. 9103.73   1
   4  12 -10  41616. 9134.60   1
  10   4 -12  41318. 9114.75   1
   4 -10  12  37074.  18223.   1
   4  10 -12  29258. 6438.09   1
  -6  12 -10 3654.50 858.229   1
 -12 -10   6 1698.82 481.314   1
  -6 -12  10 2491.45 653.951   1
 -10  -6  12 1447.47 603.902   1
  -6  10 -12 8504.01 4404.14   1
  -6  10 -12  720.10 1666.85   1
 -10 -12   6 1251.24 390.365   1
  12  10  -6 1165.25 392.128   1
   6  12 -10 2061.51 571.381   1
  10   6 -12  596.52 537.978   1
   6 -10  12 2527.83 1538.97   1
   6 -10  12 4687.46 1987.65   1
  12   6 -10 1137.69 504.685   1
  10  12  -6 1206.04 393.010   1
  -8 -12  10  740.38 380.002   1
 -10  -8  12  478.78 432.918   1
 -10  12  -8 1041.67 287.179   1
 -10 -12   8  451.66 304.707   1
  -8 -10  12 1017.75 436.115   1
  12  10  -8  914.12 353.434   1
   8  12 -10 1438.65 461.911   1
  10   8 -12  489.69 552.970   1
  12   8 -10 1042.88 537.316   1
   8  10 -12  881.60 478.447   1
 -10  12 -10  130.97 431.705   1
 -12 -10  10  189.28 436.225   1
 -10 -12  10  545.14 352.331   1
  10 -12  10 -864.62 820.747   1
  10  12 -10  639.51 353.213   1
  11  -1 -12  311.10 1681.18   1
  11  -1 -12  992.83 1438.65   1
  -1  12 -11  284.09 408.995   1
 -11  -1  12 2556.50 1982.14   1
 -11  -1  12  790.65 1301.95   1
  12  -1 -11 -2176.2 1949.07   1
  12  -1 -11  408.55 1565.43   1
 -12  -1  11 1101.75 1327.31   1
  -1 -11  12  876.20 448.462   1
 -11   1  12 -1260.1 1917.10   1
 -11   1  12  641.82 1219.27   1
   1 -12  11  757.58 345.055   1
 -12   1  11 -924.81 1838.83   1
 -12   1  11  -49.69 1165.25   1
   1 -11  12  598.83 435.674   1
  12   1 -11 3041.56 2320.58   1
  12   1 -11 1644.80 1101.53   1
   1  11 -12  742.59 403.483   1
  11  -3 -12 -1147.6 1347.15   1
  -3 -12  11  570.94 416.602   1
  -3  11 -12   -8.73 544.151   1
 -12  -3  11  672.14 578.987   1
  -3 -11  12 -106.28 414.838   1
 -11   3  12  -46.58 1726.38   1
   3 -12  11 -453.86 352.001   1
   3  12 -11  672.69 418.917   1
  11   3 -12  115.97 866.386   1
  -5  12 -11  24606. 5417.26   1
 -12 -11   5  27858. 6118.39   1
  -5 -12  11  34737. 7629.80   1
 -11  -5  12  22831.  11289.   1
 -11  -5  12  30515. 6725.82   1
  -5  11 -12  23217. 5169.22   1
 -11 -12   5  24617. 5409.54   1
  -5 -11  12  26557. 5842.79   1
  12  11  -5  25852. 5679.63   1
   5  12 -11  37295. 8189.83   1
  11   5 -12  26083.  13031.   1
  11   5 -12  25752. 5684.04   1
   5 -11  12  27384.  13494.   1
   5  11 -12  30427. 6690.55   1
 -12  11  -7  475.69 159.850   1
  -7  12 -11 1154.23 434.130   1
 -12 -11   7  228.09 310.219   1
  -7 -12  11  -65.14 394.664   1
 -11  -7  12  264.58 407.783   1
 -11  12  -7  378.02 130.526   1
 -11 -12   7  776.65 317.826   1
  12 -11   7   82.37 370.521   1
  12  11  -7  623.64 317.385   1
   7  12 -11  333.70 432.366   1
  11   7 -12  -12.30 537.537   1
  11 -12   7  527.06 153.787   1
   7 -11  12 -383.53 939.366   1
  12   7 -11  554.73 479.439   1
  11  12  -7  916.99 349.906   1
  -9  12 -11 -1056.6 1371.40   1
 -12 -11   9 1897.25 549.332   1
 -11  -9  12 1138.79 473.266   1
 -11  12  -9  689.78 310.550   1
  -9  11 -12   17.50 1055.01   1
 -11 -12   9 1331.72 415.389   1
   9 -12  11  870.47 934.075   1
  11   9 -12 1324.00 571.491   1
  11 -12   9 1272.18 954.469   1
  11  12  -9 1703.23 506.228   1
 -12 -11  11  250.25 376.364   1
 -11 -11  12  517.25 475.250   1
  11 -12  11  809.83 876.198   1
  11  12 -11  484.40 386.065   1
  11  11 -12 -456.51 533.899   1
 -12   0  12  20395.  10101.   1
   0 -12  12  10079. 2262.15   1
  12   0 -12  18631. 9359.49   1
  12   0 -12  10426. 2902.65   1
  12  -2 -12 -2043.9 1906.07   1
  12  -2 -12 -232.94 1737.40   1
  -2  12 -12  503.58 504.244   1
 -12  -2  12  910.15 1324.00   1
 -12  -2  12  338.11 1307.46   1
  -2 -12  12  -12.01 313.637   1
 -12   2  12   84.96 1141.00   1
 -12   2  12  738.07 1825.60   1
   2 -12  12  -50.37 358.946   1
  12   2 -12 1832.21 2073.64   1
   2  12 -12 -470.40 470.069   1
   4 -12  12  518.02 450.556   1
   4  12 -12  863.52 424.760   1
 -12 -12   6 1674.57 475.361   1
   6 -12  12 1386.84 638.848   1
  12   6 -12 2588.47 837.614   1
  12  12  -6 2235.69 578.436   1
   6  12 -12 3995.15 1000.33   1
 -12  12  -8 1224.78 318.046   1
  -8  12 -12  113.66 1318.49   1
 -12 -12   8 1096.79 382.317   1
  -8 -12  12 1050.93 506.338   1
  12   8 -12  559.58 539.962   1
   8  12 -12 2351.45 713.151   1
 -12 -10  12  285.08 387.719   1
 -12 -12  10  602.03 332.708   1
 -10 -12  12  839.38 484.070   1
  10 -12  12 -944.88 1020.28   1
  12  12 -10  775.11 380.773   1
  10  12 -12  976.63 534.450   1
 -12  12 -12 -1053.8 1394.55   1
 -12 -12  12  900.78 466.982   1
  12  12 -12 1011.46 536.765   1
 -13  -1   0  851.50 300.738   1
  13   1   0 1072.21 348.032   1
 -13   0   1  889.32 330.834   1
  13   0  -1  749.75 312.203   1
  13  -2  -1  451.33 309.999   1
 -13   2  -1  311.32 203.064   1
 -13  -2   1 -138.02 248.925   1
  13  -1  -2 1577.55 477.124   1
  13  -2   1  333.04 218.168   1
  13   2  -1  299.19 292.029   1
 -13   1   2  682.94 352.111   1
  13   1  -2  441.08 322.897   1
 -13   3   0  17506. 3850.73   1
  13  -3   0  19436. 4277.36   1
 -13   0   3  19458. 4287.28   1
  13   0  -3  22500. 4953.14   1
  13  -3  -2  49278.  10806.   1
 -13  -3   2  61702.  13527.   1
  13  -2  -3  49763.  10913.   1
 -13  -2   3  71227.  15610.   1
  13  -3   2  54746.  11994.   1
  13   3  -2  54062.  11851.   1
 -13   2   3  50711.  11123.   1
  13   2  -3  60743.  13317.   1
  13  -4  -1 198986.  43589.   1
 -13   4  -1 255429.  55936.   1
 -13  -4   1 215081.  47106.   1
  13  -1  -4 230184.  50424.   1
  13  -4   1 233491.  51141.   1
  13   4  -1 190166.  41649.   1
 -13   1   4 221475.  48506.   1
  13   1  -4 266123.  58285.   1
   1   4 -13 159629.  35013.   1
  13  -4  -3 1244.62 555.286   1
  13  -3  -4  737.73 420.019   1
 -13  -3   4 3639.07 881.490   1
  -3  -4  13  263.04 1044.43   1
  -3  -4  13  -12.25 1782.60   1
   4   3 -13 1275.49 1343.84   1
 -13   3   4  854.26 502.700   1
   3   4 -13 -241.65 1489.36   1
   3   4 -13  509.09 1263.37   1
  13  -5   0 597839. 130967.   1
  13   0  -5 585602. 128211.   1
  13  -5  -2  870.91 634.769   1
 -13   5  -2 1762.76 422.004   1
 -13  -5   2  924.48 331.385   1
  -5  -2  13 5247.49 1963.40   1
  -2  -5  13  916.99 1186.20   1
  -2  -5  13 1878.51 1964.50   1
  13  -5   2 1124.46 302.612   1
   5   2 -13 -146.07 1174.07   1
 -13   2   5  442.62 477.676   1
   2   5 -13 1133.28 1540.07   1
   2   5 -13  271.86 1253.44   1
  13  -5  -4  482.64 1085.22   1
  13  -5  -4 1509.20 1097.56   1
 -13  -5   4  732.99 329.401   1
  -5  -4  13  449.01 1283.21   1
  -5  -4  13 -911.59 1966.71   1
  13  -4  -5 1719.76 1366.99   1
 -13  -4   5  333.48 325.543   1
  -4  -5  13 -1017.0 1269.98   1
  -4  -5  13 -800.57 2035.05   1
  13   5  -4  407.45 295.557   1
   5   4 -13  365.12 1699.92   1
   5   4 -13 1592.99 1601.81   1
  13   4  -5  140.12 329.511   1
   4   5 -13 1192.81 1806.86   1
   4   5 -13 6026.89 2011.90   1
  13  -6  -1  69915.  15346.   1
  13  -1  -6  38750.  19061.   1
  13  -1  -6  41792. 9175.38   1
 -13  -1   6  35277. 7753.27   1
 -13   6   1  51824.  25444.   1
  13  -6   1  34814. 7633.11   1
   6   1 -13  29126. 6536.21   1
  13   1  -6  34263. 7536.10   1
   1   6 -13  41837. 9360.59   1
  13  -6  -3 2355.86 1449.67   1
 -13   6  -3 1935.84 447.690   1
  -3 -13   6 1317.38 400.176   1
  13  -3  -6 2610.51 1837.72   1
  13  -3  -6 2530.04 1171.87   1
 -13  -3   6 3219.05 827.471   1
  -3  -6  13 -870.02 1232.50   1
  13  -6   3 1810.16 416.602   1
 -13   3   6 5213.31 2795.72   1
 -13   3   6 2135.37 1375.81   1
   3   6 -13 1158.64 1794.73   1
  13  -6  -5 -595.19 1031.31   1
 -13  -6   5  478.89 297.100   1
  -5 -13   6  608.86 295.006   1
  -6  -5  13 1553.30 1454.08   1
  -6  -5  13 -150.70 1681.18   1
  13  -5  -6   78.01 1135.49   1
  -5  -6  13 1480.54 1526.84   1
  -5  -6  13 1053.58 1505.90   1
  13   6  -5  529.05 289.935   1
   5  13  -6  269.54 249.586   1
   6   5 -13 1522.43 2129.86   1
   6   5 -13  433.80 1309.67   1
 -13   5   6  731.23 1401.17   1
 -13   5   6 1443.06 1246.83   1
  13   5  -6  799.80 362.032   1
   5   6 -13 -839.71 1887.33   1
   5   6 -13 -102.74 1052.25   1
 -13   7   0 2218.06 1427.62   1
  -7   0  13  380.33 1848.75   1
  13  -7   0  902.88 736.522   1
  13  -7   0 2129.86 1037.04   1
   0  13  -7 3080.14 729.797   1
   7   0 -13  276.82 1219.27   1
 -13   0   7  508.76 453.974   1
 -13   0   7   62.90 954.028   1
   0  -7  13 -394.33 1889.54   1
   0  -7  13 1306.36 1297.54   1
  13   0  -7  365.01 434.351   1
   0   7 -13 -2622.6 2049.39   1
   0   7 -13 1384.63 1287.62   1
  13  -7  -2  21100.  10397.   1
  13  -7  -2  14475. 3348.03   1
  -2  13  -7  20229. 4441.62   1
  -7  -2  13  19105. 9462.01   1
  -7  -2  13  14761. 3911.36   1
  13  -2  -7  30239. 6712.59   1
  13  -2  -7  16073. 8014.54   1
  -2   7 -13  10133. 5182.44   1
 -13  -2   7  14850. 3288.50   1
  -2  -7  13  16128. 3967.58   1
 -13   7   2  28167.  13857.   1
 -13   7   2  13483. 3190.38   1
   2 -13   7  18311. 4028.22   1
   2  13  -7  17275. 3803.33   1
   7   2 -13  18135. 4265.24   1
   7   2 -13  12314. 6285.96   1
 -13   2   7  21574.  10657.   1
 -13   2   7  33447. 7430.26   1
   2  -7  13  17385. 4142.87   1
   2   7 -13  14298. 7238.44   1
   2   7 -13  21023. 4820.85   1
 -13   7  -4 6763.30 1487.16   1
  -4  13  -7 8565.75 1892.84   1
  13  -4  -7 7755.48 4061.29   1
 -13  -4   7 5099.76 1177.38   1
  -4  -7  13 5535.22 3001.87   1
  13  -7   4 6176.82 1359.28   1
   4 -13   7 8147.94 1804.65   1
  13   7  -4  10220. 2263.25   1
  -6  13  -7  10302. 2266.56   1
  -7  -6  13  15301. 3577.33   1
  13  -6  -7 5063.38 1538.97   1
  -7 -13   6  12369. 2739.50   1
  -6  -7  13  11884. 2749.42   1
  13   7  -6  10151. 2252.23   1
   7   6 -13  11564. 2716.35   1
   7  13  -6 9873.21 2192.70   1
   6   7 -13 9639.50 2224.67   1
  13  -8  -1  109.23 671.921   1
 -13   8  -1 -719.88 836.291   1
  -1  13  -8  496.31 286.517   1
  -8  -1  13  245.07 1195.02   1
  -8  -1  13   24.45 1867.49   1
 -13  -1   8  348.47 432.477   1
  -1  -8  13 -367.54 1424.32   1
  -1  -8  13 -1650.3 1396.76   1
 -13   8   1  194.47 891.411   1
  13  -8   1  334.36 694.190   1
  13  -8   1  907.40 697.056   1
   8   1 -13 -1912.7 1932.53   1
   8   1 -13 -582.63 1441.96   1
   1  -8  13 2415.39 1565.43   1
   1  -8  13 -206.26 1427.62   1
   1   8 -13 -1875.2 1884.02   1
   1   8 -13 -532.02 904.861   1
 -13   8  -3  13626. 2998.56   1
 -13  -8   3  16029. 3532.13   1
  -8  -3  13 9718.87 4968.58   1
  -8  -3  13  16757. 4295.00   1
  13  -3  -8 5336.78 2991.95   1
  13  -3  -8  16779. 3969.79   1
  -3   8 -13 8861.20 4565.09   1
 -13  -3   8  17143. 3793.40   1
  -3  -8  13  22522. 5094.25   1
   3 -13   8  17098. 3760.33   1
  13   8  -3  12149. 2683.27   1
   3  13  -8  18884. 4152.79   1
   8   3 -13  11939. 3122.03   1
   8   3 -13 4916.76 3213.53   1
 -13   3   8  13791. 3510.08   1
 -13   3   8  14166. 7068.67   1
   3  -8  13  13923. 3469.29   1
   3  -8  13  10416. 5215.52   1
  13   3  -8  15588. 3452.76   1
   3   8 -13  16106. 3648.99   1
 -13  -8   5  35145. 7711.38   1
  -5 -13   8  41429. 9089.40   1
  -8  -5  13  45938.  22599.   1
   5 -13   8  41572. 9111.44   1
  13   8  -5  37085. 8136.91   1
   5  13  -8  41142. 9022.15   1
  13   5  -8  43876. 9633.99   1
  -7  13  -8 4700.69 1049.94   1
 -13  -8   7 5757.90 1321.79   1
  -7 -13   8 5050.15 1149.82   1
  -8  -7  13 3585.05 983.573   1
 -13  -7   8 6955.12 1576.45   1
  -8 -13   7 2784.70 689.118   1
  -7  -8  13 5413.95 1331.72   1
   7 -13   8 5131.73 1138.79   1
   7  13  -8 6041.22 1366.99   1
   8   7 -13 -233.27 2111.12   1
   8   7 -13 3449.45 959.540   1
   8 -13   7 5133.94 1137.69   1
   7   8 -13 4338.00 1088.41   1
   9   0 -13  416.60 1738.51   1
   9   0 -13 -989.31 1434.24   1
   0  -9  13 -2291.9 1564.32   1
 -13   9  -2 1092.27 668.503   1
  -2 -13   9  932.86 331.055   1
  -9  -2  13 2039.46 1638.19   1
  -9  -2  13 -318.27 1967.81   1
  13  -2  -9 -288.94 1584.17   1
  -2   9 -13 1116.74 1098.89   1
 -13  -2   9  204.83 460.588   1
  -2  -9  13    5.09 655.054   1
  13  -9   2  110.68 625.840   1
  13  -9   2 1207.14 853.268   1
   2 -13   9 1712.05 450.777   1
   2  13  -9 1339.43 396.318   1
   9   2 -13  523.10 1989.86   1
   9   2 -13 1469.52 1586.37   1
 -13   2   9 1299.75 1421.01   1
 -13   2   9 1676.77 1609.52   1
  13   2  -9  450.56 420.460   1
   2   9 -13  429.17 497.409   1
  -4  13  -9  50987.  11178.   1
 -13  -9   4  42388. 9295.55   1
  -4 -13   9  57292.  12556.   1
  -9  -4  13  66773.  32797.   1
  13  -4  -9  44041. 9847.86   1
  13  -4  -9  57436.  28222.   1
  -4   9 -13  42542. 9507.21   1
 -13  -4   9  51494.  11300.   1
  -4  -9  13  51174.  11245.   1
  -4  -9  13  40657.  19998.   1
  13  -9   4  48021.  10521.   1
   4 -13   9  55055.  12060.   1
  13   9  -4  50854.  11145.   1
   4  13  -9  56190.  12314.   1
   9   4 -13  84346.  41462.   1
   9   4 -13  81898.  18013.   1
 -13   4   9  93407.  45838.   1
 -13   4   9  32653. 7412.63   1
  13   4  -9  55507.  12182.   1
   4   9 -13  40822.  20163.   1
   4   9 -13  47117.  10347.   1
  -6  13  -9  34969. 7665.08   1
  -6 -13   9  36468. 8001.31   1
  -9  -6  13  36214. 7978.16   1
  -9 -13   6  32642. 7164.58   1
  -6  -9  13  32720. 7202.07   1
  13   9  -6  33128. 7277.03   1
   6  13  -9  35961. 7888.87   1
  13   6  -9  26226. 5776.65   1
   9  13  -6  29258. 6425.97   1
  -8  13  -9 1482.75 399.956   1
 -13  -9   8 1422.11 425.752   1
  -8 -13   9 1156.43 405.468   1
  -9  13  -8  799.80 222.467   1
 -13  -8   9 1578.66 507.110   1
  -9 -13   8  675.23 321.794   1
  -8  -9  13 1266.67 517.583   1
   8 -13   9 1236.91 345.607   1
  13   9  -8  678.65 332.929   1
   8  13  -9  650.64 321.353   1
   9 -13   8  942.23 251.681   1
  13   8  -9 1391.25 515.599   1
   9  13  -8 1139.90 396.097   1
   8   9 -13  252.01 592.657   1
  -1  13 -10  373.94 334.252   1
  -1 -13  10  637.19 307.794   1
 -13  -1  10   29.51 710.285   1
 -10   1  13 1308.56 1511.41   1
  10   1 -13  701.58 1924.81   1
  10   1 -13 -1470.6 1535.66   1
   1 -10  13 1149.82 956.233   1
  13   1 -10  518.24 732.995   1
   1  10 -13 -261.60 418.145   1
  -3  13 -10  15610. 3440.63   1
  -3 -13  10  15577. 3435.12   1
 -10  -3  13  10320. 5269.54   1
 -10  -3  13  13979. 3592.76   1
  -3  10 -13 9029.87 4717.23   1
  -3  10 -13 9323.11 2468.30   1
 -13  -3  10  10155. 2296.33   1
  -3 -10  13  13494. 3019.51   1
   3 -13  10  14034. 3095.58   1
   3  13 -10  14486. 3194.79   1
  10   3 -13  15621. 3729.46   1
  10   3 -13 6892.29 4000.66   1
 -13   3  10  12160. 6093.04   1
   3 -10  13  17870. 4223.34   1
   3 -10  13  11322. 5655.38   1
  13   3 -10  10019. 2254.43   1
   3  10 -13 9786.12 2209.24   1
  -5  13 -10 134274.  29401.   1
  -5 -13  10 116084.  25433.   1
 -10  -5  13 143975.  31573.   1
  -5  10 -13 108136.  53081.   1
  -5  10 -13  98909.  21773.   1
 -13  -5  10 113328.  24848.   1
  -5 -10  13  91798.  20119.   1
  13  10  -5  89020.  19502.   1
   5  13 -10 115312.  25267.   1
  10   5 -13 125344.  27483.   1
   5 -10  13 131959.  64734.   1
   5 -10  13 102976.  22666.   1
  13   5 -10 115974.  25422.   1
   5  10 -13 103958.  22787.   1
 -13 -10   7 1939.14 512.953   1
  -7 -13  10 2995.26 734.648   1
 -10  -7  13 1015.98 572.042   1
  -7  10 -13 2496.97 1933.63   1
  -7  10 -13 -520.34 1446.37   1
 -10 -13   7 1267.78 387.829   1
  -7 -10  13 2441.85 722.742   1
   7 -13  10 1669.05 443.832   1
  13  10  -7 1564.32 464.447   1
  10   7 -13 1687.79 754.822   1
  10 -13   7 2053.80 470.620   1
  13   7 -10 1611.73 540.293   1
   7  10 -13 2384.52 769.925   1
  -9  13 -10  642.93 279.131   1
 -13 -10   9  450.34 314.849   1
 -10  -9  13  -99.66 448.903   1
 -10  13  -9  653.95 265.130   1
 -13  -9  10  961.08 442.068   1
 -10 -13   9  252.01 313.967   1
   9 -13  10  627.82 301.179   1
  13  10  -9  213.76 325.763   1
  10   9 -13  440.19 612.501   1
  10 -13   9  597.07 264.910   1
  13   9 -10  417.26 425.201   1
  10  13  -9  606.77 327.858   1
   0 -13  11  206.59 336.897   1
 -13   0  11 -1317.4 1381.32   1
 -13   0  11 -704.00 1415.50   1
   0 -11  13 -240.11 502.370   1
  13   0 -11 -981.26 1781.50   1
  13   0 -11 -686.58 1481.64   1
  11  -2 -13  703.23 1238.01   1
  -2 -13  11 5104.17 1179.58   1
  13  -2 -11 -753.50 1802.45   1
 -13  -2  11 2007.49 1059.42   1
 -11   2  13  230.96 1394.55   1
   2  13 -11 5098.66 1181.79   1
  11   2 -13  -72.63 1999.78   1
  11   2 -13 4885.90 1836.62   1
   2 -11  13 3636.86 1006.83   1
  13   2 -11 3039.35 921.728   1
   2  11 -13 2789.11 871.899   1
  -4 -13  11 3723.95 921.838   1
 -11  -4  13 2930.21 1242.42   1
  -4  11 -13  -57.42 1063.06   1
 -13  -4  11 1878.51 639.730   1
  -4 -11  13 2990.85 785.580   1
   4 -13  11 1623.85 455.627   1
  11   4 -13 2457.28 1017.64   1
 -13   4  11 -648.00 1416.60   1
   4 -11  13 2111.12 1461.80   1
  13   4 -11 1748.43 609.414   1
   4  11 -13 2774.77 766.949   1
 -13 -11   6 5743.57 1293.13   1
 -11  -6  13 7370.73 3844.11   1
 -11  -6  13 6907.72 1630.47   1
  -6  11 -13 1871.90 1702.13   1
 -13  -6  11 7398.29 1690.00   1
 -11 -13   6 8534.88 1902.77   1
  13  11  -6 5030.31 1150.92   1
   6  13 -11 7875.64 1764.96   1
  11   6 -13 6580.30 1612.83   1
   6 -11  13 2403.26 1558.81   1
  13   6 -11 8606.54 1986.55   1
  11  13  -6 7773.12 1739.61   1
  -8  13 -11  735.42 353.875   1
 -13 -11   8 1117.85 369.639   1
  -8 -13  11 2098.99 583.838   1
 -11  -8  13  922.17 504.574   1
 -11  13  -8  913.02 237.129   1
  -8  11 -13 2208.13 1662.44   1
 -11 -13   8 1361.48 416.381   1
  -8 -11  13 1792.52 585.051   1
  13  11  -8 1141.00 384.411   1
   8  13 -11 2426.41 640.943   1
  11   8 -13  830.56 689.449   1
  11 -13   8  985.34 254.768   1
  11  13  -8  662.88 337.118   1
   8  11 -13 1206.04 545.584   1
 -13 -11  10  917.43 390.695   1
 -10 -13  11  918.09 405.357   1
 -11 -10  13  839.16 471.171   1
 -10  11 -13 -784.70 1411.09   1
 -13 -10  11 1228.09 504.023   1
 -10 -11  13    7.80 418.366   1
  10 -13  11 -113.66 612.501   1
  13  11 -10 1004.63 415.279   1
  10  13 -11  706.76 390.805   1
  11  10 -13  273.84 531.363   1
  13  10 -11 1078.60 539.521   1
  11  13 -10  277.37 322.456   1
  12  -1 -13 1177.38 1800.24   1
  12  -1 -13 -1547.8 1821.19   1
  -1  13 -12 1606.22 583.397   1
 -12  -1  13   75.18 1326.20   1
 -12  -1  13  601.37 1822.29   1
  13  -1 -12 -1133.3 1695.51   1
  13  -1 -12  752.29 1835.52   1
 -13  -1  12 5117.40 2813.36   1
 -13  -1  12 3184.87 1728.58   1
  -1 -12  13 2166.24 632.344   1
 -12   1  13 -1281.0 1917.10   1
 -12   1  13 3017.30 1940.25   1
   1 -13  12 2429.72 648.219   1
 -13   1  12 -872.12 1310.77   1
 -13   1  12 -245.51 1942.45   1
  13   1 -12 2293.02 2190.49   1
  13   1 -12 -185.76 1555.51   1
   1  12 -13 2068.13 764.523   1
  12  -3 -13  322.24 1353.76   1
  13  -3 -12 2585.16 2351.45   1
  13  -3 -12  -24.05 1465.11   1
  -3  12 -13  225.11 1503.69   1
  -3  12 -13 -350.68 592.216   1
 -13  -3  12 1925.92 788.997   1
  -3 -12  13 1000.33 492.668   1
 -12   3  13 1836.62 1602.91   1
   3 -13  12  578.88 379.561   1
   3  13 -12 1132.18 487.708   1
   3 -12  13  454.30 483.849   1
  13   3 -12 1241.32 655.715   1
  -5  13 -12  -86.47 464.557   1
 -13 -12   5  209.13 261.162   1
  -5 -13  12  465.99 432.366   1
  -5  12 -13 -288.06 641.384   1
 -13  -5  12  149.60 485.062   1
  -5 -12  13  415.72 411.862   1
  13  12  -5  304.27 265.130   1
   5  13 -12  170.87 417.484   1
  12   5 -13 -411.86 669.495   1
   5 -12  13 -1553.3 919.964   1
  13   5 -12  363.13 592.657   1
   5  12 -13   49.38 566.310   1
 -13  12  -7 4746.99 1043.54   1
  -7  13 -12 3342.52 834.196   1
 -13 -12   7 5484.51 1245.73   1
  -7 -13  12 7314.51 1673.46   1
  -7  12 -13 3284.09 2191.60   1
  -7  12 -13 2862.97 1728.58   1
 -13  -7  12 4174.84 1035.17   1
 -12 -13   7 3566.31 830.227   1
  -7 -12  13 4609.19 1124.46   1
  13 -12   7 5071.10 1115.64   1
  13  12  -7 5227.64 1192.81   1
   7  13 -12 7724.61 1756.14   1
  12   7 -13 3874.98 1088.85   1
   7 -12  13 4330.28 2467.20   1
  13   7 -12 4923.38 1265.57   1
 -13 -12   9 3367.87 802.667   1
  -9 -13  12 3014.00 789.328   1
  -9  12 -13  16062. 4182.56   1
 -13  -9  12 2364.68 675.338   1
 -12 -13   9 3021.71 734.758   1
  -9 -12  13 2309.56 668.724   1
   9 -13  12 2446.25 1637.08   1
  13  12  -9 3806.63 902.876   1
  12   9 -13 2341.53 786.682   1
  12  13  -9 2832.10 706.096   1
 -11  13 -12 2869.58 2116.63   1
 -13 -12  11 1605.11 512.512   1
 -12 -11  13 1555.51 543.049   1
 -12  13 -11 4197.99 2455.07   1
 -13 -11  12 2563.11 724.616   1
 -12 -13  11 2207.03 605.004   1
  11 -13  12 3408.66 1988.75   1
  13  12 -11 1738.51 556.167   1
  11  13 -12 2275.38 683.276   1
  12 -13  11  442.84 983.904   1
  13  11 -12 2171.75 712.049   1
  12  13 -11 1587.47 507.661   1
  11  12 -13 3044.87 875.867   1
 -13   0  13 120604.  59167.   1
 -13   0  13 120935.  26689.   1
   0 -13  13  82901.  18179.   1
  13   0 -13 117958.  57888.   1
  13  -2 -13  -91.00 1868.59   1
  13  -2 -13 1241.32 2191.60   1
  -2  13 -13 1588.58 678.094   1
 -13  -2  13 1833.31 1627.16   1
 -13  -2  13   91.24 1460.70   1
  -2 -13  13 1128.87 457.832   1
 -13   2  13 -1178.5 1375.81   1
 -13   2  13  236.58 2026.24   1
   2 -13  13  524.86 436.115   1
  13   2 -13 -1190.6 1925.92   1
   2  13 -13 1310.77 592.106   1
  13  -4 -13  922.28 2032.85   1
 -13  -4  13 -796.38 1355.97   1
 -13  -4  13 -138.79 704.773   1
 -13   4  13 1126.67 2233.49   1
   4  13 -13  704.66 565.538   1
  -6  13 -13  -85.89 641.604   1
 -13  -6  13  429.94 544.702   1
 -13 -13   6 -110.79 295.226   1
  13  13  -6  143.42 303.384   1
 -13  13  -8  21155. 4635.65   1
 -13  -8  13  14442. 3219.05   1
 -13 -13   8  16812. 3705.21   1
  -8 -13  13  19634. 4347.92   1
  13 -13   8  24011. 5265.13   1
  13   8 -13  22103. 4913.46   1
  13  13  -8  18377. 4051.37   1
   8  13 -13  28619. 6306.91   1
 -13  13 -10 5771.13 3055.89   1
 -10  13 -13 5326.86 3094.47   1
 -13 -10  13 8979.16 2028.44   1
 -13 -13  10 9376.02 2090.18   1
 -10 -13  13  11686. 2622.64   1
  13 -13  10 8123.68 4073.42   1
  10 -13  13 8897.58 4530.92   1
  13  13 -10  10914. 2431.92   1
  10  13 -13  12579. 2817.77   1
 -13 -12  13  572.15 492.338   1
 -13 -13  12  706.65 447.470   1
 -12 -13  13   14.47 447.800   1
  13  12 -13  892.95 567.412   1
  13  13 -12  853.16 462.683   1
  12  13 -13 -388.93 467.423   1
 -14   0   0 1215.96 366.663   1
  14   0   0 1898.36 473.266   1
  14  -1  -1  251.13 230.845   1
  14  -1   1  156.54 192.261   1
  14   1  -1  313.97 244.185   1
 -14  -2   0  436.78 230.404   1
  14  -2   0 1501.49 398.412   1
  14   2   0  817.66 299.856   1
 -14   0   2 1494.87 427.847   1
  14   0  -2 1121.15 355.749   1
 -14   2  -2  34186. 7495.31   1
 -14  -2   2  43611. 9562.33   1
  14   2  -2  39499. 8661.66   1
 -14   3  -1  60875.  13339.   1
 -14  -3   1  50424.  11057.   1
 -14  -1   3  76827.  16834.   1
  14  -3   1  58252.  12766.   1
  14   3  -1  53026.  11619.   1
  14   1  -3  69904.  15324.   1
 -14  -3   3 1413.29 424.760   1
  -3  -3  14 -381.77 1649.21   1
   3   3 -14   74.40 1218.17   1
 -14   0   4 727152. 159299.   1
 -14  -4   2  646.57 257.854   1
  -2  -4  14 -495.09 1545.58   1
 -14   4   2 -459.04 315.621   1
  14  -4   2  522.98 197.773   1
   4   2 -14 -1888.4 1576.45   1
   2   4 -14 -620.66 1188.40   1
  14  -4  -4   27.35 588.799   1
 -14  -4   4 -230.62 287.840   1
  -4  -4  14 2819.97 1880.72   1
  -4  -4  14 -307.24 1956.78   1
   4   4 -14   67.61 1645.90   1
   4   4 -14 1301.95 1455.19   1
  14  -5  -1 176937.  38761.   1
  14  -1  -5 155330.  34031.   1
 -14  -1   5 136589.  29931.   1
  -1  -5  14 115864.  25466.   1
 -14   5   1 189946.  41594.   1
  14  -5   1 180134.  39444.   1
 -14   5  -3  371.51 160.952   1
 -14  -5   3  422.00 272.847   1
  -5  -3  14 -1145.4 1972.22   1
  14  -3  -5 1041.01 553.742   1
 -14  -3   5 1174.07 424.429   1
  -3  -5  14 2150.81 1610.63   1
  -3  -5  14   78.55 1923.71   1
 -14   5   3  736.08 822.731   1
   5   3 -14 -1694.4 1910.48   1
   5   3 -14  514.94 1471.72   1
 -14   3   5 1072.54 679.197   1
   3   5 -14 1497.08 1842.13   1
   3   5 -14 -117.41 1479.44   1
  14  -5  -5 2873.99 1806.86   1
  14  -5  -5  707.75 1152.02   1
 -14  -5   5  867.60 394.002   1
  -5  -5  14 2210.34 1680.08   1
  -5  -5  14 1890.64 2138.68   1
   5   5 -14  353.21 1968.91   1
   5   5 -14 1238.01 1531.25   1
 -14   6   0  11421. 2526.73   1
  14  -6   0  10620. 2344.83   1
  14   0  -6 9126.88 2051.59   1
  14  -6  -2  42222.  20725.   1
  14  -6  -2  55154.  12127.   1
 -14   6  -2  32984. 7230.73   1
 -14  -6   2  25157. 5525.29   1
  14  -2  -6  33998. 7474.36   1
 -14  -2   6  29291. 6436.99   1
 -14   6   2  54658.  26833.   1
  14  -6   2  32279. 7075.29   1
 -14   2   6  39676. 8722.29   1
   2   6 -14  42134. 9372.72   1
  14  -6  -4  787.23 987.652   1
  14  -6  -4 -738.62 1117.85   1
 -14  -6   4  232.94 298.423   1
  -6  -4  14 1912.69 1540.07   1
  -6  -4  14 3408.66 2387.83   1
  14  -4  -6 3119.83 2069.23   1
 -14  -4   6 1498.18 495.204   1
  -4  -6  14  787.45 2205.93   1
  -4  -6  14  390.14 1373.61   1
 -14   6   4  235.37 1125.56   1
  14   6  -4  563.11 296.659   1
   6   4 -14  385.95 2001.98   1
   6   4 -14 2259.95 1708.74   1
  14   4  -6  712.60 373.718   1
   4   6 -14 -1201.6 1913.79   1
  14  -6  -6 3211.33 1945.76   1
  14  -6  -6 1574.25 1171.87   1
 -14  -6   6 3259.84 788.556   1
  -6  -6  14 3880.49 2342.63   1
  -6  -6  14 3668.83 2014.11   1
 -14   6   6 2117.74 1551.10   1
  14   6  -6 3177.15 757.027   1
   6   6 -14 3182.67 2664.53   1
   6   6 -14 3964.28 1473.93   1
  14  -7  -1 1060.74 871.678   1
  14  -7  -1 2462.79 1084.55   1
 -14   7  -1  502.37 298.423   1
  -1  14  -7  189.50 214.199   1
  -1 -14   7  458.05 266.674   1
  -7  -1  14 -832.76 1459.59   1
  -1   7 -14 -946.53 1256.75   1
 -14  -1   7  530.37 370.080   1
  -1  -7  14 -1425.4 1316.28   1
  -1  -7  14 1554.40 1975.52   1
 -14   7   1 3440.63 2068.13   1
  14  -7   1   48.94 227.318   1
   1 -14   7  793.19 288.281   1
   7   1 -14  709.07 1134.38   1
 -14   1   7  339.87 482.967   1
   1  -7  14 1215.96 1250.14   1
   1  -7  14 1559.91 1648.11   1
   1   7 -14 1887.33 1899.46   1
   1   7 -14 1314.08 1456.29   1
  14  -7  -3  26315. 5897.91   1
 -14   7  -3  29324. 6429.27   1
 -14  -7   3  20483. 4505.56   1
  -3 -14   7  24121. 5299.30   1
  14  -3  -7  49101.  24143.   1
 -14  -3   7  23724. 5221.03   1
  -3  -7  14  37835. 8560.24   1
 -14   7   3  53621.  26326.   1
 -14   7   3  25400. 5733.65   1
  14  -7   3  24044. 5270.64   1
   3 -14   7  21111. 4634.54   1
  14   7  -3  20836. 4581.63   1
   3  14  -7  23845. 5237.56   1
 -14   3   7  42586.  20935.   1
   3  -7  14  14375. 3581.74   1
  14   3  -7  21971. 4846.21   1
   3   7 -14  41175.  20317.   1
   3   7 -14  41759. 9286.73   1
 -14  -7   5 3305.03 786.351   1
  -5 -14   7 3941.13 913.239   1
  -7  -5  14 1325.10 1542.28   1
  -7  -5  14 3097.78 2052.69   1
 -14  -5   7 5809.72 1339.43   1
  -5  -7  14 3991.84 2436.33   1
  -5  -7  14 2784.70 1611.73   1
 -14   7   5  468.64 1201.63   1
   5  14  -7 4816.44 1103.52   1
   7   5 -14 -1125.6 2301.84   1
   7   5 -14 2250.03 1510.31   1
 -14   5   7 6236.35 3281.88   1
 -14   5   7 8650.64 2520.12   1
   5   7 -14 3878.29 2795.72   1
 -14  -7   7 7790.75 1742.92   1
  -7 -14   7 7084.11 1587.47   1
  -7  -7  14 9180.90 2323.89   1
  14   7  -7 7641.93 1712.05   1
   7  14  -7 8333.14 1860.87   1
   7   7 -14 5652.07 1461.80   1
 -14   8   0 -273.73 863.300   1
  -8   0  14 -1123.4 1522.43   1
  14  -8   0 -377.14 676.000   1
  14  -8   0  716.35 789.879   1
   0 -14   8  548.45 255.539   1
   8   0 -14   79.27 1208.24   1
   0  -8  14 -908.94 1242.42   1
   0  -8  14   11.15 1758.35   1
   0   8 -14 -1305.3 1810.16   1
  14  -8  -2 -489.36 932.642   1
  -2  14  -8 1430.93 373.387   1
  -2 -14   8 2297.43 568.514   1
  -8  -2  14 2634.77 1763.86   1
  -8  -2  14  753.50 2104.51   1
  14  -2  -8 2747.21 1990.96   1
  14  -2  -8  541.28 949.178   1
  -2   8 -14 2496.97 1966.71   1
 -14  -2   8 1093.15 419.358   1
  -2  -8  14 2708.63 1773.78   1
  -2  -8  14 3601.58 2213.65   1
 -14   8   2  -26.58 894.719   1
  14  -8   2  646.57 297.100   1
   2 -14   8 1809.06 450.556   1
   2  14  -8 2004.19 501.157   1
   8   2 -14 -497.85 1400.06   1
   8   2 -14 2527.83 2215.85   1
 -14   2   8 1284.31 1132.18   1
 -14   2   8  979.05 1325.10   1
   2  -8  14 1575.35 1641.49   1
   2  -8  14 1233.60 1166.35   1
  14   2  -8  906.62 436.666   1
   2   8 -14 -6664.1 3723.95   1
   2   8 -14 1147.61 1141.00   1
 -14   8  -4 133723.  29291.   1
  -4  14  -8  92867.  20340.   1
  -4 -14   8  93948.  20582.   1
  -8  -4  14 149487.  73377.   1
  14  -4  -8 153235.  75207.   1
  14  -4  -8 179473.  39367.   1
 -14  -4   8 124793.  27351.   1
  14  -8   4 109095.  23889.   1
   4 -14   8  99570.  21817.   1
   4  14  -8  94785.  20769.   1
  14   4  -8 135487.  29677.   1
   4   8 -14 153346.  33613.   1
 -14  -8   6  13780. 3041.56   1
  -6 -14   8  13593. 3000.77   1
 -14  -6   8  15191. 3364.56   1
  -6  -8  14 4534.23 2545.47   1
  -6  -8  14  12082. 2771.47   1
  14   8  -6  13890. 3064.71   1
   6  14  -8  13262. 2926.91   1
   8   6 -14  12347. 2892.73   1
  14   6  -8  14508. 3219.05   1
 -14  -8   8  678.54 351.560   1
  -8 -14   8  298.75 265.241   1
  -8  -8  14 -593.10 1362.58   1
  -8  -8  14  540.73 573.034   1
   8 -14   8  492.12 174.181   1
  14   8  -8  595.30 350.237   1
   8  14  -8  418.37 280.013   1
   8   8 -14  627.05 2240.10   1
   8   8 -14  -91.64 719.435   1
   9  -1 -14 -438.43 1290.93   1
 -14   9  -1  297.10 776.871   1
  -1  14  -9  872.78 298.754   1
  -1 -14   9   30.33 232.058   1
  -9  -1  14  328.30 1260.06   1
  -9  -1  14 -326.09 2011.90   1
  -1  -9  14 -743.91 1225.88   1
  -1  -9  14 1136.59 1341.64   1
  -9   1  14 -1761.7 1775.99   1
  14  -9   1  122.81 742.916   1
  14  -9   1   45.31 801.013   1
   1 -14   9  600.70 261.713   1
   9   1 -14 -2073.6 2154.12   1
   9   1 -14 -663.65 1583.07   1
 -14   1   9  712.71 1233.60   1
 -14   1   9  614.15 910.373   1
   1  -9  14  633.45 1243.52   1
  14   1  -9  -46.49 1513.61   1
  14   1  -9   33.57 416.492   1
   1   9 -14  664.42 1758.35   1
  -3  14  -9  19138. 4202.40   1
  -3 -14   9  17396. 3827.58   1
  -9  -3  14  14618. 7332.15   1
  -9  -3  14  19061. 4781.17   1
  14  -3  -9  15136. 7555.94   1
  14  -3  -9  18675. 4512.18   1
  -3   9 -14  13438. 3417.48   1
 -14  -3   9  15268. 3380.00   1
  -3  -9  14  22214. 4981.81   1
   3 -14   9  18950. 4160.51   1
   9   3 -14  14398. 7426.96   1
   9   3 -14  31727. 7219.70   1
 -14   3   9  20108. 9962.51   1
 -14   3   9  22092. 5226.54   1
   3  -9  14  13207. 3482.52   1
  14   3  -9  16691. 3698.60   1
 -14   9  -5  35167. 7705.87   1
  -5  14  -9  38915. 8527.17   1
 -14  -9   5  28883. 6341.08   1
  -5 -14   9  32896. 7218.60   1
  -9  -5  14  32444.  15996.   1
  -9  -5  14  61504.  13604.   1
  14  -5  -9  23051.  11465.   1
 -14  -5   9  36854. 8092.81   1
  14  -9   5  31716. 6947.41   1
   5 -14   9  34230. 7506.33   1
  14   9  -5  28023. 6152.57   1
  14   5  -9  36225. 7959.42   1
   5   9 -14  27990. 6171.31   1
  -7  14  -9 1299.75 341.087   1
 -14  -9   7 1062.29 375.813   1
 -14  -7   9  619.56 414.838   1
  -9 -14   7  802.12 337.118   1
  -7  -9  14  230.62 548.892   1
   7 -14   9 1426.52 378.789   1
  14   9  -7  712.82 333.259   1
   9   7 -14   -3.68 828.574   1
  14   7  -9 1327.31 508.984   1
   9  14  -7  747.44 336.016   1
   7   9 -14  775.88 693.859   1
  -9  14  -9  474.04 205.269   1
 -14  -9   9  496.31 322.456   1
   9 -14   9  515.16 198.765   1
  14   9  -9  508.32 358.725   1
   9  14  -9  596.30 384.522   1
   9   9 -14 1183.99 723.073   1
 -10   0  14 -554.18 1243.52   1
 -10   0  14 -225.55 1929.22   1
   0 -14  10  450.56 248.153   1
  10   0 -14 3804.43 2695.40   1
  10   0 -14 -747.00 1438.65   1
   0 -10  14  489.91 1167.46   1
  14   0 -10   81.39 1088.63   1
   0  10 -14 -542.72 1041.01   1
  -2  14 -10  953.92 313.967   1
 -10  -2  14 3442.84 2149.71   1
 -10  -2  14 1573.14 1988.75   1
  -2  10 -14 1740.71 1867.49   1
  -2  10 -14 -362.47 1576.45   1
 -14  -2  10  994.71 1229.19   1
 -14  -2  10 1118.95 529.158   1
  -2 -10  14  444.82 564.656   1
   2 -14  10 1043.10 333.480   1
  10   2 -14 -1780.4 2247.82   1
  10   2 -14 -578.11 1667.95   1
 -14   2  10 1054.35 1648.11   1
 -14   2  10  471.72 1314.08   1
   2 -10  14 2616.03 1661.34   1
   2 -10  14 1311.87 1618.34   1
  14   2 -10 1103.52 554.845   1
 -14  10  -4 5401.82 2731.78   1
  -4  14 -10  10002. 2209.24   1
 -14 -10   4 6812.91 1530.15   1
 -10  -4  14 9076.17 4709.51   1
 -10  -4  14 7787.45 2472.71   1
  14  -4 -10 1427.62 1707.64   1
  -4  10 -14 6413.84 2301.84   1
  -4  10 -14 7679.41 4130.74   1
 -14  -4  10 6270.53 1452.98   1
  -4 -10  14 5790.98 1398.96   1
  -4 -10  14 1893.95 1540.07   1
   4 -14  10  10634. 2350.34   1
  14  10  -4 6351.00 1428.73   1
   4  14 -10 8679.30 1931.43   1
  10   4 -14 2245.62 2544.37   1
  10   4 -14 5172.52 2171.75   1
 -14   4  10 1131.08 1609.52   1
 -14   4  10 6931.97 3636.86   1
   4 -10  14 7322.23 3743.80   1
   4 -10  14 6690.55 2221.36   1
  14   4 -10 5208.90 1250.14   1
   4  10 -14 4909.05 1198.32   1
  -6  14 -10 3222.35 761.768   1
 -14 -10   6 2829.89 690.662   1
  -6 -14  10 3111.01 747.436   1
 -10  -6  14 1058.76 852.496   1
  -6  10 -14 1513.61 1719.76   1
  -6  10 -14 1282.11 1726.38   1
 -14  -6  10 2495.86 670.598   1
 -10 -14   6 1325.10 396.428   1
  -6 -10  14 3111.01 852.827   1
  14  10  -6 2116.63 550.655   1
   6  14 -10 2225.77 571.491   1
  10   6 -14 1122.26 802.777   1
   6 -10  14  424.10 1802.45   1
  14   6 -10 2396.65 691.213   1
  -8  14 -10  377.14 251.130   1
 -14 -10   8 -162.16 269.099   1
  -8 -14  10  371.84 309.778   1
 -10  -8  14 -173.08 526.843   1
 -10  14  -8  114.98 139.676   1
  -8  10 -14 -420.57 1675.67   1
 -14  -8  10 -196.12 939.477   1
 -14  -8  10 -455.52 395.987   1
 -10 -14   8 -273.29 268.548   1
  -8 -10  14  108.82 480.873   1
   8 -14  10  156.10 289.383   1
  14  10  -8   48.98 287.509   1
   8  14 -10  162.16 287.179   1
  10   8 -14  236.25 692.977   1
  10 -14   8  257.52 142.762   1
  14   8 -10  471.39 460.147   1
  10  14  -8   29.78 282.438   1
   8  10 -14  103.66 619.997   1
 -10 -14  10   78.16 316.172   1
 -10 -10  14  569.95 503.362   1
  10 -14  10  782.93 300.077   1
  14  10 -10  347.70 359.938   1
  10  14 -10  617.68 337.779   1
  10  10 -14 1647.01 749.861   1
 -11  -1  14 -319.81 1950.17   1
  14  -1 -11 -1024.4 1677.87   1
  -1 -11  14 -114.21 523.426   1
   1 -14  11  439.31 309.999   1
   1  14 -11  579.87 329.291   1
  11   1 -14 -945.87 2084.66   1
  11   1 -14 -345.83 1628.26   1
   1 -11  14  200.42 681.071   1
  14   1 -11 -415.28 978.722   1
   1  11 -14 -458.71 1590.78   1
   1  11 -14 -633.67 665.306   1
  -3  14 -11 1436.44 442.178   1
  -3 -14  11 1587.47 463.565   1
 -11  -3  14   40.04 1357.07   1
 -11  -3  14 -199.54 1738.51   1
  -3  11 -14 1654.72 1932.53   1
 -14  -3  11  871.46 1292.03   1
 -14  -3  11  192.92 492.668   1
  -3 -11  14  547.02 526.953   1
   3 -14  11 1030.98 390.585   1
   3  14 -11 2176.16 582.184   1
  11   3 -14 2144.19 2399.95   1
  11   3 -14  528.94 1903.87   1
 -14   3  11 -1197.2 1305.26   1
 -14   3  11 -610.85 1759.45   1
   3 -11  14 1930.33 1483.85   1
  14   3 -11  702.79 550.766   1
  -5  14 -11 2114.43 581.192   1
 -14 -11   5 2775.88 675.338   1
  -5 -14  11 2397.75 629.037   1
 -11  -5  14  763.64 1143.20   1
  14  -5 -11  807.96 1507.00   1
  -5  11 -14  924.70 1987.65   1
 -14  -5  11 1026.79 473.156   1
  -5 -11  14 1369.20 551.537   1
  14 -11   5  422.22 384.963   1
  14  11  -5 4042.55 949.068   1
   5  14 -11 3289.60 793.848   1
  11   5 -14 1143.20 1210.45   1
 -14   5  11  308.90 1769.37   1
   5 -11  14  628.49 1155.33   1
  14   5 -11  709.73 531.584   1
   5  11 -14 1512.51 688.457   1
 -14 -11   7  914.12 331.055   1
  -7 -14  11 1311.87 415.059   1
 -11  -7  14  462.13 579.428   1
 -14  -7  11 1170.76 463.344   1
 -11 -14   7  536.54 293.132   1
  -7 -11  14 1426.52 614.595   1
  14  11  -7  997.68 363.025   1
   7  14 -11  739.28 335.354   1
  11   7 -14  259.84 753.389   1
   7 -11  14 1332.82 1203.84   1
  14   7 -11  978.28 521.111   1
  11  14  -7 1304.15 427.516   1
   7  11 -14 1578.66 701.796   1
  -9  14 -11  323.01 293.903   1
  -9 -14  11  574.69 324.991   1
 -11  -9  14 -313.09 475.250   1
 -11  14  -9  467.09 183.552   1
  -9  11 -14 1257.85 1618.34   1
 -14  -9  11  318.82 431.264   1
   9 -14  11  660.68 338.551   1
  14  11  -9 -260.61 303.715   1
  11   9 -14  545.36 717.120   1
  11 -14   9  326.09 203.395   1
  14   9 -11  630.14 516.040   1
  11  14  -9  288.06 340.866   1
   9  11 -14  126.01 662.550   1
 -11 -14  11  476.02 380.112   1
 -11 -11  14 -156.76 449.233   1
  14  11 -11 1149.82 532.466   1
  11  11 -14  704.33 574.688   1
   0 -14  12 1113.44 459.045   1
 -14   0  12 -1803.5 1519.13   1
 -14   0  12 3589.46 1863.08   1
   0 -12  14  282.88 532.025   1
  14   0 -12  447.03 1695.51   1
  14   0 -12 -849.63 1895.05   1
  -2 -14  12 1301.95 480.983   1
  14  -2 -12  819.42 1736.30   1
  14  -2 -12  170.98 2145.30   1
  -2  12 -14  356.19 711.828   1
 -14  -2  12 1093.15 1091.50   1
 -12   2  14 -1015.0 1752.84   1
   2  14 -12 1392.35 488.590   1
  12   2 -14 -3430.7 2887.22   1
  12   2 -14  199.21 2117.74   1
  14   2 -12   70.98 1043.10   1
   2  12 -14    3.58 629.037   1
  -4 -14  12  515.49 370.411   1
  -4  12 -14 -142.43 1059.75   1
 -14  -4  12 -307.68 537.537   1
  -4 -12  14  397.97 448.462   1
   4 -14  12  190.72 313.526   1
   4  14 -12 -157.31 432.697   1
  12   4 -14 1598.50 2069.23   1
  12   4 -14  377.14 1575.35   1
 -14   4  12 -301.51 1788.11   1
  14   4 -12 -240.99 578.877   1
   4  12 -14 -242.97 694.961   1
 -12  -6  14  -39.93 628.486   1
  -6  12 -14 -454.52 1660.23   1
  -6  12 -14 1366.99 1932.53   1
 -14  -6  12  986.99 487.708   1
 -12 -14   6  400.29 283.100   1
  -6 -12  14   95.52 489.141   1
   6 -14  12  245.40 377.907   1
  14  12  -6  548.78 318.156   1
  12   6 -14 -578.66 2436.33   1
  12   6 -14    1.41 735.310   1
  14   6 -12  751.74 646.345   1
  12  14  -6  262.37 305.479   1
  -8  14 -12 1871.90 541.175   1
  -8 -14  12 1218.17 488.920   1
 -12  14  -8 1732.99 399.735   1
  -8  12 -14 -998.24 2084.66   1
 -14  -8  12 1284.31 504.905   1
  -8 -12  14  958.11 493.881   1
   8  14 -12 1737.40 532.245   1
  12   8 -14 1427.62 758.460   1
  12 -14   8 1922.61 438.760   1
  14   8 -12 1921.51 663.763   1
   8  12 -14  459.60 514.717   1
 -10  14 -12  -74.10 440.745   1
 -14 -12  10  689.34 324.440   1
 -10 -14  12 1351.56 475.471   1
 -12 -14  10  957.00 370.742   1
 -10 -12  14 2456.18 697.276   1
  10  14 -12 2139.78 610.075   1
  12  10 -14  371.40 604.563   1
  14  10 -12 1505.90 616.800   1
  12  14 -10  508.65 366.442   1
 -12  14 -12 -1081.9 1583.07   1
 -14 -12  12  445.04 413.184   1
 -12 -14  12  479.55 390.034   1
  12 -14  12 1354.87 1290.93   1
  12  14 -12  -65.77 392.680   1
  13  -1 -14 5652.07 3632.45   1
  13  -1 -14  111.67 2768.16   1
  -1  14 -13 -619.89 534.670   1
 -13  -1  14 -3384.4 2237.90   1
 -13  -1  14 3228.97 2733.98   1
  14  -1 -13 -4287.3 2887.22   1
  14  -1 -13 -3319.4 2859.66   1
 -14  -1  13 -1410.0 1600.70   1
 -14  -1  13 1319.59 2183.88   1
  -1 -13  14  618.89 503.472   1
 -13   1  14  504.91 1404.47   1
 -13   1  14 1419.91 2883.91   1
   1 -14  13  407.01 380.884   1
   1  14 -13 1594.09 609.855   1
  13   1 -14 -5062.3 3198.10   1
 -14   1  13 5226.54 3038.25   1
 -14   1  13 -3075.7 2065.92   1
  14   1 -13 2376.80 2254.43   1
  14   1 -13  456.62 2117.74   1
   1  13 -14  654.83 644.140   1
  13  -3 -14  -39.86 1870.80   1
 -13  -3  14 -1413.3 1701.02   1
 -13  -3  14   56.17 1626.06   1
  14  -3 -13  987.54 2136.48   1
  14  -3 -13  749.09 2631.46   1
  -3  13 -14 -1167.5 706.757   1
 -14  -3  13  150.15 1112.33   1
  -3 -13  14   74.95 473.927   1
 -13   3  14  130.31 1887.33   1
   3 -14  13  492.56 417.484   1
   3  14 -13  394.00 468.415   1
   3 -13  14  480.65 1368.09   1
   3 -13  14  318.71 541.726   1
  14   3 -13  572.59 846.323   1
  -5  14 -13  882.81 538.419   1
  -5 -14  13  280.78 427.075   1
 -13  -5  14 3582.84 1018.63   1
 -14  -5  13  -86.11 534.450   1
  -5 -13  14 -381.43 418.145   1
   5 -14  13 -140.23 439.753   1
   5  14 -13  188.29 425.091   1
   5 -13  14  562.12 685.921   1
  14   5 -13 -720.54 671.811   1
   5  13 -14  -93.53 567.743   1
 -14 -13   7 -380.55 271.524   1
  -7 -14  13 1284.31 525.410   1
 -13  -7  14 -144.53 495.314   1
  -7  13 -14 -4407.4 2866.27   1
  -7  13 -14 -1034.5 1384.63   1
 -14  -7  13  394.00 447.690   1
 -13 -14   7  131.19 279.462   1
  -7 -13  14  494.65 434.461   1
   7  14 -13 1658.03 579.539   1
   7 -13  14 1553.30 1488.26   1
  14   7 -13  703.45 646.786   1
  13  14  -7  398.74 320.031   1
 -14  13  -9  12016. 5971.77   1
 -14 -13   9  15599. 3441.73   1
  -9 -14  13  17793. 3937.82   1
 -13  -9  14  15368. 3426.30   1
 -13  14  -9  19557. 4290.59   1
  -9  13 -14 7300.18 4042.55   1
 -14  -9  13  14805. 3290.70   1
  -9 -13  14  11983. 2689.89   1
  14  13  -9  12292. 2728.47   1
   9  14 -13  18962. 4197.99   1
  13   9 -14  20417. 4556.27   1
  13 -14   9  18708. 4106.49   1
  14   9 -13  19612. 4354.53   1
  13  14  -9  13901. 3073.53   1
 -14  13 -11 1255.65 1284.31   1
 -11  14 -13 1165.25 1764.96   1
 -14 -13  11 1002.20 422.555   1
 -11 -14  13  332.16 454.194   1
 -13 -11  14  717.56 421.342   1
 -13  14 -11 -134.49 1282.11   1
 -11  13 -14  505.24 1519.13   1
  11 -14  13 -1342.7 1396.76   1
  14  13 -11 2584.06 684.819   1
  13 -14  11 1191.71 1101.53   1
  14  11 -13  992.61 577.003   1
  13  14 -11  931.10 411.200   1
  11  13 -14  778.63 578.436   1
 -13  14 -13 -315.18 1357.07   1
 -13  14 -13  825.71 2928.01   1
 -14 -13  13 -199.87 376.254   1
 -13 -13  14  402.27 455.848   1
  13  14 -13 -299.97 375.372   1
  13  13 -14 -571.49 544.702   1
 -14   0  14 123360.  60578.   1
 -14   0  14  62672.  14166.   1
   0 -14  14  53357.  11719.   1
  14   0 -14  81226.  39929.   1
  14   0 -14  63080.  14254.   1
  14  -2 -14 -2153.0 2573.03   1
  14  -2 -14 -703.23 2780.29   1
  -2  14 -14  479.33 613.603   1
 -14  -2  14 3238.89 2308.45   1
 -14  -2  14 1215.96 2041.67   1
  -2 -14  14 -191.93 394.443   1
 -14   2  14 -1597.4 1750.63   1
 -14   2  14  797.93 2331.60   1
   2 -14  14  701.47 453.202   1
  14   2 -14 -925.48 2366.88   1
  14   2 -14 -285.19 1843.23   1
   2  14 -14 -226.44 550.986   1
  14  -4 -14 1950.17 1936.94   1
 -14  -4  14  -59.30 792.415   1
  -4 -14  14  223.57 453.753   1
 -14   4  14 -574.36 2183.88   1
  14   4 -14 -1105.7 2611.62   1
  14   4 -14  563.77 922.169   1
  -6  14 -14  249.26 618.564   1
 -14  -6  14  440.63 555.286   1
 -14 -14   6  462.46 298.313   1
  -6 -14  14  272.96 405.247   1
  14   6 -14  354.21 758.791   1
  14  14  -6 -210.89 271.194   1
  14 -14   8 9941.56 2181.68   1
  14   8 -14 7138.12 1732.99   1
   8  14 -14  14850. 3311.65   1
 -10  14 -14 2481.53 2353.65   1
 -14 -14  10 5710.50 1303.05   1
 -10 -14  14 -2564.2 1852.05   1
 -10 -14  14 4577.22 1137.69   1
  14 -14  10 1595.19 1110.13   1
  10 -14  14 1341.64 1472.82   1
  14  10 -14 3703.01 980.927   1
  14  14 -10 6152.57 1415.50   1
  10  14 -14 4713.92 1174.07   1
 -14  14 -12 1025.35 1191.71   1
 -14  14 -12 2520.12 2628.15   1
 -14 -14  12  228.86 315.621   1
 -12 -14  14  605.00 466.100   1
  12 -14  14 -1640.4 1322.90   1
  14  12 -14  678.20 587.807   1
  14  14 -12  280.89 349.796   1
  12  14 -14  439.86 471.612   1
 -14  14 -14  368.65 1470.62   1
 -14 -14  14 -589.24 449.895   1
  14  14 -14 -199.98 499.283   1
 -15  -1   0  313.42 219.931   1
  15   1   0  -31.84 201.631   1
 -15   0   1 -183.33 231.837   1
  15   0   1  -23.34 191.930   1
  15   0  -1   13.07 216.404   1
  15  -2  -1 2143.09 553.301   1
 -15   2  -1 1109.03 306.691   1
 -15  -2   1  865.28 298.313   1
  15  -1  -2 1958.99 541.505   1
 -15  -1   2 1635.98 459.376   1
  15  -2   1  593.21 222.687   1
  15   2  -1  813.47 292.139   1
 -15   1   2 1316.28 408.003   1
  15   1  -2 1254.55 362.473   1
 -15   3   0 5836.18 1307.46   1
  15  -3   0 4743.68 1066.03   1
 -15   0   3 6120.60 1387.94   1
  15   0  -3 4771.24 1096.46   1
  15  -3  -2  350.02 254.547   1
 -15  -3   2  395.33 270.422   1
  15  -2  -3  207.14 243.633   1
 -15  -2   3 -270.75 299.746   1
  15  -3   2  319.48 187.961   1
  15   3  -2   88.65 239.444   1
  15  -4  -1 5951.93 1332.82   1
 -15   4  -1  10782. 2374.60   1
 -15  -4   1 6018.07 1350.46   1
  15  -1  -4 7844.77 1751.73   1
 -15   4   1 6057.76 1361.48   1
  15  -4   1 9724.39 2143.09   1
  15  -4  -3 -237.02 317.275   1
 -15   4  -3  142.76 143.424   1
  -4  -3  15  535.33 1515.82   1
  15  -3  -4 -294.68 312.534   1
 -15  -3   4 -208.47 282.659   1
  -3  -4  15 -225.88 1464.00   1
 -15   4   3  199.54 328.740   1
   4   3 -15 -790.32 1186.20   1
 -15   3   4   86.61 368.426   1
  15   3  -4  147.28 268.768   1
   3   4 -15 -351.01 1142.10   1
 -15   5   0 3266.45 757.909   1
  15  -5   0 3044.87 701.796   1
  15   0  -5 1767.17 504.244   1
   0   5 -15   61.68 1304.15   1
  15  -5  -2  17738. 3905.85   1
 -15   5  -2  18289. 4014.99   1
 -15  -5   2  12920. 2848.64   1
  15  -2  -5  17650. 3889.31   1
 -15  -2   5  21277. 4684.15   1
 -15   5   2  15776. 7828.24   1
  15  -5   2  17881. 3924.59   1
 -15   2   5  19116. 4213.42   1
  15   2  -5  21585. 4752.50   1
 -15  -5   4  222.03 272.847   1
  -5  -4  15  -22.63 1324.00   1
  -5  -4  15  102.83 2126.55   1
 -15  -4   5 -210.45 319.590   1
  -4  -5  15  682.94 1275.49   1
  -4  -5  15  452.32 1964.50   1
 -15   5   4  559.25 937.051   1
  15   5  -4   82.09 274.501   1
   5   4 -15 1918.20 2119.94   1
   5   4 -15 -116.30 1542.28   1
 -15   6  -1  514.50 234.153   1
  15  -1  -6 1996.47 589.571   1
  -1   6 -15 -1612.8 1127.77   1
  -1  -6  15  396.43 2094.58   1
 -15   6   1  353.10 339.543   1
  15  -6   1  217.40 193.363   1
   6   1 -15   68.49 1556.61   1
 -15   1   6  357.95 392.900   1
   1  -6  15 -105.19 1534.56   1
  15   1  -6  391.91 344.394   1
   1   6 -15 -2003.1 1858.67   1
   1   6 -15 -135.16 1352.66   1
  15  -6  -3 5419.46 2805.64   1
  15  -6  -3 3231.17 1271.08   1
 -15   6  -3 3549.77 791.312   1
 -15  -6   3 2354.75 587.696   1
  -6  -3  15 5772.24 3124.24   1
  -6  -3  15   94.80 2171.75   1
  15  -3  -6 3102.19 1078.82   1
 -15  -3   6 3677.65 897.364   1
 -15   6   3 7768.71 3979.71   1
  15  -6   3 3536.54 792.194   1
   6   3 -15 1877.41 2296.33   1
   6   3 -15 2154.12 1667.95   1
   3   6 -15 1181.79 1489.36   1
  15  -6  -5 -1621.6 1286.52   1
  15  -6  -5 -821.85 1182.89   1
 -15  -6   5   95.79 261.382   1
  -6  -5  15 -1019.4 1434.24   1
  -6  -5  15 -250.58 2372.39   1
  15  -5  -6 -1017.6 1475.03   1
  15  -5  -6 -387.50 1037.59   1
 -15  -5   6  134.83 301.179   1
  -5  -6  15 -2092.4 1750.63   1
  -5  -6  15 -1115.6 2113.33   1
  15   6  -5  550.55 293.242   1
   6   5 -15 -1002.0 1690.00   1
   6   5 -15 -1265.6 2296.33   1
 -15   5   6 -983.90 1525.74   1
 -15   5   6 -600.59 1307.46   1
  15   5  -6  201.63 303.274   1
   5   6 -15 -291.26 2067.02   1
 -15   0   7  639.95 407.011   1
   0  -7  15 1963.40 1524.64   1
   0  -7  15 -1466.2 2020.72   1
   0   7 -15 -2086.9 1868.59   1
   0   7 -15  255.87 1370.30   1
  15  -7  -2 1172.97 1033.51   1
  15  -7  -2 2110.02 1209.35   1
 -15   7  -2  134.49 179.252   1
  15  -2  -7  -14.20 582.846   1
  -2  -7  15  664.98 1217.06   1
  -2  -7  15 1097.23 2179.47   1
 -15   7   2 -1755.0 1464.00   1
  15  -7   2  539.96 215.852   1
 -15   2   7  167.57 689.890   1
   2  -7  15  459.38 1478.34   1
   2   7 -15  726.05 1943.55   1
   2   7 -15 2315.07 1670.16   1
 -15   7  -4  14673. 3219.05   1
 -15  -7   4  16228. 3571.82   1
  -4 -15   7  14651. 3228.97   1
  -7  -4  15  15136. 7547.12   1
  -7  -4  15  17319. 4554.07   1
 -15  -4   7  16900. 3738.28   1
 -15   7   4  29434.  14497.   1
 -15   7   4  12027. 3010.69   1
  15  -7   4  12281. 2694.30   1
  15   7  -4  17572. 3866.16   1
   4  15  -7  13251. 2930.21   1
   7   4 -15  20053. 4817.55   1
   7   4 -15 9177.59 5074.41   1
  15   4  -7  18906. 4173.74   1
   4   7 -15  21707. 4992.83   1
 -15  -7   6  506.34 285.745   1
  -6 -15   7  369.86 274.391   1
  -7  -6  15 -1193.9 1470.62   1
  -7  -6  15 2078.05 1832.21   1
  15  -6  -7 -2698.7 1794.73   1
  15  -6  -7 1031.20 1498.18   1
 -15  -6   7 1695.51 517.583   1
  -6  -7  15  834.86 1436.44   1
  -6  -7  15   77.18 1419.91   1
  15   7  -6  281.56 274.832   1
   6  15  -7 -104.50 244.405   1
   7   6 -15 -1558.8 2385.62   1
   7   6 -15 -1633.8 1994.27   1
 -15   6   7 -1938.0 1493.77   1
 -15   6   7 -841.36 1562.12   1
  15   6  -7 1672.36 488.590   1
   6   7 -15 2846.43 2694.30   1
  15  -8  -1 1366.99 978.612   1
  15  -8  -1  731.23 902.876   1
  -1  15  -8    6.53 211.112   1
  -8  -1  15 -645.35 1468.41   1
  15  -1  -8  -19.26 512.843   1
 -15  -1   8 -284.86 388.270   1
  -1  -8  15 -673.57 1301.95   1
  -1  -8  15  349.46 1952.37   1
 -15   8   1 -141.55 934.075   1
   1 -15   8   48.88 249.807   1
   1  15  -8  401.94 259.618   1
 -15   1   8 -367.77 557.160   1
   1  -8  15  617.57 1055.12   1
   1   8 -15 -959.54 1791.42   1
  15  -8  -3  372.51 995.259   1
  15  -8  -3 -109.78 1103.52   1
  -3  15  -8 1951.27 483.959   1
 -15  -8   3  953.48 342.850   1
  15  -3  -8 3020.61 1934.74   1
  15  -3  -8 1678.98 1436.44   1
  -3  -8  15 1652.52 1516.92   1
  -3  -8  15 1147.61 1764.96   1
 -15   8   3 -187.30 1104.62   1
  15  -8   3  752.18 247.822   1
   3 -15   8 1418.81 386.837   1
  15   8  -3 1192.81 365.560   1
   3  15  -8  796.71 327.858   1
   8   3 -15   15.78 1705.43   1
 -15   3   8 4021.60 2304.04   1
  15   3  -8  853.27 409.987   1
   3   8 -15 -1811.3 2308.45   1
   3   8 -15  565.54 1230.29   1
 -15   8  -5  14783. 3241.09   1
  -5  15  -8  16150. 3547.57   1
 -15  -8   5  14243. 3140.78   1
  -8  -5  15  19138. 4681.95   1
   5 -15   8  15665. 3443.94   1
  15   8  -5  13240. 2922.50   1
   5  15  -8  14607. 3224.56   1
   8   5 -15  21817.  10984.   1
   8   5 -15  23702. 5633.33   1
 -15   5   8  42752.  21023.   1
 -15   5   8  19843. 4698.48   1
  15   5  -8  21133. 4662.11   1
   5   8 -15  18752. 4268.54   1
  -7  15  -8  898.47 256.421   1
  -8  -7  15 1703.23 1283.21   1
  15  -7  -8 -244.74 1393.45   1
  -8 -15   7 1122.26 376.474   1
  -7  -8  15 1595.19 966.486   1
   7 -15   8 1294.23 331.826   1
  15   8  -7  721.64 311.983   1
   7  15  -8  793.52 367.214   1
   8   7 -15 -879.28 1541.17   1
 -15   7   8 1309.67 1832.21   1
  15   7  -8 1179.58 472.715   1
   8  15  -7 1074.96 374.710   1
   7   8 -15  629.70 921.728   1
 -15   9   0  263.81 950.170   1
 -15   9   0 -683.39 1095.14   1
  -9   0  15 -924.81 1427.62   1
  15  -9   0  892.73 955.131   1
  15  -9   0  338.55 995.038   1
   0 -15   9  158.64 237.901   1
   9   0 -15  917.54 1321.79   1
 -15   0   9  441.63 523.646   1
   0  -9  15 -1790.3 1508.10   1
   0   9 -15   88.70 1684.49   1
  15  -9  -2  687.46 776.099   1
 -15   9  -2 2168.45 1358.17   1
  -2  15  -9 1633.78 422.224   1
  -2 -15   9 2320.58 567.853   1
  -9  -2  15 5871.45 3172.75   1
  -9  -2  15 1838.83 1984.34   1
  15  -2  -9  598.28 1380.22   1
  15  -2  -9 1551.10 1406.68   1
  -2  -9  15 3044.87 1956.78   1
  -2  -9  15 1994.27 1454.08   1
 -15   9   2  464.34 1033.07   1
  15  -9   2 1306.36 633.998   1
   2 -15   9 1652.52 445.154   1
   2  15  -9 2252.23 559.916   1
 -15   2   9 1641.49 1510.31   1
 -15   2   9 2101.20 1314.08   1
   2  -9  15   -5.73 1720.87   1
   2   9 -15 3495.75 2698.71   1
 -15   9  -4 4205.71 944.107   1
  -4  15  -9 3150.70 722.411   1
 -15  -9   4 2312.86 579.980   1
  -4 -15   9 3214.64 755.594   1
  -9  -4  15 4608.09 2665.64   1
  15  -4  -9 2415.39 1767.17   1
  15  -4  -9 1067.80 1694.41   1
  -4   9 -15 1846.54 1761.66   1
  -4  -9  15 5632.23 1685.59   1
   4 -15   9 3395.43 787.784   1
  15   9  -4 2018.52 535.773   1
   4  15  -9 3256.53 774.666   1
   4  -9  15 1088.85 1839.93   1
  15   4  -9 3117.62 806.085   1
   4   9 -15 1071.33 841.362   1
  -6  15  -9 1999.78 478.227   1
  -6 -15   9 1955.68 520.890   1
  15  -6  -9   27.16 1425.42   1
  -6   9 -15 -149.71 1701.02   1
  -6  -9  15 2128.76 839.377   1
  15   9  -6 2041.67 520.229   1
   6  15  -9 1547.79 440.524   1
   9   6 -15 -505.35 1846.54   1
 -15   6   9  -11.88 1632.67   1
  15   6  -9 2727.37 796.934   1
  -8  15  -9  571.60 210.892   1
 -15  -9   8  903.10 337.338   1
  -8 -15   9  217.29 283.761   1
 -15  -8   9  970.56 429.059   1
  -8  -9  15 2399.95 1799.14   1
  -8  -9  15  177.60 627.383   1
   8 -15   9  575.24 220.262   1
   8  15  -9  370.52 281.446   1
   9   8 -15  348.58 845.771   1
   9 -15   8  382.98 166.905   1
   8   9 -15  -20.36 794.619   1
  10  -1 -15 -248.81 1408.88   1
  -1  15 -10  855.14 304.817   1
  -1 -15  10  103.52 231.948   1
 -10  -1  15  681.84 1387.94   1
 -10  -1  15 -192.04 2100.10   1
 -15  -1  10  203.28 488.038   1
  -1 -10  15 -720.76 1352.66   1
 -10   1  15  964.94 1524.64   1
  15 -10   1  358.73 708.080   1
   1 -15  10  346.16 228.530   1
   1  15 -10  285.19 266.012   1
  10   1 -15   -5.08 2078.05   1
  10   1 -15  197.55 2029.54   1
 -15   1  10  786.90 1400.06   1
 -15   1  10 -536.54 1099.11   1
   1 -10  15  257.63 1215.96   1
   1 -10  15  523.10 1778.19   1
   1  10 -15   25.51 1278.80   1
 -15  10  -3  865.84 919.413   1
  -3  15 -10  677.54 259.618   1
  -3 -15  10  545.80 280.233   1
 -10  -3  15  160.62 1512.51   1
 -10  -3  15 -1686.7 2320.58   1
  15  -3 -10 -1701.0 1703.23   1
  15  -3 -10 1111.23 1977.73   1
  -3  10 -15  659.46 1748.43   1
  -3  10 -15 1566.53 2114.43   1
  -3 -10  15  258.30 763.972   1
  15 -10   3  154.34 534.781   1
  15 -10   3  445.82 825.266   1
   3  15 -10  868.81 350.567   1
  10   3 -15 -1862.0 2283.10   1
  10   3 -15 -1264.5 1962.30   1
 -15   3  10 1041.01 1473.93   1
 -15   3  10 1952.37 1976.63   1
   3 -10  15  286.63 1086.87   1
   3 -10  15  112.23 1848.75   1
  15   3 -10  762.76 490.353   1
   3  10 -15  800.02 2032.85   1
   3  10 -15  959.43 841.141   1
 -15  10  -5 1267.78 325.873   1
  -5  15 -10 1075.18 323.779   1
  -5 -15  10  639.40 309.447   1
 -10  -5  15 -442.40 1532.35   1
 -10  -5  15  402.05 1716.46   1
  15  -5 -10 -860.65 1589.68   1
  15  -5 -10  265.13 1973.32   1
  -5  10 -15 1661.34 2115.53   1
  -5 -10  15  159.63 590.122   1
  15 -10   5 2316.17 526.513   1
   5 -15  10 1411.09 390.034   1
  15  10  -5  681.84 308.345   1
   5  15 -10  862.31 340.535   1
  10   5 -15  283.32 2035.05   1
   5 -10  15 -532.91 2138.68   1
   5 -10  15 1188.40 1204.94   1
  15   5 -10  854.48 478.006   1
   5  10 -15 -314.96 2327.19   1
   5  10 -15 -179.36 689.780   1
  -7  15 -10  663.10 270.753   1
 -15 -10   7  127.11 248.484   1
  -7 -15  10  838.83 325.212   1
 -10  -7  15  761.00 1547.79   1
 -10  -7  15 -124.35 697.056   1
  -7  10 -15  125.34 1855.36   1
 -10 -15   7  -48.56 302.943   1
  -7 -10  15  506.67 617.462   1
   7 -15  10  279.90 204.277   1
   7  15 -10  977.51 349.685   1
   7 -10  15 -1767.2 2044.98   1
  10  15  -7  302.94 314.518   1
   7  10 -15  444.82 716.899   1
  -9  15 -10  398.96 198.765   1
 -15 -10   9  200.31 315.952   1
  -9 -15  10  314.41 309.999   1
 -10  -9  15 -604.23 620.548   1
 -10  15  -9  344.06 176.166   1
 -15  -9  10 -229.30 353.213   1
 -10 -15   9  450.01 316.062   1
   9 -15  10  458.49 240.988   1
  15  10  -9  993.72 377.136   1
   9  15 -10   48.94 315.290   1
  10 -15   9  446.92 175.614   1
  10  15  -9 -116.97 292.580   1
   9  10 -15 -203.84 680.850   1
 -11   0  15  112.23 1382.43   1
 -11   0  15 1672.36 2339.32   1
   0 -15  11  135.82 262.595   1
  11   0 -15  834.53 2565.32   1
  11   0 -15 -2594.0 2402.16   1
 -15   0  11 -371.40 1355.97   1
   0 -11  15 1703.23 1215.96   1
   0  11 -15 -190.17 936.390   1
  11  -2 -15 -2810.1 2162.93   1
  -2  15 -11  126.67 249.366   1
  -2 -15  11  643.15 290.817   1
 -11  -2  15 -111.67 1448.57   1
 -11  -2  15 1407.78 2632.56   1
  -2  11 -15 -419.47 1972.22   1
 -11   2  15  601.37 2169.55   1
   2 -15  11  904.42 317.826   1
   2  15 -11  385.95 302.061   1
  11   2 -15 -1992.1 2201.52   1
  11   2 -15  459.27 2699.81   1
 -15   2  11 -1758.3 2343.73   1
 -15   2  11 -1424.3 1561.02   1
   2 -11  15 -1707.6 1504.79   1
   2 -11  15 -908.17 1670.16   1
  15   2 -11  405.14 577.664   1
   2  11 -15 -160.18 789.879   1
 -15  11  -4 -835.52 828.243   1
  -4  15 -11  582.18 272.076   1
  -4 -15  11  874.76 347.370   1
 -11  -4  15 -509.76 1524.64   1
 -11  -4  15   34.91 2231.28   1
  15  -4 -11  118.07 1870.80   1
  15  -4 -11  490.68 2648.00   1
  -4  11 -15 1492.67 2100.10   1
  -4 -11  15  316.83 591.334   1
  15 -11   4  676.55 787.674   1
  15 -11   4 1300.85 823.833   1
  11   4 -15 1545.58 2488.15   1
  11   4 -15  174.62 2119.94   1
 -15   4  11 2954.47 2011.90   1
 -15   4  11  636.53 2391.13   1
   4 -11  15  653.95 1247.93   1
  15   4 -11   25.59 508.543   1
   4  11 -15 -167.02 798.257   1
  -6  15 -11  183.66 294.344   1
 -15 -11   6  352.11 265.902   1
 -11  -6  15 -379.01 1016.54   1
  15  -6 -11 -596.07 1892.84   1
  15 -11   6  354.32 103.539   1
  15  11  -6  248.81 284.864   1
   6  15 -11  124.13 277.477   1
  11   6 -15 -417.92 1006.17   1
 -15   6  11  151.80 2201.52   1
   6 -11  15  -22.75 1135.49   1
  15   6 -11  235.25 458.714   1
  -8  15 -11  548.34 287.509   1
 -15 -11   8  507.22 316.062   1
 -11  -8  15  760.33 648.109   1
 -15  -8  11  417.59 359.056   1
  -8 -11  15 1047.18 565.869   1
   8 -15  11  482.64 338.331   1
  15  11  -8  472.49 321.243   1
   8  15 -11  180.35 297.541   1
  11   8 -15  218.28 793.186   1
  11 -15   8   53.18 140.668   1
   8  11 -15  189.62 693.308   1
 -15 -11  10  638.74 337.449   1
 -10 -15  11   -8.32 296.218   1
 -11 -10  15  235.59 503.472   1
 -11  15 -10  362.25 218.719   1
 -15 -10  11 -154.67 381.325   1
 -11 -15  10  550.21 314.739   1
 -10 -11  15  -21.89 503.913   1
  10 -15  11  331.83 269.540   1
  15  11 -10  571.71 379.120   1
  10  15 -11  749.75 358.835   1
  11  10 -15  446.70 694.079   1
  11 -15  10  536.43 256.311   1
  15  10 -11  -75.92 441.296   1
  10  11 -15  665.09 665.637   1
  12  -1 -15  207.47 2433.03   1
  12  -1 -15 -340.31 2648.00   1
  -1  15 -12  -35.10 361.702   1
  -1 -15  12  -54.05 378.348   1
 -12  -1  15  -40.39 1490.46   1
 -12  -1  15 -569.07 2713.04   1
  -1 -12  15 -1008.7 1649.21   1
  -1 -12  15   -9.04 609.634   1
   1 -15  12  781.94 375.151   1
  12   1 -15 -877.41 2117.74   1
  12   1 -15  880.72 3055.89   1
   1 -12  15   75.93 733.656   1
  15   1 -12  754.05 1832.21   1
  15   1 -12  187.41 1308.56   1
   1  12 -15  220.26 749.861   1
  -3  15 -12  335.57 349.685   1
 -12  -3  15 1397.86 1618.34   1
 -12  -3  15  669.39 2345.94   1
  -3  12 -15  839.38 1318.49   1
  -3 -12  15  -52.83 480.101   1
   3 -15  12  399.62 360.158   1
   3  15 -12   31.43 320.361   1
  12   3 -15 -205.27 2082.46   1
  12   3 -15 -259.84 2456.18   1
 -15   3  12 -612.50 1394.55   1
 -15   3  12 1524.64 2409.88   1
   3 -12  15  527.84 1419.91   1
  15   3 -12 1901.66 2517.91   1
  15   3 -12  599.60 633.667   1
 -15 -12   5 -196.89 269.099   1
  -5 -15  12 -182.56 321.133   1
 -12  -5  15  370.96 1230.29   1
  -5  12 -15 -446.70 1943.55   1
  -5  12 -15 -690.33 2056.00   1
  -5 -12  15  274.28 481.093   1
  15  12  -5   50.62 267.666   1
   5  15 -12  355.09 332.157   1
  12   5 -15 -512.62 1643.70   1
 -15   5  12  112.23 1979.93   1
  15   5 -12   99.58 516.040   1
   5  12 -15 -159.85 736.743   1
 -15 -12   7  842.91 341.528   1
  -7 -15  12  895.16 396.538   1
 -12  -7  15  724.84 1901.66   1
 -12  -7  15 -620.99 594.311   1
  -7  12 -15 1210.45 2203.72   1
  -7  12 -15 -1788.1 2441.85   1
 -12 -15   7  621.54 320.471   1
  -7 -12  15  224.01 498.952   1
  15  12  -7  574.91 323.117   1
   7  15 -12  434.13 320.692   1
  12   7 -15 -402.60 767.610   1
  12   7 -15  795.06 3010.69   1
   7 -12  15 2493.66 2622.64   1
  15   7 -12  163.16 485.282   1
  12  15  -7  467.31 337.008   1
   7  12 -15 -137.25 588.358   1
  -9  15 -12 2610.51 665.196   1
 -15 -12   9 4761.32 1100.21   1
  -9 -15  12 3095.58 769.484   1
 -12  15  -9 3081.24 692.977   1
  -9  12 -15 -1141.0 2564.21   1
 -15  -9  12 2589.57 703.560   1
 -12 -15   9 2858.56 709.954   1
   9 -15  12 3475.91 846.102   1
  15  12  -9 4590.45 1068.57   1
   9  15 -12 4129.64 976.518   1
  12   9 -15 2553.19 951.493   1
  12 -15   9 2419.80 548.451   1
  12  15  -9 4057.98 964.501   1
   9  12 -15 2797.92 935.949   1
 -15 -12  11  805.53 396.648   1
 -11 -15  12  456.40 342.520   1
 -12  15 -11  218.28 253.114   1
 -15 -11  12  822.62 449.895   1
 -12 -15  11  -24.53 341.858   1
 -11 -12  15 -574.91 451.218   1
  15  12 -11  552.97 401.499   1
  11  15 -12  888.21 464.336   1
  12  11 -15 -591.67 598.500   1
  15  11 -12  315.62 471.392   1
  12  15 -11   73.38 342.961   1
  11  12 -15 -885.90 557.270   1
  13   0 -15 -1516.9 2750.52   1
 -15   0  13 1660.23 1911.58   1
   0 -13  15  541.28 605.556   1
  15   0 -13 3109.91 2542.16   1
  15   0 -13 2792.41 2414.28   1
  -2 -15  13 -252.67 422.555   1
  15  -2 -13 2496.97 2371.29   1
  15  -2 -13 -1734.1 2645.79   1
  -2  13 -15 -339.32 797.155   1
  -2 -13  15  442.29 495.645   1
   2  15 -13  989.75 457.942   1
  13   2 -15 -2501.4 2727.37   1
  15   2 -13 -868.48 1247.93   1
   2  13 -15  -51.75 692.646   1
  -4  15 -13  245.84 430.162   1
  -4 -15  13   10.57 390.254   1
  -4  13 -15  319.92 841.803   1
 -15  -4  13 -2154.1 1986.55   1
 -15  -4  13  146.29 541.616   1
  -4 -13  15  808.62 504.244   1
   4 -15  13  578.44 344.173   1
   4  15 -13  167.57 378.569   1
  13   4 -15 -898.58 1931.43   1
   4 -13  15 1825.60 1131.08   1
  15   4 -13   66.28 630.801   1
   4  13 -15 -207.69 666.629   1
 -15 -13   6  401.39 281.777   1
  -6 -15  13  595.85 405.027   1
  -6  13 -15 -2549.9 2490.35   1
  -6 -13  15  754.27 581.192   1
   6 -15  13  540.51 406.349   1
  15  13  -6   28.60 314.298   1
  13   6 -15   25.51 885.128   1
   6 -13  15  185.54 1396.76   1
   6 -13  15 1316.28 1950.17   1
  15   6 -13  228.97 602.910   1
  -8  15 -13  671.70 511.961   1
 -15 -13   8  727.81 323.558   1
 -13  -8  15  624.85 505.126   1
  -8  13 -15 1613.93 2189.39   1
 -13 -15   8   15.05 283.761   1
  -8 -13  15   60.03 456.730   1
  15  13  -8  194.69 330.834   1
   8  15 -13 1006.61 430.713   1
   8 -13  15 2899.35 1978.83   1
  15   8 -13  228.42 518.024   1
   8  13 -15 1198.32 602.028   1
 -10  15 -13  574.69 390.805   1
 -15 -13  10  513.50 323.889   1
 -10 -15  13  918.75 435.012   1
 -13 -10  15 2477.12 751.956   1
 -13  15 -10  734.54 268.548   1
 -10  13 -15  242.31 1540.07   1
 -13 -15  10   14.47 310.881   1
 -10 -13  15  895.05 458.053   1
  15  13 -10  959.10 432.587   1
  13  10 -15 4022.71 1148.71   1
  13 -15  10  855.47 298.313   1
 -12 -15  13  575.79 370.301   1
 -13 -12  15  241.21 452.100   1
 -13  15 -12  566.42 496.306   1
 -12  13 -15 2807.85 2395.54   1
 -15 -12  13 1178.48 496.637   1
 -13 -15  12  349.46 295.667   1
  12 -15  13  514.39 1058.54   1
  12  15 -13  451.55 381.435   1
  13 -15  12  406.13 988.093   1
  15  12 -13  877.96 502.921   1
  12  13 -15  -56.43 546.466   1
 -14  -1  15 3317.16 2468.30   1
 -14  -1  15 -590.12 2800.13   1
  15  -1 -14 -1017.0 2415.39   1
  15  -1 -14 2415.39 3177.15   1
 -15  -1  14 1068.57 1966.71   1
 -15  -1  14 2631.46 2418.69   1
  -1 -14  15 1424.32 608.422   1
 -14   1  15 3911.36 2571.93   1
 -14   1  15  121.49 2984.23   1
   1 -15  14  408.55 404.916   1
   1  15 -14  928.23 532.576   1
  14   1 -15 1852.05 2588.47   1
 -15   1  14  333.04 1857.57   1
 -15   1  14 4647.77 3166.13   1
  15   1 -14 -696.17 2267.66   1
  15   1 -14  659.24 2439.64   1
   1  14 -15  143.53 637.526   1
  14  -3 -15   88.52 2218.06   1
 -14  -3  15 -228.31 1987.65   1
 -14  -3  15 1774.89 1861.98   1
  15  -3 -14 5319.14 3640.17   1
  15  -3 -14 4324.77 3189.28   1
  -3  14 -15  203.40 708.300   1
 -15  -3  14   53.97 1199.43   1
  -3 -14  15 -252.67 502.811   1
 -14   3  15 -997.90 2136.48   1
   3 -15  14  840.59 460.368   1
  14   3 -15 1115.64 2507.99   1
 -15   3  14 -3417.5 2298.53   1
 -15   3  14 -3096.7 2789.11   1
   3 -14  15 -1526.8 1703.23   1
   3 -14  15  164.48 533.347   1
  15   3 -14  137.03 1091.72   1
  -5  15 -14  348.69 531.804   1
  -5 -15  14 -481.53 470.400   1
 -14  -5  15 2769.26 2144.19   1
 -14  -5  15  579.65 781.501   1
  15  -5 -14 -460.70 2554.29   1
 -15  -5  14 -154.23 569.948   1
 -15  -5  14 2783.59 2124.35   1
  -5 -14  15   42.71 423.437   1
   5 -15  14 -466.98 403.814   1
   5  15 -14 -218.61 456.068   1
  15   5 -14  510.42 770.036   1
   5  14 -15  479.22 584.610   1
  -7 -15  14 3677.65 940.799   1
 -14  -7  15 1385.73 620.107   1
  -7  14 -15  409.11 1132.18   1
 -15  -7  14 1250.14 552.970   1
 -14 -15   7 2036.16 543.159   1
  -7 -14  15 1812.37 581.523   1
  15  14  -7  957.34 397.530   1
   7  15 -14 2716.35 746.003   1
  14   7 -15 1109.03 815.786   1
   7 -14  15  783.04 1503.69   1
  15   7 -14 1847.64 802.557   1
  14  15  -7 1444.16 474.809   1
 -15  14  -9 1210.45 313.416   1
  -9 -15  14 2041.67 645.353   1
 -14  -9  15 1650.31 618.233   1
 -14  15  -9 1598.50 372.175   1
  -9  14 -15 -1160.8 2049.39   1
 -14 -15   9  946.42 370.742   1
  15 -14   9  975.86 780.398   1
   9 -15  14 3464.88 1040.46   1
  15  14  -9 1286.52 456.509   1
   9  15 -14 2309.56 674.567   1
  14   9 -15 1343.84 803.880   1
  14 -15   9 1665.75 389.262   1
  15   9 -14 1014.44 584.169   1
  14  15  -9  219.38 362.032   1
 -11  15 -14 -1254.5 1898.36   1
 -11 -15  14  742.37 413.515   1
 -14 -11  15  201.19 440.855   1
 -14  15 -11  -46.22 290.486   1
 -14 -15  11  -39.41 283.100   1
  11 -15  14  379.12 1183.99   1
  15  14 -11   70.26 321.905   1
  14  11 -15  219.71 574.468   1
  14 -15  11 -1668.0 1217.06   1
  11 -14  15 -698.27 1135.49   1
  15  11 -14  110.10 539.852   1
  14  15 -11  303.05 329.952   1
  11  14 -15  327.86 553.522   1
 -13  15 -14 -1035.7 1426.52   1
 -15 -14  13  174.62 372.726   1
 -14  15 -13   45.06 1222.58   1
 -15 -13  14  901.77 531.143   1
 -14 -15  13  427.85 372.946   1
 -13 -14  15  166.80 500.275   1
  15  14 -13  664.87 433.028   1
  14 -15  13 -986.88 947.414   1
  15  13 -14 -629.92 524.528   1
  14  15 -13  100.79 361.481   1
  13  14 -15 -340.65 546.025   1
 -15   0  15  17870. 9049.71   1
 -15   0  15 5913.34 3796.71   1
   0 -15  15 8226.21 1900.56   1
  15   0 -15 6443.60 4137.36   1
  15   0 -15 1857.57 3548.67   1
  15  -2 -15 -245.29 2717.45   1
  15  -2 -15 -1496.0 3535.44   1
  -2  15 -15   91.67 626.060   1
 -15  -2  15  252.23 1915.99   1
 -15  -2  15  347.37 2444.05   1
  -2 -15  15  528.72 443.611   1
 -15   2  15 4999.44 3029.43   1
 -15   2  15 -382.54 2989.74   1
   2 -15  15 -244.96 444.383   1
  15   2 -15 1228.09 2726.27   1
  15   2 -15 1649.21 2273.18   1
   2  15 -15 -452.65 538.088   1
  15  -4 -15 -180.35 2342.63   1
 -15  -4  15 -138.02 1226.99   1
  -4 -15  15 -173.41 394.884   1
 -15   4  15 -1757.2 2261.05   1
  15   4 -15 -452.21 1087.31   1
  -6  15 -15  197.33 596.075   1
 -15  -6  15 3575.13 2731.78   1
 -15  -6  15 1493.77 665.527   1
 -15 -15   6  707.31 348.583   1
   6 -15  15  843.02 560.136   1
  15   6 -15  927.35 799.580   1
  -8  15 -15   65.38 792.084   1
 -15  -8  15  -70.39 446.808   1
 -15 -15   8  198.65 261.823   1
  15   8 -15  499.39 681.622   1
   8  15 -15  896.81 521.441   1
 -15  15 -10  658.80 241.318   1
 -10  15 -15 -1100.2 1867.49   1
 -15 -15  10  994.93 363.576   1
 -10 -15  15 1450.78 561.239   1
  10 -15  15  931.87 1395.66   1
  15  10 -15 1635.98 668.614   1
  10  15 -15 1092.93 551.207   1
 -15  15 -12 -1496.0 1293.13   1
 -12  15 -15 -1051.5 1504.79   1
 -12 -15  15  864.40 526.843   1
  15 -15  12  978.61 886.009   1
  15  12 -15  -71.69 526.843   1
  15  15 -12  422.89 413.625   1
  12  15 -15  917.76 549.112   1
 -15 -14  15  -68.87 493.881   1
 -14 -15  15  144.42 467.864   1
  15  14 -15 -149.82 563.002   1
  15  15 -14  157.76 393.561   1
  14  15 -15 -145.19 470.289   1
  16   0   0  14078. 3098.88   1
 -16  -1   1   54.89 257.303   1
  16  -1   1  208.80 196.009   1
  16   1  -1  518.24 254.768   1
 -16  -2   0  567.41 245.397   1
 -16   2   0  910.37 301.841   1
  16  -2   0  714.36 254.657   1
  16   2   0  369.31 218.278   1
 -16   0   2  452.87 257.634   1
  16   0  -2  289.71 246.059   1
  16  -2  -2 -187.19 306.471   1
 -16   2  -2 -104.40 163.267   1
 -16  -2   2  -72.37 239.775   1
  16  -2   2  109.90 160.070   1
  16  -3  -1  733.55 331.496   1
 -16   3  -1  795.17 249.807   1
 -16  -3   1  613.38 262.264   1
  16  -1  -3 1200.53 432.587   1
 -16  -1   3 1387.94 419.027   1
 -16   3   1 1025.57 341.858   1
  16  -3   1  984.23 284.864   1
  16   3  -1  639.18 263.807   1
  16   1  -3 1446.37 418.256   1
  16  -3  -3 -171.20 274.280   1
 -16  -3   3  674.90 302.061   1
  16   3  -3 1153.12 364.237   1
 -16   4   0  202.18 238.672   1
  16  -4   0 -161.61 249.697   1
  16  -4  -2 1656.93 450.667   1
 -16   4  -2 2656.82 618.233   1
 -16  -4   2 1538.97 406.460   1
  16  -2  -4 1461.80 444.272   1
 -16  -2   4 3020.61 738.727   1
 -16   4   2 3112.11 731.892   1
  16  -4   2 2477.12 569.396   1
 -16   2   4 2868.48 706.537   1
  16   2  -4 3301.73 782.272   1
   2   4 -16  600.15 1449.67   1
  16  -4  -4 2762.65 1777.09   1
  16  -4  -4  286.08 393.451   1
 -16  -4   4 1341.64 406.129   1
  -4  -4  16  858.89 1717.56   1
  16  -5  -1   76.41 230.294   1
 -16   5  -1   92.99 215.632   1
  16  -1  -5  375.26 323.228   1
 -16  -1   5  -13.21 339.102   1
  -1  -5  16 -281.45 1807.96   1
 -16   5   1 -273.95 229.743   1
  16  -5   1  359.28 245.838   1
 -16   1   5  216.73 307.573   1
   1   5 -16  567.63 1295.34   1
 -16   5  -3 7080.80 1561.02   1
 -16  -5   3 8276.92 1838.83   1
  -5  -3  16 1432.03 1749.53   1
  16  -3  -5 8479.76 1912.69   1
  -3  -5  16 4001.76 2448.46   1
 -16   5   3 8583.39 1932.53   1
   5   3 -16 2904.86 1529.05   1
 -16   3   5 8239.44 4206.81   1
  16  -5  -5 1386.84 1220.37   1
  16  -5  -5 -372.73 941.130   1
  -5  -5  16 -682.17 1369.20   1
  16   5  -5  425.86 284.753   1
 -16   6   0  -87.41 213.317   1
  16  -6   0  324.99 229.412   1
 -16   0   6 -237.68 332.047   1
   0  -6  16 -857.13 1504.79   1
  16   0  -6  287.40 346.709   1
   0   6 -16 -357.62 1468.41   1
  16  -6  -2   52.35 338.220   1
 -16   6  -2  364.13 210.892   1
 -16  -6   2  338.00 246.279   1
  -6  -2  16 -116.86 1654.72   1
  16  -2  -6   -1.36 374.159   1
  -2  -6  16 -969.79 1289.82   1
  -2  -6  16 -1307.5 2029.54   1
 -16   6   2  -75.38 454.635   1
  16  -6   2  469.63 200.749   1
   6   2 -16 -1262.3 1378.02   1
 -16   2   6  188.73 392.680   1
   2   6 -16  759.56 2029.54   1
   2   6 -16  581.30 1402.27   1
  16  -6  -4  11972. 5962.95   1
  16  -6  -4  12182. 2930.21   1
 -16   6  -4 8424.64 1853.16   1
 -16  -6   4 8292.35 1842.13   1
  -6  -4  16 8870.02 4582.73   1
 -16  -4   6  12821. 2847.53   1
  -4  -6  16 2653.51 2536.65   1
 -16   6   4  14155. 7051.03   1
  16   6  -4 8981.36 1994.27   1
   6   4 -16 5051.26 3241.09   1
 -16   4   6  15919. 7949.50   1
 -16   4   6  14717. 3382.20   1
   4   6 -16 8454.41 2500.27   1
  16  -6  -6  591.78 1120.05   1
  16  -6  -6 -812.59 1511.41   1
 -16  -6   6  558.70 292.360   1
  -6  -6  16 -141.44 1395.66   1
  -6  -6  16 -424.87 2226.87   1
   6   6 -16  508.54 1985.45   1
  16  -7  -1  632.90 473.046   1
 -16   7  -1  434.90 245.177   1
  -7  -1  16  471.61 1742.92   1
  16  -1  -7 -314.63 401.499   1
 -16  -1   7  117.41 322.456   1
  -1  -7  16 -111.67 1276.59   1
  -1  -7  16 -1032.9 1983.24   1
  16  -7   1  163.93 204.167   1
   7   1 -16 -294.90 1761.66   1
 -16   1   7  315.07 417.153   1
   1  -7  16 -501.49 1432.03   1
  16   1  -7  169.44 388.821   1
   1   7 -16 -2118.8 2043.87   1
   1   7 -16 1578.66 1803.55   1
  16  -7  -3  472.94 1016.42   1
  16  -7  -3 -254.88 1152.02   1
 -16   7  -3  166.02 158.527   1
 -16  -7   3  520.01 255.870   1
  -7  -3  16  905.63 1407.78   1
  -7  -3  16 -979.60 2155.22   1
  16  -3  -7 -542.83 919.302   1
  -3  -7  16 -210.78 1278.80   1
  -3  -7  16 -2544.4 2167.34   1
 -16   7   3  625.29 1215.96   1
 -16   7   3  -86.64 1319.59   1
  16  -7   3    7.83 137.250   1
  16   7  -3  124.02 257.193   1
   7   3 -16 -1982.1 2334.91   1
   7   3 -16 1886.23 2245.62   1
   3   7 -16 -117.96 2307.35   1
   3   7 -16 -642.49 1576.45   1
  -7  -5  16 6304.70 3430.71   1
  -7  -5  16 2165.14 2652.41   1
  16  -5  -7 3794.51 2190.49   1
  16  -5  -7 1918.20 1737.40   1
 -16  -5   7 5551.75 1276.59   1
 -16   7   5 1705.43 1557.71   1
   7   5 -16 1455.19 2140.89   1
   7   5 -16 1015.21 2407.67   1
 -16   5   7 5999.33 3233.38   1
 -16   5   7 6217.61 2176.16   1
   5   7 -16 1893.95 2064.82   1
  16  -7  -7 2853.05 2001.98   1
  16  -7  -7 -490.90 1848.75   1
 -16  -7   7  354.54 290.706   1
  -7  -7  16 -2968.8 2110.02   1
  -7  -7  16   30.74 1811.26   1
  16   7  -7  -14.81 299.195   1
   7   7 -16  359.06 2139.78   1
   7   7 -16 -578.55 2247.82   1
   0 -16   8  697.17 268.989   1
   8   0 -16  743.36 2145.30   1
 -16   0   8  213.21 425.862   1
   0  -8  16 -818.21 1319.59   1
  16   0  -8  324.99 450.226   1
  16  -8  -2  468.86 845.661   1
  16  -8  -2 -162.50 1031.53   1
  -2 -16   8  732.77 297.541   1
  -8  -2  16 -300.85 1992.06   1
 -16  -2   8  536.10 367.324   1
  -2  -8  16 2500.27 1859.77   1
  -2  -8  16  -72.54 2087.97   1
 -16   8   2 -809.28 1138.79   1
  16  -8   2  135.27 188.623   1
   2 -16   8  778.19 270.422   1
   2  16  -8  422.00 264.138   1
   8   2 -16 -1326.2 2567.52   1
   8   2 -16 1251.24 2311.76   1
 -16   2   8  627.05 759.563   1
   2   8 -16 -2375.7 2375.70   1
   2   8 -16 -1531.3 2253.33   1
  16  -8  -4 -555.73 1111.23   1
  16  -8  -4  202.29 1317.38   1
 -16   8  -4  497.30 182.670   1
  -4 -16   8  338.77 265.351   1
  -8  -4  16 -469.74 1392.35   1
  -8  -4  16 -1790.3 2640.28   1
  -4   8 -16 -103.29 1756.14   1
  -4  -8  16 2186.09 1784.81   1
  -4  -8  16 1223.68 2092.38   1
 -16   8   4 -897.25 1148.71   1
  16  -8   4  544.37 167.346   1
   4 -16   8  285.08 193.253   1
   4  16  -8  665.86 303.715   1
   8   4 -16 -2710.8 2428.62   1
   8   4 -16 -3775.8 2549.88   1
 -16   4   8 2845.33 2060.41   1
 -16   4   8  225.66 1804.65   1
  16   4  -8 -372.06 396.318   1
   4   8 -16 -349.24 2286.40   1
   4   8 -16   -0.84 2144.19   1
  16  -8  -6  591.67 1381.32   1
 -16  -8   6 1062.40 349.685   1
  -6 -16   8 1348.25 398.412   1
  -8  -6  16 2752.73 2048.28   1
  -8  -6  16  -32.94 2433.03   1
  16  -6  -8  587.70 1464.00   1
  16  -6  -8 1027.89 2155.22   1
 -16  -6   8 1091.28 446.257   1
  -6  -8  16 1085.44 1828.90   1
  -6  -8  16 1214.86 1634.88   1
 -16   8   6 -327.09 1549.99   1
  16   8  -6 1221.47 385.183   1
   6  16  -8 1343.84 421.342   1
   8   6 -16 2278.69 2413.18   1
   8   6 -16 -2144.2 2912.58   1
 -16   6   8  537.10 1360.38   1
 -16   6   8 -174.29 2009.70   1
  16   6  -8 1157.53 460.258   1
 -16  -8   8  10905. 2422.00   1
  -8 -16   8  12479. 2759.34   1
  -8  -8  16  11630. 2980.93   1
  16   8  -8  10369. 2304.04   1
   8  16  -8  10592. 2350.34   1
   8   8 -16 5624.51 1809.06   1
  16  -9  -1  202.84 989.416   1
  16  -9  -1  351.12 1117.85   1
 -16   9  -1 -1643.7 1247.93   1
  -1 -16   9 1418.81 385.183   1
  16  -1  -9  474.59 768.602   1
  -1   9 -16 4250.91 2296.33   1
 -16  -1   9  394.33 450.777   1
  -1  -9  16 2310.66 1725.28   1
 -16   9   1 -247.82 1262.26   1
  16  -9   1  675.12 886.230   1
  16  -9   1 1064.27 934.736   1
   1 -16   9  974.86 298.533   1
 -16   1   9 1051.48 825.928   1
   1  -9  16 -125.68 1999.78   1
   1   9 -16 -2051.6 2182.78   1
  16  -9  -3  939.26 1281.00   1
 -16   9  -3  626.28 294.565   1
  -3 -16   9  819.42 302.833   1
  16  -3  -9 2276.48 1762.76   1
  16  -3  -9 1068.68 1842.13   1
  -3   9 -16  -85.50 2031.75   1
 -16  -3   9 1305.26 480.542   1
  -3  -9  16 -235.92 1404.47   1
  -3  -9  16  640.61 1876.31   1
 -16   9   3 -1185.1 1170.76   1
  16  -9   3  450.56 207.033   1
   3 -16   9  646.79 232.719   1
   3  16  -9  706.21 293.793   1
   9   3 -16 -2068.1 2805.64   1
 -16   3   9  626.39 1432.03   1
   3  -9  16  981.37 1344.94   1
   3  -9  16 -1975.5 2221.36   1
  16   3  -9  -41.91 425.642   1
   3   9 -16 -828.02 2403.26   1
   3   9 -16 -1351.6 1842.13   1
 -16   9  -5  957.56 244.956   1
 -16  -9   5 2127.66 534.450   1
  -5 -16   9  659.13 290.376   1
  -9  -5  16 2834.30 3202.51   1
  -5   9 -16 -2528.9 1951.27   1
  -5  -9  16  478.67 1423.22   1
  16  -9   5 1014.00 246.059   1
   5 -16   9  688.02 234.704   1
  16   9  -5 1825.60 478.117   1
   5  16  -9  446.37 264.469   1
   9   5 -16 -836.40 2114.43   1
   9   5 -16 1757.25 2710.83   1
 -16   5   9  881.60 2431.92   1
   5  -9  16  958.22 2114.43   1
  16   5  -9  611.51 475.912   1
   5   9 -16  -95.03 1542.28   1
 -16  -9   7 4038.14 934.516   1
  -7 -16   9 2795.72 671.370   1
  -9  -7  16 4029.32 1985.45   1
  16  -7  -9 -943.56 1768.27   1
 -16  -7   9 4733.76 1124.46   1
  -9 -16   7 2042.77 531.473   1
  -7  -9  16 1651.41 949.068   1
   7 -16   9 2253.33 530.261   1
  16   9  -7 3266.45 784.808   1
   7  16  -9 2494.76 610.186   1
   9   7 -16 2656.82 1978.83   1
 -16   7   9 1509.20 2033.95   1
  16   7  -9 5127.32 1213.76   1
  -9  16  -9 2903.76 665.417   1
 -16  -9   9 4056.88 962.737   1
  -9 -16   9 2482.63 616.580   1
  -9  -9  16 1373.61 776.760   1
   9 -16   9 2121.04 499.503   1
  16   9  -9 3807.74 912.798   1
   9  16  -9 2103.40 545.254   1
   9   9 -16 3999.55 3592.76   1
   9   9 -16 -228.42 893.065   1
 -16  10   0  230.85 1189.50   1
 -10   0  16  238.67 2018.52   1
  16 -10   0  279.57 892.073   1
  16 -10   0 -244.96 1116.74   1
   0 -16  10  625.07 294.124   1
  10   0 -16  869.58 2102.30   1
 -16   0  10 2052.69 835.298   1
   0 -10  16 -647.89 2090.18   1
   0  10 -16 -1510.3 2145.30   1
   0  10 -16 -165.14 2236.80   1
 -16  10  -2  570.83 1013.34   1
 -10  -2  16  821.52 1488.26   1
 -10  -2  16 1440.85 2672.25   1
  16  -2 -10 1180.68 1795.83   1
 -16  -2  10   66.89 466.762   1
  -2 -10  16 -635.98 1444.16   1
  16 -10   2  341.20 685.040   1
  16 -10   2 -459.38 1192.81   1
   2 -16  10  704.66 260.941   1
   2  16 -10  749.42 336.016   1
 -16   2  10 -3132.0 2090.18   1
 -16   2  10 -513.28 1767.17   1
   2 -10  16 -114.98 1196.12   1
   2 -10  16  587.70 2469.41   1
  16   2 -10  137.47 507.000   1
 -16  10  -4   63.91 269.871   1
 -16 -10   4 -141.22 248.594   1
 -10  -4  16  856.91 1547.79   1
  16  -4 -10  848.86 1588.58   1
  16  -4 -10 -554.95 2391.13   1
  -4  10 -16 2703.12 2484.84   1
 -16  -4  10  -16.44 395.105   1
  -4 -10  16  -25.95 1172.97   1
   4 -16  10  134.94 201.301   1
  16  10  -4  157.20 263.918   1
   4  16 -10  159.63 276.595   1
 -16   4  10 -2808.9 2007.49   1
   4 -10  16 -1545.6 1425.42   1
   4 -10  16 3009.59 2636.97   1
  16   4 -10  284.09 485.393   1
   4  10 -16   87.01 1065.26   1
  -6  16 -10   70.36 208.907   1
 -16 -10   6  449.01 289.383   1
 -10  -6  16  683.17 1696.61   1
 -10  -6  16 -722.41 1770.48   1
  16  10  -6   72.15 253.114   1
   6  16 -10  564.55 310.881   1
 -16   6  10  268.66 1879.61   1
   6 -10  16  822.18 2042.77   1
   6  10 -16  661.45 759.893   1
  -8  16 -10 1146.51 314.849   1
 -16 -10   8  521.33 295.447   1
 -10  -8  16 -116.41 768.602   1
 -16  -8  10  990.96 453.092   1
 -10 -16   8  588.36 319.920   1
  -8 -10  16 4746.99 3116.52   1
  -8 -10  16   32.81 654.833   1
   8 -16  10 1027.67 284.974   1
  16  10  -8  640.17 353.544   1
   8  16 -10 1084.44 381.325   1
  16   8 -10  714.14 484.180   1
  10  16  -8 1063.06 389.924   1
   8  10 -16  940.25 822.510   1
 -10  16 -10 1341.64 337.779   1
 -16 -10  10 1627.16 493.330   1
 -10 -10  16 1132.18 622.974   1
  10 -16  10 1295.34 343.953   1
  16  10 -10 1462.90 502.149   1
  10  16 -10  923.38 379.230   1
  11  -1 -16  591.55 2236.80   1
  -1  16 -11  530.70 275.603   1
  -1 -16  11  367.65 270.973   1
 -11  -1  16 -479.44 1486.05   1
 -11  -1  16 1095.69 2747.21   1
 -16  -1  11 -526.73 1364.79   1
 -16  -1  11 1530.15 723.734   1
  -1 -11  16  624.41 1365.89   1
 -11   1  16 -2114.4 2022.93   1
   1  16 -11  336.68 253.335   1
  11   1 -16 1796.93 3102.19   1
  11   1 -16 3493.55 3313.85   1
 -16   1  11 -223.13 1598.50   1
 -16   1  11 1691.10 1761.66   1
   1 -11  16 -207.58 1435.34   1
   1 -11  16  285.19 2043.87   1
   1  11 -16  609.85 1346.05   1
 -16  11  -3  701.91 954.028   1
 -16  11  -3  434.13 1056.88   1
  -3 -16  11  573.03 285.635   1
 -11  -3  16 1016.20 1756.14   1
 -11  -3  16  238.34 2936.83   1
  -3  11 -16 -2342.6 2461.69   1
 -16  -3  11   66.03 500.937   1
  -3 -11  16  380.55 782.272   1
  16 -11   3 -513.61 976.077   1
  16 -11   3  224.12 649.983   1
   3 -16  11  434.35 245.618   1
   3  16 -11  143.42 260.941   1
  11   3 -16 -198.32 2274.28   1
  11   3 -16  360.60 2998.56   1
 -16   3  11 -599.05 1676.77   1
 -16   3  11 4497.85 2864.07   1
   3 -11  16 -940.36 1471.72   1
 -16  11  -5  116.53 304.266   1
  -5  16 -11  184.10 227.979   1
 -16 -11   5  611.95 317.936   1
  -5 -16  11   -6.86 251.019   1
 -11  -5  16 1473.93 1935.84   1
 -11  -5  16 1592.99 1805.75   1
  16  -5 -11  444.27 1877.41   1
  16  -5 -11 -2674.5 2659.02   1
  -5  11 -16 2233.49 2582.95   1
 -16  -5  11 -656.16 437.989   1
  -5 -11  16  870.13 1952.37   1
  -5 -11  16  879.95 687.244   1
   5 -16  11  950.39 318.818   1
  16  11  -5  901.00 354.536   1
   5  16 -11  139.23 278.580   1
  11   5 -16  380.11 2462.79   1
 -16   5  11 -835.85 2336.01   1
 -16   5  11 1904.97 1749.53   1
   5 -11  16  -86.02 1288.72   1
  16   5 -11 -158.42 511.079   1
   5  11 -16 -499.72 700.584   1
  -7  16 -11  169.11 206.151   1
 -16 -11   7  373.83 262.154   1
  -7 -16  11  115.09 271.745   1
 -11  -7  16 1318.49 980.927   1
 -16  -7  11   89.49 377.577   1
 -11 -16   7   93.05 278.359   1
  -7 -11  16 -484.07 609.745   1
  16  11  -7   89.03 306.691   1
   7  16 -11 -226.10 290.817   1
  11   7 -16 -1353.8 3059.20   1
  11   7 -16 -218.06 921.838   1
  -9  16 -11 5413.95 1214.86   1
  -9 -16  11 4830.77 1117.85   1
 -11  -9  16 4159.40 1149.82   1
 -11  16  -9 3845.22 860.544   1
 -16  -9  11 4599.27 1110.13   1
 -11 -16   9 3631.35 861.315   1
   9 -16  11 4841.80 1103.52   1
  16  11  -9 4735.97 1100.21   1
   9  16 -11 5401.82 1242.42   1
  11   9 -16 5550.65 1530.15   1
  11 -16   9 3327.08 748.208   1
  16   9 -11 5976.18 1415.50   1
  11  16  -9 4003.96 937.713   1
   9  11 -16 3288.50 1022.16   1
 -11  16 -11  539.19 268.107   1
 -16 -11  11  274.61 423.657   1
 -11 -16  11  228.64 332.157   1
 -11 -11  16  268.88 542.167   1
  11 -16  11   41.35 267.115   1
  16  11 -11    7.00 401.940   1
  11  16 -11  231.18 336.236   1
  11  11 -16  -55.45 714.253   1
 -12   0  16 -851.17 1655.82   1
 -12   0  16 -892.62 2796.82   1
   0 -16  12   88.85 278.359   1
  12   0 -16 2898.24 3367.87   1
  12   0 -16 1274.39 2913.68   1
 -16   0  12 -1076.6 1687.79   1
 -16   0  12 -1093.2 1196.12   1
   0 -12  16  591.89 890.750   1
   0  12 -16 -109.06 861.867   1
  12  -2 -16 1113.44 2006.39   1
  -2  16 -12  236.14 276.155   1
  -2 -16  12  403.48 300.297   1
 -12  -2  16  751.96 1806.86   1
 -12  -2  16 -685.59 2911.47   1
  16  -2 -12 -1271.1 2158.52   1
 -16  -2  12  -79.05 534.229   1
 -12   2  16 1697.72 2125.45   1
   2  16 -12   53.80 275.162   1
  12   2 -16 1847.64 2611.62   1
  12   2 -16 1158.64 3113.21   1
 -16   2  12 -1501.5 1809.06   1
 -16   2  12 2711.94 2785.80   1
   2 -12  16 2144.19 1882.92   1
   2  12 -16 -584.28 778.414   1
  -4 -16  12 1566.53 455.848   1
 -12  -4  16 2628.15 2239.00   1
 -12  -4  16 4060.19 2607.21   1
  -4  12 -16 3929.00 2653.51   1
 -16  -4  12  336.57 526.292   1
  -4 -12  16  733.55 633.447   1
   4 -16  12 1117.85 401.168   1
   4  16 -12  895.16 339.213   1
  12   4 -16 5293.79 3743.80   1
  12   4 -16 -4463.7 2963.29   1
 -16   4  12 2526.73 2090.18   1
 -16   4  12 1917.10 2664.53   1
   4  12 -16  253.44 852.606   1
  -6  16 -12  746.66 338.772   1
  -6 -16  12  446.48 304.266   1
 -12  -6  16  912.03 1263.37   1
  16  -6 -12 -882.26 2092.38   1
  -6  12 -16 -3398.7 2736.19   1
  -6  12 -16 -883.47 2785.80   1
 -16  -6  12 -173.96 416.933   1
  16 -12   6   95.99 185.646   1
   6 -16  12  416.38 348.583   1
  16  12  -6  322.68 275.603   1
  12   6 -16 1228.09 1398.96   1
 -16   6  12 -2114.4 2492.56   1
   6 -12  16 6517.47 3224.56   1
  16   6 -12  599.71 560.577   1
   6  12 -16   60.02 650.755   1
  -8  16 -12   94.29 290.155   1
 -12  -8  16 -1030.0 1806.86   1
 -12  -8  16 -560.58 616.139   1
  -8  12 -16   42.05 2156.32   1
  -8  12 -16  262.71 2696.50   1
 -16  -8  12   -8.61 359.607   1
 -12 -16   8 -136.26 273.729   1
  -8 -12  16 -382.98 512.512   1
  16  12  -8  -30.37 350.788   1
  12   8 -16 -339.43 822.290   1
  12  16  -8   41.11 330.173   1
   8  12 -16 1014.00 709.844   1
 -12 -10  16  399.96 538.529   1
 -12  16 -10   24.33 154.448   1
 -10  12 -16 1234.70 2017.42   1
 -16 -10  12  -36.56 426.965   1
 -12 -16  10 -274.61 355.087   1
 -10 -12  16 -300.63 512.291   1
  10 -16  12   67.82 248.484   1
  16  12 -10  870.69 450.887   1
  10  16 -12   97.49 327.858   1
  12  10 -16 -176.17 702.127   1
  12 -16  10  253.22 174.512   1
  16  10 -12   59.42 482.636   1
  12  16 -10  -35.24 333.370   1
  10  12 -16  642.16 655.495   1
 -12  16 -12  -47.91 276.485   1
 -12 -16  12  173.85 310.660   1
  16  12 -12 -173.85 374.269   1
  12  16 -12  571.71 363.796   1
  12  12 -16  -46.44 624.738   1
  13  -1 -16 -2849.7 3111.01   1
  13  -1 -16 -2716.3 2945.65   1
  -1  16 -13  290.16 374.710   1
  -1 -16  13  968.80 410.098   1
 -13  -1  16 -286.30 3016.20   1
 -13  -1  16 -1782.6 1922.61   1
 -16  -1  13  542.50 2189.39   1
  -1 -13  16 -242.42 650.865   1
  -1 -13  16 -942.23 1599.60   1
 -13   1  16 2886.12 2942.34   1
 -13   1  16 -1816.8 1929.22   1
   1 -16  13  557.71 386.065   1
  13   1 -16 1628.26 2527.83   1
  13   1 -16  890.53 3427.40   1
 -16   1  13 2082.46 2259.95   1
  16   1 -13 -242.97 1665.75   1
   1  13 -16  -62.60 739.719   1
  13  -3 -16 -1642.6 2473.82   1
  -3  16 -13  503.03 392.680   1
 -13  -3  16 -1636.0 2082.46   1
 -13  -3  16 -2666.7 2663.43   1
  -3  13 -16 1532.35 1339.43   1
  -3 -13  16  183.22 575.901   1
   3 -16  13  484.84 421.122   1
   3  16 -13  443.39 362.694   1
  13   3 -16 -1137.7 2641.38   1
  13   3 -16 -1558.8 2964.39   1
 -16   3  13 -907.07 2854.15   1
   3 -13  16 1867.49 1466.21   1
  16   3 -13 -279.35 670.377   1
 -16 -13   5   44.64 260.059   1
  -5 -16  13 1039.24 453.202   1
  -5  13 -16 -2536.7 2661.23   1
 -16  -5  13  825.38 512.512   1
  -5 -13  16  143.64 514.166   1
   5  16 -13  980.82 398.081   1
  13   5 -16 -307.02 1895.05   1
 -16   5  13 3195.90 2576.34   1
   5 -13  16 2110.02 1861.98   1
   5  13 -16 3199.20 1037.92   1
 -16 -13   7  544.15 285.856   1
  -7 -16  13  886.78 400.837   1
  -7  13 -16 2483.74 2577.44   1
 -16  -7  13  220.81 467.644   1
 -13 -16   7  774.78 353.875   1
  -7 -13  16 1354.87 586.594   1
   7  16 -13  856.91 378.348   1
  13   7 -16 -1792.5 3537.64   1
  13   7 -16  330.61 866.717   1
   7 -13  16 -3184.9 2768.16   1
   7 -13  16 -324.22 1426.52   1
  16   7 -13  796.60 636.533   1
  13  16  -7  283.54 310.550   1
   7  13 -16 1418.81 683.055   1
  -9  16 -13  271.19 333.590   1
 -16 -13   9  724.73 331.055   1
  -9 -16  13  277.48 366.001   1
 -13  -9  16 -135.38 449.454   1
 -13  16  -9  323.23 142.762   1
  -9  13 -16 -2664.5 2512.40   1
 -16  -9  13  389.15 363.907   1
 -13 -16   9  353.32 310.770   1
  -9 -13  16 1639.29 651.967   1
   9 -16  13  750.85 384.522   1
   9  16 -13  113.99 323.779   1
  13 -16   9  455.96 167.457   1
  13  16  -9  504.79 328.299   1
   9  13 -16 1385.73 718.773   1
 -11  16 -13  189.50 334.252   1
 -16 -13  11  656.82 330.834   1
 -11 -16  13  585.71 342.961   1
 -13 -11  16  278.80 528.166   1
 -13  16 -11  189.28 254.437   1
 -11  13 -16 -771.25 2490.35   1
 -16 -11  13    7.33 415.940   1
 -13 -16  11  832.76 344.284   1
 -11 -13  16  634.55 481.975   1
  11  16 -13  298.09 326.425   1
  13  11 -16  793.74 755.704   1
  13 -16  11  726.60 285.635   1
  16  11 -13 1547.79 599.492   1
  13  16 -11  251.79 317.495   1
  11  13 -16 -283.43 539.411   1
 -13  16 -13  501.27 485.172   1
 -13 -16  13 1841.03 541.064   1
 -13 -13  16  857.24 548.120   1
  13  16 -13 1322.90 501.378   1
  14   0 -16  733.10 3296.22   1
   0 -14  16  239.11 596.075   1
  16   0 -14 2069.23 2660.12   1
  16   0 -14  669.16 2652.41   1
  14  -2 -16 -1021.8 2784.70   1
  -2  16 -14  783.49 503.141   1
  -2 -16  14  884.14 480.211   1
  16  -2 -14 1802.45 2487.04   1
  16  -2 -14 1120.05 3409.76   1
  -2  14 -16 1706.54 2482.63   1
  -2 -14  16  762.54 525.851   1
   2  16 -14 1859.77 589.240   1
   2 -14  16  310.33 609.745   1
  16   2 -14 -239.11 1549.99   1
   2  14 -16 -604.12 662.220   1
  14  -4 -16 -546.47 2965.49   1
  -4  16 -14  173.19 436.335   1
  -4 -16  14 -100.51 415.279   1
 -14  -4  16  398.85 2020.72   1
  16  -4 -14 -1933.6 2961.08   1
  16  -4 -14 -3122.0 3222.35   1
  -4 -14  16  197.77 497.078   1
   4 -16  14  772.79 377.246   1
   4  16 -14  -23.01 398.853   1
   4 -14  16 1011.24 807.848   1
  16   4 -14  778.08 704.442   1
   4  14 -16  531.03 690.772   1
 -16 -14   6 2069.23 553.522   1
  -6 -16  14 3465.99 876.970   1
 -14  -6  16  959.32 673.574   1
  -6  14 -16 -911.81 1376.91   1
 -16  -6  14 1393.45 569.286   1
  -6 -14  16 2601.70 812.589   1
   6 -16  14 2541.06 691.434   1
  16  14  -6 2343.73 626.060   1
   6  16 -14 3578.43 923.932   1
   6 -14  16 3920.18 2449.56   1
  -8  16 -14   17.35 474.920   1
 -16 -14   8 1051.81 360.158   1
  -8 -16  14  424.76 446.036   1
 -14  -8  16  595.52 586.263   1
  -8  14 -16  -36.93 2418.69   1
 -16  -8  14  118.84 434.241   1
 -14 -16   8  273.07 291.699   1
  -8 -14  16 -265.24 443.501   1
  16  14  -8 1299.75 432.146   1
  14   8 -16  320.80 748.428   1
   8 -14  16 1863.08 1708.74   1
  16   8 -14   76.20 650.534   1
  14  16  -8    9.17 338.772   1
   8  14 -16  305.48 479.550   1
 -10  16 -14 -182.78 396.758   1
 -16 -14  10  111.12 278.470   1
 -14 -10  16 -273.95 506.779   1
 -14  16 -10  125.45 136.699   1
 -10  14 -16 -484.40 3345.82   1
 -16 -10  14  202.95 414.838   1
 -14 -16  10   16.71 274.942   1
 -10 -14  16 -154.01 448.903   1
  16  14 -10 1745.12 504.134   1
  10  16 -14 -352.66 335.244   1
  14  10 -16   48.67 706.867   1
  14 -16  10 -222.69 170.874   1
  10 -14  16  762.54 1274.39   1
  14  16 -10  805.97 379.340   1
 -12  16 -14  509.87 594.972   1
 -16 -14  12  975.97 402.932   1
 -12 -16  14   71.40 347.591   1
 -14 -12  16 -257.96 508.764   1
 -16 -12  14 1147.61 557.049   1
 -14 -16  12   87.19 300.849   1
  12 -16  14 -1332.8 1250.14   1
  16  14 -12  141.00 354.095   1
  12  16 -14  385.84 400.396   1
  14  12 -16 -409.22 621.982   1
  14 -16  12 -188.29 452.982   1
  16  12 -14  484.40 562.341   1
  14  16 -12  221.36 334.141   1
  12  14 -16  299.64 536.104   1
 -14  16 -14 -1195.0 1490.46   1
 -16 -14  14  949.51 492.779   1
 -14 -16  14 1049.17 451.659   1
 -14 -14  16   92.77 492.448   1
  14 -16  14  998.12 981.589   1
  14  16 -14  904.86 428.177   1
  -1 -16  15  117.85 439.091   1
 -15  -1  16  937.05 2160.73   1
 -15  -1  16  563.00 3239.99   1
  16  -1 -15  134.71 2564.21   1
  16  -1 -15 -2851.9 3586.15   1
 -16  -1  15   11.85 2472.71   1
 -16  -1  15 3886.01 2695.40   1
  -1 -15  16  242.75 507.551   1
 -15   1  16 -122.26 3025.02   1
 -15   1  16 -3315.0 2471.61   1
   1 -16  15    3.75 352.552   1
  15   1 -16 1365.89 2784.70   1
 -16   1  15 -621.10 3332.59   1
 -16   1  15 1749.53 2141.99   1
  16   1 -15 2032.85 2816.67   1
  16   1 -15   78.81 2544.37   1
   1  15 -16 -337.12 622.092   1
  -3 -16  15  330.61 410.980   1
 -15  -3  16 -576.12 1984.34   1
 -15  -3  16 1699.92 1899.46   1
  16  -3 -15 -876.31 2788.00   1
  16  -3 -15 1841.03 3524.41   1
 -16  -3  15  602.47 1353.76   1
  -3 -15  16  197.11 496.747   1
 -15   3  16 -810.05 2294.12   1
   3 -16  15  409.77 401.830   1
  15   3 -16 5084.33 3656.70   1
 -16   3  15  750.52 2932.42   1
 -16   3  15 3037.15 2359.16   1
   3 -15  16 -105.74 529.710   1
  16   3 -15 -853.16 1408.88   1
  -5  16 -15 3663.32 984.786   1
 -15  -5  16 1919.30 1077.61   1
  16  -5 -15 -931.32 2574.13   1
  -5 -15  16 4265.24 1051.04   1
   5 -16  15 3085.65 804.541   1
   5  16 -15 5596.95 1319.59   1
  15   5 -16  563.22 2977.62   1
  15   5 -16  910.59 1080.14   1
 -16   5  15 -1146.5 2730.68   1
  16   5 -15 9015.54 5397.42   1
  16   5 -15 1605.11 883.915   1
   5  15 -16 4707.30 1203.84   1
 -16 -15   7  200.86 274.611   1
  -7 -16  15 1178.48 518.575   1
 -15  -7  16   52.96 568.294   1
  -7  15 -16 -883.80 951.824   1
 -15 -16   7  -47.26 251.130   1
  -7 -15  16 -392.68 434.682   1
  16  15  -7  318.05 329.952   1
   7  16 -15  815.79 457.171   1
  15   7 -16 -500.16 812.368   1
  15  16  -7  155.33 300.849   1
 -16  15  -9  673.46 167.677   1
  -9  16 -15  881.71 643.920   1
 -16 -15   9  401.39 290.927   1
  -9 -16  15 1273.29 523.095   1
 -15  -9  16  375.15 504.244   1
  -9  15 -16 1355.97 2037.26   1
 -16  -9  15  244.74 479.770   1
 -15 -16   9  527.28 305.258   1
  16 -15   9  792.75 223.680   1
  16  15  -9  873.77 368.537   1
   9  16 -15  177.16 409.216   1
  15   9 -16  449.89 746.554   1
  15 -16   9  604.23 168.118   1
  15  16  -9  871.13 350.237   1
 -16  15 -11 -341.97 871.237   1
 -11  16 -15 1038.25 799.029   1
 -16 -15  11 -186.20 325.102   1
 -11 -16  15 1241.32 521.441   1
 -15  16 -11  425.86 254.106   1
 -11  15 -16 -701.13 1607.32   1
 -16 -11  15 -113.88 474.258   1
 -15 -16  11  290.04 292.470   1
 -11 -15  16 -471.50 1211.55   1
  11 -16  15 1023.48 1167.46   1
  16  15 -11  302.83 350.347   1
  11  16 -15   23.44 470.730   1
  15  11 -16  364.57 616.029   1
  11 -15  16  220.70 1934.74   1
  15  16 -11  252.78 338.551   1
 -16  15 -13 -368.43 901.333   1
 -13  16 -15 -1340.5 1772.68   1
 -16 -15  13 1660.23 507.000   1
 -13 -16  15  895.05 489.802   1
 -15  16 -13 -2603.9 1742.92   1
 -13  15 -16 -746.55 1358.17   1
 -15 -16  13 1207.14 427.516   1
  13 -16  15  886.01 1022.38   1
  16  15 -13 1606.22 511.630   1
  15  13 -16  843.02 608.753   1
  15 -16  13  332.16 796.383   1
  16  13 -15 1665.75 696.835   1
  13  15 -16 1310.77 677.764   1
 -15  16 -15   52.30 1128.87   1
 -15  16 -15 -202.73 2671.15   1
 -16 -15  15  283.98 468.526   1
 -15 -15  16 -1139.9 1303.05   1
 -15 -15  16  111.78 546.246   1
  15  16 -15 -421.34 422.224   1
  15  15 -16  797.82 589.240   1
 -16   0  16  11719. 6154.77   1
   0 -16  16 1649.21 652.518   1
  16   0 -16 9351.77 5366.55   1
  16   0 -16 -4841.8 4203.50   1
  16  -2 -16 -737.73 2888.32   1
  16  -2 -16  -26.02 3827.58   1
  -2  16 -16 -111.56 629.919   1
 -16  -2  16 4390.91 2988.64   1
 -16  -2  16  772.02 2844.23   1
  -2 -16  16 -436.56 423.768   1
 -16   2  16 -448.02 1830.01   1
 -16   2  16  317.05 3486.93   1
   2 -16  16  682.83 479.991   1
  16   2 -16 2402.16 2907.06   1
  16   2 -16 1691.10 2801.23   1
   2  16 -16  242.31 504.905   1
  16  -4 -16 -931.21 3109.91   1
  -4  16 -16  541.17 595.744   1
 -16  -4  16  909.93 1478.34   1
  -4 -16  16 2245.62 665.417   1
 -16   4  16 -2472.7 3022.82   1
  16   4 -16 -280.01 1607.32   1
  -6  16 -16 -103.05 627.604   1
 -16  -6  16 -4185.9 2887.22   1
 -16  -6  16  -68.27 591.445   1
   6 -16  16  392.68 535.442   1
  16   6 -16 -2823.3 3403.15   1
  16   6 -16  313.20 819.644   1
 -16 -16   8  354.65 345.055   1
  16   8 -16  299.08 713.702   1
  16  16  -8  259.95 306.581   1
   8  16 -16  446.70 491.125   1
 -16  16 -10 1011.35 262.374   1
 -16 -10  16 -106.70 560.246   1
 -16 -16  10 1087.53 381.545   1
 -10 -16  16 1232.50 599.272   1
  16 -16  10  721.97 260.721   1
  10 -16  16 3084.55 1878.51   1
  16  16 -10  568.96 371.293   1
  10  16 -16 1644.80 642.376   1
 -16  16 -12   -4.01 989.967   1
 -16 -12  16  406.13 526.182   1
 -16 -16  12  728.47 350.567   1
 -12 -16  16  729.25 530.812   1
  16 -16  12 -199.65 682.063   1
  12 -16  16  791.97 1083.23   1
  16  16 -12  659.57 362.253   1
  12  16 -16  684.16 553.081   1
 -16  16 -14 -708.74 1098.44   1
 -16  16 -14  182.78 2293.02   1
 -14  16 -16 -597.51 1457.39   1
 -14  16 -16 2566.42 3058.09   1
 -16 -16  14  429.50 393.341   1
 -14 -16  16  384.30 529.269   1
  16  14 -16  506.78 617.572   1
  16  16 -14 -177.82 354.316   1
  14  16 -16  621.76 522.434   1
 -16  16 -16 -120.27 1158.64   1
 -16 -16  16  357.18 491.235   1
  16  16 -16 1024.03 541.395   1
  17  -1   0 5039.13 1137.69   1
  17   1   0 4828.57 1088.52   1
 -17   0   1 4582.73 1037.70   1
  17   0   1 2788.00 648.550   1
  17   0  -1 4679.74 1055.78   1
  17  -2  -1  986.00 310.770   1
 -17   2  -1  574.58 241.098   1
 -17  -2   1  672.69 294.124   1
  17  -1  -2  397.31 278.139   1
 -17  -1   2  526.62 262.705   1
 -17   2   1  649.98 270.753   1
  17  -2   1  569.07 224.672   1
  17   2  -1  831.44 315.290   1
  17   1  -2  668.50 281.887   1
 -17   3   0  363.13 216.183   1
  17  -3   0  425.53 202.954   1
 -17   0   3  156.43 330.834   1
 -17  -3   2  386.62 260.721   1
  17   3  -2 -408.44 235.696   1
  17   2  -3  839.16 295.447   1
 -17   4  -1 -120.60 187.631   1
 -17  -4   1  124.90 211.774   1
 -17  -1   4  216.84 297.431   1
  17   4  -1  -80.07 212.104   1
 -17   1   4  183.99 293.352   1
  17  -4  -3  866.06 361.040   1
 -17   4  -3 2196.01 508.984   1
  17  -3  -4 1132.18 419.689   1
 -17  -3   4 2466.10 615.036   1
  17  -4   3 2681.07 610.186   1
  17   4  -3 1985.45 504.134   1
   4   3 -17 -1288.7 2115.53   1
   3   4 -17 3480.32 1972.22   1
  17  -5   0    6.93 282.218   1
 -17   0   5 -359.17 314.518   1
 -17   5  -2  314.96 183.993   1
 -17  -5   2  408.33 239.224   1
  17  -2  -5  -70.05 342.961   1
 -17  -2   5  305.04 333.480   1
  -2  -5  17 -160.95 1669.05   1
  17  -5   2  189.39 153.015   1
  17   5  -2  667.29 292.801   1
  17   2  -5  608.42 344.614   1
   2   5 -17 -279.35 1171.87   1
  17  -5  -4  17848. 3957.66   1
 -17  -5   4  21376. 4698.48   1
 -17  -4   5  22897. 5031.41   1
 -17   5   4  23647. 5237.56   1
   5   4 -17  19821. 5087.64   1
   4   5 -17  16360. 8402.59   1
   4   5 -17 8464.33 3265.35   1
  17  -1  -6  236.14 366.001   1
 -17  -1   6 -787.56 365.119   1
  -1  -6  17  -36.88 1554.40   1
 -17   6   1  366.77 282.989   1
  17  -6   1  250.25 271.745   1
 -17   1   6  263.70 328.409   1
   1   6 -17 -124.02 1478.34   1
  17  -6  -3 1294.23 639.620   1
 -17   6  -3  213.87 146.731   1
 -17  -6   3 -134.94 216.734   1
  -6  -3  17 -535.22 1751.73   1
 -17  -3   6 1196.12 442.398   1
  -3  -6  17 -2139.8 1732.99   1
  -3  -6  17 -660.57 2463.89   1
  17  -6   3  453.31 181.457   1
 -17   3   6 -390.03 498.401   1
   3   6 -17 1555.51 2327.19   1
   3   6 -17 -1211.6 2290.81   1
  17  -6  -5 2628.15 1695.51   1
  17  -6  -5  309.45 1663.54   1
 -17  -6   5 2807.85 688.347   1
  17  -5  -6 1304.15 1363.69   1
  17  -5  -6 2234.59 1630.47   1
 -17  -5   6 4373.27 1020.72   1
  -5  -6  17  16657. 4899.12   1
 -17   6   5 3553.08 2244.51   1
  17   6  -5 3295.11 778.634   1
  17   5  -6 3662.22 866.386   1
   5   6 -17 4407.45 3322.67   1
   5   6 -17 -1395.7 3043.76   1
 -17   7   0  123.69 257.524   1
 -17   0   7 -253.00 352.882   1
  17   0  -7   27.63 387.168   1
  17  -7  -2 -139.01 644.030   1
 -17  -7   2  135.38 239.775   1
  -7  -2  17  102.77 1961.19   1
  17  -2  -7  773.67 1449.67   1
  17  -2  -7  174.84 478.558   1
  -2   7 -17 -895.93 2067.02   1
 -17  -2   7  270.97 374.820   1
  -2  -7  17 -717.01 1481.64   1
  -2  -7  17 -1487.2 2547.68   1
  17  -7   2  793.41 271.304   1
   7   2 -17 -4400.8 2211.44   1
   2   7 -17 -1016.2 2638.07   1
  17  -7  -4  144.20 1803.55   1
 -17   7  -4  302.39 141.881   1
 -17  -7   4  134.60 235.145   1
  -7  -4  17  743.69 1546.69   1
  -7  -4  17 3956.56 3061.40   1
 -17  -4   7  902.10 431.264   1
  -4  -7  17 -410.10 1428.73   1
  -4  -7  17 -3003.0 2996.36   1
 -17   7   4 1116.74 1662.44   1
 -17   7   4 1390.14 1535.66   1
  17  -7   4  471.83 158.747   1
  17   7  -4  854.37 316.172   1
   7   4 -17   98.38 3111.01   1
   7   4 -17 2258.84 2923.60   1
 -17   4   7 -389.59 1405.58   1
 -17   4   7  460.15 1204.94   1
  17   4  -7  198.10 407.011   1
   4   7 -17 2519.01 2462.79   1
   4   7 -17 -2642.5 2828.79   1
  17  -7  -6 -4795.5 2624.85   1
 -17  -7   6   58.84 281.556   1
  -7  -6  17 -3059.2 2248.92   1
  -7  -6  17 4551.86 3361.26   1
  17  -6  -7 -730.90 1343.84   1
  17  -6  -7 2547.68 2527.83   1
 -17  -6   7  456.07 331.385   1
 -17   7   6 7798.47 3014.00   1
  17   7  -6  938.26 344.173   1
   7   6 -17 -1847.6 2488.15   1
 -17   6   7 2361.37 1911.58   1
  17   6  -7 1122.26 406.129   1
   6   7 -17  114.98 2835.41   1
 -17   8  -1  438.32 287.289   1
  17  -1  -8  755.04 544.702   1
  -1   8 -17 5633.33 3599.38   1
 -17  -1   8  -45.15 387.939   1
 -17   8   1  901.99 1254.55   1
   8   1 -17 2526.73 2370.19   1
 -17   1   8  626.94 1266.67   1
  17  -8  -3  646.79 1007.16   1
  17  -8  -3  321.24 1574.25   1
 -17   8  -3   96.75 223.790   1
 -17  -8   3   -7.59 230.074   1
  -3 -17   8   -7.31 212.876   1
  -8  -3  17 -370.08 1585.27   1
  -8  -3  17 1041.45 2883.91   1
 -17  -3   8   60.13 369.529   1
  -3  -8  17 -677.21 3137.47   1
  -3  -8  17 -1999.8 1873.00   1
 -17   8   3  774.11 1328.41   1
  17  -8   3   99.56 179.693   1
  17   8  -3   91.72 249.256   1
   8   3 -17 1882.92 2908.17   1
   8   3 -17  -44.03 3224.56   1
   3  -8  17 -1075.2 2234.59   1
  17   3  -8 -176.94 380.333   1
   3   8 -17 2064.82 2735.09   1
   3   8 -17 1362.58 3111.01   1
  17  -8  -5  906.40 1451.88   1
  17  -8  -5 -126.56 1911.58   1
 -17   8  -5  379.23 161.504   1
 -17  -8   5  -72.12 267.445   1
  -5 -17   8  -16.73 262.154   1
  -8  -5  17 -1206.0 1775.99   1
  -8  -5  17  341.20 3429.61   1
  17  -5  -8 2016.31 1644.80   1
  17  -5  -8 1384.63 2402.16   1
 -17  -5   8  244.07 402.712   1
  -5  -8  17 1922.61 1939.14   1
  -5  -8  17 -597.29 2589.57   1
 -17   8   5 1220.37 1985.45   1
 -17   8   5  663.76 1321.79   1
  17   8  -5  481.09 271.524   1
   5  17  -8  285.41 259.508   1
   8   5 -17 1273.29 2388.93   1
   8   5 -17  -19.07 3310.55   1
 -17   5   8  356.52 1516.92   1
 -17   5   8  949.07 2336.01   1
  17   5  -8  108.14 437.438   1
   5   8 -17 -2650.2 2621.54   1
   5   8 -17 -1017.9 2545.47   1
 -17  -8   7  202.18 298.093   1
  -7 -17   8  595.85 327.968   1
  -8  -7  17  -88.91 1864.18   1
  -8  -7  17 1932.53 2608.31   1
  17  -7  -8 -3098.9 2331.60   1
  17  -7  -8 2663.43 2425.31   1
 -17  -7   8  582.74 363.135   1
  -7  -8  17 1306.36 2132.07   1
  17   8  -7  345.39 321.464   1
   7  17  -8  202.18 269.760   1
   8   7 -17 -2737.3 3103.29   1
   8   7 -17  11454. 3787.89   1
 -17   7   8 -1610.6 1975.52   1
  17   7  -8  655.38 371.844   1
   7   8 -17 2440.74 2796.82   1
 -17   9   0  983.79 1189.50   1
  -9   0  17  11145. 3532.13   1
  17  -9   0  420.90 896.482   1
  17  -9   0 -591.67 1114.54   1
   0 -17   9 1383.53 409.546   1
   9   0 -17 -1013.8 2643.59   1
 -17   0   9 1807.96 1684.49   1
 -17   0   9  427.74 505.015   1
   0   9 -17  655.83 2522.32   1
  17  -9  -2    9.70 1000.55   1
  17  -9  -2 -865.28 1418.81   1
  -2  17  -9 1996.47 501.378   1
  -9  -2  17  665.42 1562.12   1
  -9  -2  17    1.00 3126.44   1
  17  -2  -9  485.50 1179.58   1
  -2   9 -17 -1015.2 2748.32   1
 -17  -2   9 1156.43 468.636   1
  -2  -9  17 1287.62 1648.11   1
 -17   9   2 -380.22 1823.39   1
  17  -9   2  149.82 236.578   1
   2 -17   9 1680.08 431.154   1
   2  17  -9 1005.95 339.984   1
   9   2 -17 -1314.1 3267.55   1
   9   2 -17 3325.98 3205.82   1
   2  -9  17 1400.06 1430.93   1
   2  -9  17 1158.64 2733.98   1
  17   2  -9  652.63 504.244   1
  17  -9  -4  480.87 1688.90   1
 -17   9  -4  355.09 213.096   1
  -4  17  -9  153.90 193.253   1
 -17  -9   4  423.99 268.548   1
  -9  -4  17 3216.84 2239.00   1
  -9  -4  17 2221.36 3400.94   1
  -4   9 -17  949.84 2123.25   1
 -17  -4   9   71.28 377.356   1
  -4  -9  17  864.73 1817.88   1
  -4  -9  17 1141.00 2482.63   1
 -17   9   4 -483.63 1499.28   1
  17  -9   4  213.21 167.016   1
   4 -17   9   37.97 191.379   1
  17   9  -4  134.16 270.312   1
   4  17  -9   33.55 248.594   1
   9   4 -17 -3397.6 2869.58   1
   9   4 -17 -3660.0 3491.34   1
 -17   4   9 1190.61 2319.48   1
 -17   4   9  698.16 1682.28   1
   4  -9  17  399.96 2070.33   1
  17   4  -9   26.17 418.366   1
   4   9 -17 1112.33 2838.71   1
   4   9 -17 -1930.3 2261.05   1
  17  -9  -6 1002.76 1602.91   1
  -6  17  -9  -55.88 185.426   1
  -9  -6  17  132.40 1854.26   1
  -9  -6  17 -201.08 2602.80   1
  17  -6  -9 4797.70 3004.08   1
  17  -6  -9 -859.44 2535.55   1
 -17  -6   9  266.01 393.341   1
  17   9  -6  431.15 279.352   1
   6  17  -9  294.23 286.407   1
   9   6 -17 1643.70 2986.44   1
   9   6 -17 -1405.6 2662.33   1
 -17   6   9 2137.58 1914.89   1
 -17   6   9 -1196.1 2288.61   1
  17   6  -9  636.64 480.432   1
   6   9 -17 -222.91 1757.25   1
  -9  -8  17  16084. 3909.16   1
  -9 -17   8  11498. 2550.98   1
  -8  -9  17  10176. 2590.67   1
   8 -17   9  12314. 2708.63   1
   8  17  -9 9693.52 2155.22   1
   9   8 -17  11201. 3130.85   1
  17   8  -9  12590. 2800.13   1
   9  17  -8  12038. 2671.15   1
   8   9 -17 7720.20 2095.69   1
  17 -10  -1 -1038.6 1264.47   1
  17 -10  -1  613.82 1365.89   1
  10  -1 -17  184.98 2919.19   1
 -17  10  -1 4244.29 2424.21   1
  -1 -17  10 1376.91 393.341   1
  -1  10 -17 8635.20 5014.88   1
  -1  10 -17 -428.73 2685.48   1
 -17  -1  10  748.43 525.741   1
  -1 -10  17  798.26 2601.70   1
 -17  10   1  153.35 1161.94   1
  17 -10   1 -1643.7 1333.92   1
  17 -10   1  922.94 976.848   1
   1 -17  10 3586.15 826.589   1
   1  17 -10 1027.67 329.181   1
  10   1 -17 -3205.8 3236.69   1
  10   1 -17 2854.15 3245.50   1
 -17   1  10 2258.84 1024.69   1
   1 -10  17 3495.75 2252.23   1
   1 -10  17  -55.90 2795.72   1
  17   1 -10  500.72 585.381   1
   1  10 -17 -4339.1 3402.05   1
   1  10 -17 -1651.4 2509.09   1
  17 -10  -3  995.37 1231.40   1
  -3  17 -10  341.20 219.711   1
  -3 -17  10  479.00 276.706   1
  17  -3 -10 -334.91 1726.38   1
  17  -3 -10 -924.48 2046.08   1
 -17  -3  10  -57.80 406.019   1
  -3 -10  17  -48.35 1708.74   1
  -3 -10  17 1974.42 1836.62   1
  17 -10   3  -71.88 231.507   1
   3 -17  10  368.32 216.404   1
   3  17 -10  301.62 248.704   1
  10   3 -17 2112.22 2977.62   1
  10   3 -17 -580.09 3296.22   1
   3 -10  17 -1561.0 1532.35   1
   3 -10  17 -1336.1 2549.88   1
  17   3 -10  788.89 521.552   1
   3  10 -17 -1372.5 2888.32   1
 -17  10  -5  481.31 197.993   1
  -5  17 -10   93.08 185.757   1
  -5 -17  10 -175.95 263.146   1
 -17  -5  10  106.03 363.686   1
  -5 -10  17  -19.28 1350.46   1
  17 -10   5  256.20 130.085   1
   5 -17  10  497.19 231.066   1
  17  10  -5  164.92 263.477   1
   5  17 -10 -506.45 272.517   1
  10   5 -17 1951.27 2664.53   1
  10   5 -17 1660.23 2935.73   1
 -17   5  10 -2310.7 2714.14   1
   5 -10  17 -781.06 1956.78   1
  17   5 -10  578.99 474.809   1
   5  10 -17 1025.02 1257.85   1
  -7  17 -10  296.88 191.048   1
 -17 -10   7  389.59 275.273   1
  -7 -17  10   38.32 275.052   1
  17  -7 -10 -2332.7 2073.64   1
 -17  -7  10  441.63 436.886   1
  -7 -10  17 -681.51 736.412   1
   7  17 -10   -0.79 254.327   1
  10   7 -17 1659.13 2165.14   1
 -17   7  10 -897.58 2072.54   1
  17   7 -10  734.54 523.536   1
  -9  17 -10  10896. 2396.65   1
 -17 -10   9  10957. 2434.13   1
  -9 -17  10  11355. 2517.91   1
  -9 -10  17 4139.56 3076.84   1
  -9 -10  17 5880.27 1532.35   1
   9 -17  10  12226. 2692.09   1
   9  17 -10  10578. 2348.14   1
  10   9 -17 6224.22 1724.17   1
  10 -17   9  11895. 2614.92   1
  10  17  -9  10829. 2415.39   1
   9  10 -17 2545.47 3662.22   1
 -11   0  17 -511.08 2017.42   1
  17 -11   0   91.24 986.990   1
   0 -17  11  556.61 273.950   1
 -17   0  11  -42.44 926.799   1
   0 -11  17 -1578.7 1782.60   1
   0 -11  17 -738.18 2286.40   1
  17   0 -11  877.63 888.655   1
   0  11 -17 -3861.8 3400.94   1
   0  11 -17 1553.30 1958.99   1
 -17  11  -2 2631.46 1772.68   1
  -2  17 -11  275.27 237.129   1
  -2 -17  11  587.48 297.762   1
 -17  -2  11 -310.55 493.220   1
  17 -11   2 -390.92 820.636   1
  17 -11   2 -773.45 1103.52   1
   2 -17  11   97.22 222.246   1
   2  17 -11  847.87 325.102   1
 -17   2  11 1309.67 2024.03   1
 -17   2  11  590.56 1788.11   1
   2 -11  17 -1009.4 1617.24   1
  17   2 -11  248.48 560.467   1
   2  11 -17 -2106.7 1412.19   1
  -4  17 -11  -35.29 198.324   1
 -17 -11   4  427.19 259.067   1
  -4 -17  11  202.40 259.288   1
 -11  -4  17 -169.00 1892.84   1
 -11  -4  17   61.27 3244.40   1
  17  -4 -11 -1259.0 2015.21   1
  17  -4 -11  638.52 2720.76   1
  -4  11 -17  189.95 2697.60   1
 -17  -4  11  423.88 425.862   1
  -4 -11  17  457.28 941.351   1
  17 -11   4  124.68 293.903   1
   4 -17  11  271.08 213.537   1
 -17   4  11 2180.57 2048.28   1
  17   4 -11  615.48 523.977   1
   4  11 -17  587.04 2732.88   1
   4  11 -17  266.89 1002.64   1
 -17  11  -6  250.36 130.305   1
  -6  17 -11  -57.05 203.616   1
 -17 -11   6   -0.22 254.878   1
  -6 -17  11 -109.54 252.342   1
 -11  -6  17 -455.41 2064.82   1
 -11  -6  17 2446.25 2027.34   1
  17  -6 -11 -609.52 2513.50   1
  -6  11 -17 4213.42 3012.90   1
 -17  -6  11  263.04 354.426   1
  17 -11   6  129.97  97.431   1
  17  11  -6 -138.46 257.965   1
  17   6 -11  489.03 483.188   1
   6  11 -17  251.02 757.799   1
  -8  17 -11  540.29 235.475   1
 -17 -11   8  564.22 304.597   1
  -8 -17  11  272.08 299.415   1
 -11  -8  17 -2508.0 2192.70   1
 -11  -8  17  688.13 877.962   1
  -8  11 -17 2442.95 2251.13   1
 -11 -17   8  647.78 336.897   1
  -8 -11  17  514.61 670.708   1
   8 -17  11  743.03 280.895   1
  17  11  -8  304.38 314.739   1
  17   8 -11  633.23 509.756   1
  11  17  -8  623.86 368.206   1
   8  11 -17 -619.23 772.130   1
 -10  17 -11  372.17 213.758   1
 -17 -11  10  360.60 316.613   1
 -10 -17  11 -136.81 305.258   1
 -11 -10  17 -523.32 666.519   1
 -11  17 -10   14.94 144.967   1
 -17 -10  11 -220.92 381.655   1
 -11 -17  10  312.98 311.101   1
 -10 -11  17 -870.58 590.342   1
  10 -17  11  691.54 240.106   1
  17  11 -10  571.05 346.378   1
  11  10 -17 -118.51 834.306   1
  11 -17  10  180.91 186.859   1
  11  17 -10  -36.47 305.148   1
  12  -1 -17 -153.57 2431.92   1
 -12  -1  17 1149.82 1947.96   1
 -12  -1  17 1492.67 3102.19   1
  17  -1 -12  813.47 2216.95   1
  17  -1 -12  817.11 2151.91   1
 -17  -1  12  -12.66 800.572   1
  -1 -12  17 -1021.7 1404.47   1
 -12   1  17 -1113.4 2278.69   1
   1 -17  12   89.16 230.625   1
   1  17 -12  -90.99 278.580   1
  12   1 -17 1692.20 3493.55   1
  12   1 -17 -4514.4 4001.76   1
 -17   1  12 4152.79 2769.26   1
 -17   1  12 -367.21 1748.43   1
   1 -12  17 1351.56 1993.16   1
   1 -12  17  374.93 1696.61   1
  17   1 -12  424.32 824.826   1
   1  12 -17 -322.01 1044.32   1
  -3  17 -12   95.73 242.862   1
 -12  -3  17 1669.05 2138.68   1
 -12  -3  17 3959.87 3707.42   1
  -3  12 -17 -1278.8 3068.02   1
 -17  -3  12   80.02 515.378   1
  17 -12   3 -501.82 998.897   1
  17 -12   3 -401.50 1067.25   1
   3 -17  12  801.34 301.841   1
   3  17 -12  153.79 257.524   1
  12   3 -17  616.91 2865.17   1
  12   3 -17 -1974.4 3737.18   1
 -17   3  12 4290.59 2870.68   1
 -17   3  12  779.85 3232.28   1
  17   3 -12 -142.76 668.944   1
 -17  12  -5  100.21 932.201   1
  -5  17 -12 1284.31 377.797   1
 -17 -12   5  842.57 336.677   1
  -5 -17  12  954.69 353.764   1
 -12  -5  17  704.44 2105.61   1
  17  -5 -12 1871.90 2523.42   1
  17  -5 -12 2123.25 3849.63   1
  -5  12 -17 -3448.3 2945.65   1
 -17  -5  12  941.46 493.991   1
  -5 -12  17 -1322.9 1882.92   1
  -5 -12  17 2663.43 941.351   1
   5 -17  12 1272.18 380.002   1
  17  12  -5  187.52 297.211   1
   5  17 -12  556.94 311.652   1
  12   5 -17 6212.10 4292.80   1
  12   5 -17 6076.50 3395.43   1
 -17   5  12 2151.91 2041.67   1
  17   5 -12 1006.94 608.863   1
   5  12 -17 2565.32 942.784   1
 -17  12  -7  516.15 145.188   1
  -7  17 -12  175.39 227.538   1
 -17 -12   7  680.63 336.787   1
  -7 -17  12 -176.28 279.903   1
 -12  -7  17  -28.94 1134.38   1
  17  -7 -12 -586.15 2241.21   1
  -7  12 -17 -908.50 2530.04   1
  -7  12 -17  -32.95 2543.27   1
 -17  -7  12 -134.83 389.262   1
  -7 -12  17  -35.26 615.147   1
  17  12  -7  969.24 366.993   1
   7  17 -12  476.68 318.487   1
  12   7 -17 -1170.8 1133.28   1
   7 -12  17 -730.35 1556.61   1
   7 -12  17 -2024.0 2720.76   1
  17   7 -12 -300.96 479.329   1
  -9  17 -12  100.78 279.792   1
 -17 -12   9  169.77 283.761   1
  -9 -17  12  228.86 282.769   1
 -12  -9  17 -345.06 1961.19   1
 -12  -9  17 -240.11 656.267   1
  -9  12 -17 -938.04 2223.57   1
   9 -17  12  516.26 289.383   1
  17  12  -9 -164.26 313.526   1
   9  17 -12  130.97 309.999   1
  12   9 -17 -299.42 873.332   1
  17   9 -12  726.49 519.567   1
  12  17  -9   99.42 382.648   1
   9  12 -17  -82.47 703.670   1
 -11  17 -12  200.20 240.216   1
 -17 -12  11  817.33 350.678   1
 -11 -17  12  285.19 306.581   1
 -12 -11  17 -280.01 522.323   1
 -12  17 -11  -88.51 172.307   1
 -17 -11  12  451.33 382.758   1
 -11 -12  17 -644.36 543.820   1
  17  12 -11  264.47 343.622   1
  11  17 -12  570.72 345.496   1
  12  11 -17   -0.23 731.341   1
  12 -17  11  312.31 204.057   1
  12  17 -11  284.97 389.262   1
  11  12 -17 -389.70 756.145   1
 -13   0  17 1458.49 1994.27   1
 -13   0  17 -532.13 3104.40   1
   0 -17  13   38.11 354.536   1
  13   0 -17 5017.08 4321.46   1
  13   0 -17 -1547.8 3684.26   1
 -17   0  13 1396.76 1439.75   1
 -17   0  13 3104.40 2413.18   1
   0 -13  17 -247.82 847.315   1
  17   0 -13 2719.65 2695.40   1
  13  -2 -17 1892.84 2506.89   1
  -2  17 -13 1000.22 407.121   1
  -2 -17  13  476.57 328.740   1
 -13  -2  17 -3253.2 2543.27   1
 -13  -2  17 -3749.3 3492.44   1
  17  -2 -13 1705.43 2429.72   1
 -17  -2  13  831.88 1707.64   1
 -17  -2  13  245.73 691.434   1
  -2 -13  17  848.09 673.354   1
 -13   2  17  164.48 2299.63   1
   2 -17  13  916.88 426.634   1
   2  17 -13 1374.71 432.256   1
  13   2 -17 1497.08 2860.76   1
  13   2 -17 1704.33 3824.27   1
 -17   2  13 -2320.6 3136.37   1
 -17   2  13  532.25 1899.46   1
  17   2 -13  912.14 782.052   1
   2  13 -17 2764.85 3118.73   1
   2  13 -17 -621.10 759.232   1
  -4  17 -13 5833.97 1344.94   1
  -4 -17  13 5364.34 1239.11   1
 -13  -4  17 4184.76 3073.53   1
  -4  13 -17  327.64 2759.34   1
 -17  -4  13 4679.74 1204.94   1
  -4 -13  17 4946.53 1319.59   1
   4 -17  13 4967.47 1147.61   1
   4  17 -13 5924.37 1344.94   1
  13   4 -17 -1270.0 2988.64   1
  13   4 -17 5356.63 4092.16   1
 -17   4  13 6894.49 3888.21   1
   4 -13  17 1660.23 1952.37   1
   4  13 -17  13449. 3088.96   1
 -17  13  -6 1195.02 932.421   1
  -6  17 -13 2442.95 633.447   1
 -17 -13   6 1509.20 461.250   1
  -6 -17  13 3224.56 778.855   1
 -13  -6  17 3269.76 1568.73   1
  17  -6 -13   23.94 2277.59   1
  -6  13 -17 8975.85 5147.17   1
 -17  -6  13 2068.13 646.676   1
   6 -17  13 1846.54 561.239   1
  17  13  -6  936.50 388.049   1
   6  17 -13 3932.31 923.822   1
  13   6 -17 -927.79 1870.80   1
 -17   6  13  482.20 2382.31   1
   6 -13  17 3478.11 2299.63   1
   6 -13  17 5310.32 3081.24   1
  17   6 -13 2560.91 810.825   1
   6  13 -17 1079.92 645.242   1
 -17 -13   8  384.19 281.997   1
  -8 -17  13  354.21 287.289   1
 -13  -8  17  642.49 743.688   1
 -17  -8  13  -83.89 393.561   1
 -13 -17   8 -160.18 287.730   1
  -8 -13  17   62.50 506.118   1
  17  13  -8  443.39 324.550   1
  13   8 -17 -2552.1 3496.85   1
  13   8 -17  709.51 963.619   1
   8 -13  17 -2297.4 1710.95   1
  17   8 -13  463.79 506.669   1
  13  17  -8   55.32 318.818   1
   8  13 -17 -264.91 610.737   1
 -17 -13  10 -428.84 304.707   1
 -10 -17  13   33.67 309.447   1
 -13  17 -10  -60.13 123.140   1
 -13 -17  10  250.03 291.478   1
 -10 -13  17  625.73 544.151   1
  10 -17  13  220.70 299.967   1
  17  13 -10  244.29 295.447   1
  13  10 -17  244.74 886.891   1
  13 -17  10  -50.05 132.510   1
  17  10 -13 -136.26 512.622   1
  13  17 -10 -104.61 308.124   1
  10  13 -17 -105.51 661.117   1
 -12  17 -13  716.68 373.498   1
 -17 -13  12 2761.54 719.986   1
 -13 -12  17 1034.84 666.299   1
 -13  17 -12 1448.57 462.132   1
 -17 -12  13 2469.41 703.670   1
 -13 -17  12 1663.54 489.471   1
  12 -17  13 1057.88 430.162   1
  17  13 -12 3533.23 876.749   1
  12  17 -13 1543.38 481.534   1
  13  12 -17 2093.48 1003.97   1
  13 -17  12 1630.47 462.683   1
  17  12 -13 2673.35 763.421   1
  13  17 -12 1663.54 508.653   1
  12  13 -17    5.60 671.811   1
  14  -1 -17 1096.24 3020.61   1
  14  -1 -17 -370.41 3323.78   1
  -1 -17  14  220.04 367.214   1
 -14  -1  17 -263.26 1748.43   1
 -14  -1  17 -2949.0 3322.67   1
  -1  14 -17 -198.43 759.563   1
 -17  -1  14  467.42 2019.62   1
 -17  -1  14 -1023.0 1326.20   1
  -1 -14  17 -794.51 679.858   1
 -14   1  17 -3558.6 2537.76   1
 -14   1  17 1160.84 3223.46   1
   1 -17  14 -228.86 370.521   1
   1  17 -14  542.28 368.096   1
  14   1 -17 -420.57 2685.48   1
  14   1 -17 1035.39 3764.74   1
 -17   1  14 -1602.9 2059.31   1
 -17   1  14 -2246.7 3184.87   1
   1  14 -17 -473.82 725.608   1
  14  -3 -17 1085.88 2495.86   1
  -3  17 -14  334.58 382.317   1
  -3 -17  14  292.47 394.002   1
  -3  14 -17 1697.72 990.298   1
 -17  -3  14  866.83 794.178   1
 -14   3  17  363.13 2612.72   1
  14   3 -17 -4238.8 3500.16   1
  14   3 -17 2763.75 3386.61   1
 -17   3  14 -3578.4 3592.76   1
   3 -14  17  713.48 1178.48   1
  -5  14 -17  28784.  14420.   1
 -17  -5  14  25819. 5711.60   1
  -5 -14  17  22500. 4985.11   1
   5  17 -14  26392. 5802.00   1
  14   5 -17  10137. 5787.67   1
  14   5 -17  22192. 5396.31   1
   5 -14  17  23371.  11597.   1
   5 -14  17  25069. 5954.13   1
  17   5 -14  22500. 5001.65   1
   5  14 -17  20284. 4527.61   1
  -7 -17  14  -41.75 310.991   1
 -14  -7  17 1690.00 883.143   1
  -7  14 -17 7400.50 3602.69   1
 -17  -7  14  281.67 456.950   1
 -14 -17   7  180.02 316.503   1
  -7 -14  17   68.89 506.559   1
  17  14  -7  217.95 300.077   1
   7  17 -14  702.57 352.111   1
   7 -14  17  178.04 1412.19   1
  17   7 -14  186.64 638.628   1
   7  14 -17  360.71 591.334   1
  -9 -17  14   98.48 324.330   1
 -14  -9  17 -204.50 579.428   1
  -9  14 -17 1845.44 3267.55   1
 -17  -9  14 -111.78 402.932   1
  -9 -14  17  922.39 575.570   1
   9 -17  14  230.40 358.174   1
  17  14  -9  251.24 303.384   1
   9  17 -14 -254.22 304.376   1
  14   9 -17 -523.10 852.496   1
  17   9 -14  510.97 483.959   1
   9  14 -17 -158.64 633.557   1
 -11  17 -14  -78.03 378.679   1
 -17 -14  11  605.56 322.676   1
 -11 -17  14  366.88 371.954   1
 -14 -11  17  859.33 618.564   1
 -14  17 -11  187.30 171.535   1
 -11 -14  17 -268.44 478.668   1
  17  14 -11  348.58 325.653   1
  11  17 -14  943.33 394.774   1
  14  11 -17 1065.15 841.472   1
  14 -17  11  -65.52 226.766   1
  14  17 -11  107.29 352.001   1
  11  14 -17 -832.32 621.541   1
 -17 -14  13 3446.14 868.812   1
 -13 -17  14 3058.09 779.406   1
 -17 -13  14 1779.29 623.304   1
  17  14 -13 4112.00 997.574   1
  13  17 -14 4575.01 1077.39   1
  14  13 -17  698.27 705.214   1
  17  13 -14 2575.24 737.955   1
  14  17 -13 3228.97 799.801   1
  15   0 -17 1564.32 2978.72   1
  15   0 -17 -635.54 3676.55   1
   0 -15  17  430.49 565.317   1
  17   0 -15 -529.05 2484.84   1
  17   0 -15 -388.82 3163.93   1
  15  -2 -17 1512.51 2975.41   1
  15  -2 -17 -496.75 3806.63   1
  -2  17 -15  418.04 486.054   1
  -2 -17  15 -674.35 467.754   1
  17  -2 -15 1069.34 2404.36   1
  17  -2 -15 -2836.5 4143.97   1
  -2 -15  17  387.50 512.071   1
   2 -17  15  617.68 405.137   1
   2  17 -15  338.00 399.625   1
   2 -15  17  -87.22 595.744   1
  17   2 -15 -666.30 1793.63   1
   2  15 -17 -251.02 656.046   1
  15  -4 -17   87.12 3316.06   1
  -4  17 -15 4438.32 1084.11   1
  -4 -17  15 4701.79 1127.77   1
 -15  -4  17 -1998.7 2267.66   1
 -15  -4  17 2187.19 2342.63   1
  17  -4 -15 -2491.5 2867.38   1
  17  -4 -15 -901.00 4329.18   1
 -17  -4  15 2792.41 950.060   1
  -4 -15  17 4092.16 1067.91   1
   4 -17  15 5734.75 1330.61   1
   4  17 -15 4577.22 1082.46   1
   4 -15  17 2500.27 944.107   1
   4  15 -17 2926.91 935.287   1
 -17 -15   6  230.62 266.453   1
  -6 -17  15 -352.55 392.349   1
 -15  -6  17 -987.98 1007.05   1
  17  -6 -15 -2396.6 3729.46   1
  -6  15 -17    9.62 1271.08   1
 -17  -6  15  471.17 581.523   1
  -6 -15  17 -110.57 564.656   1
   6 -17  15  684.38 397.199   1
   6  17 -15  -36.95 334.913   1
  15   6 -17  232.06 996.471   1
   6 -15  17 1682.28 1904.97   1
  17   6 -15  280.78 674.897   1
  -8  17 -15   20.70 518.134   1
 -17 -15   8 -219.38 235.806   1
  -8 -17  15 -118.95 365.891   1
 -15  -8  17  325.32 655.715   1
  -8  15 -17  319.59 2019.62   1
  -8  15 -17  934.41 2141.99   1
 -17  -8  15  415.06 487.597   1
 -15 -17   8  283.10 285.194   1
  -8 -15  17  114.65 434.020   1
  15   8 -17  430.49 843.787   1
  17   8 -15 -225.66 658.912   1
  15  17  -8 -100.07 323.558   1
   8  15 -17 -152.68 472.825   1
 -17 -15  10   10.87 353.985   1
 -15 -10  17   70.62 577.554   1
 -15  17 -10  146.73 119.832   1
 -10  15 -17  321.02 1756.14   1
 -17 -10  15  396.87 472.274   1
 -15 -17  10 -225.22 305.589   1
 -10 -15  17 -695.40 524.638   1
  10 -17  15 -669.94 549.884   1
  10  17 -15  399.18 421.232   1
  15  10 -17  -60.65 781.721   1
  15 -17  10  362.03 144.085   1
  10 -15  17 1296.44 1802.45   1
  17  10 -15 -215.96 522.434   1
  15  17 -10  209.90 329.511   1
 -15  17 -12 -112.12 278.139   1
 -12  15 -17 -3656.7 2254.43   1
 -17 -12  15  575.24 489.251   1
 -15 -17  12  854.15 385.955   1
  12 -17  15  -58.49 778.745   1
  17  15 -12 1690.00 501.598   1
  12  17 -15  744.68 427.626   1
  15  12 -17  318.93 674.897   1
  15  17 -12  809.50 399.735   1
  12  15 -17 -662.00 556.498   1
 -14  17 -15   40.01 1391.25   1
 -17 -15  14 1798.04 562.010   1
 -14 -17  15  441.52 388.380   1
 -15  17 -14   99.36 1354.87   1
 -14  15 -17  508.98 2072.54   1
 -17 -14  15  734.54 561.790   1
 -15 -17  14 1204.94 451.879   1
 -14 -15  17  -17.35 507.772   1
  14 -17  15 -579.54 1058.87   1
  17  15 -14 2106.71 619.777   1
  14  17 -15  152.68 387.939   1
  15  14 -17  433.47 620.879   1
  15 -17  14   15.74 899.018   1
  17  14 -15  228.64 496.086   1
  15  17 -14  363.36 356.190   1
  -1 -17  16 2850.84 760.996   1
 -16  -1  17 -3711.8 2728.47   1
 -16  -1  17 6959.53 4847.31   1
  17  -1 -16 -2254.4 2685.48   1
  17  -1 -16 -3987.4 5254.10   1
 -17  -1  16 -274.72 1834.42   1
 -17  -1  16 1559.91 3467.09   1
  -1 -16  17 -395.44 522.544   1
 -16   1  17 -1857.6 4300.51   1
   1 -17  16 -282.55 369.749   1
  16   1 -17  122.48 2546.57   1
 -17   1  16  565.76 1927.02   1
 -17   1  16  582.52 4841.80   1
  17   1 -16 2006.39 2579.65   1
  17   1 -16 1166.35 3644.58   1
   1  16 -17 -343.73 630.470   1
 -16  -3  17 -2525.6 2258.84   1
 -16  -3  17 -814.24 2775.88   1
  17  -3 -16 1604.01 2709.73   1
  17  -3 -16 -1892.8 4459.26   1
  -3 -16  17 -277.15 491.786   1
   3 -17  16 -174.18 389.703   1
  16   3 -17  587.81 2557.60   1
  16   3 -17 -1284.3 3125.34   1
 -17   3  16 1652.52 1881.82   1
 -17   3  16 -723.73 3994.04   1
   3 -16  17  561.13 555.947   1
  17   3 -16 -1816.8 1799.14   1
   3  16 -17  746.55 637.526   1
  16  -5 -17 1505.90 3518.90   1
  -5  17 -16 -406.90 547.679   1
 -16  -5  17 -1866.4 1486.05   1
  17  -5 -16 3051.48 3060.30   1
  -5  16 -17 -722.74 679.638   1
  -5 -16  17  585.93 460.258   1
   5 -17  16  336.79 401.168   1
   5  17 -16   -5.04 396.318   1
  16   5 -17 -550.77 1208.24   1
 -17   5  16 1930.33 3210.23   1
  17   5 -16  243.30 899.790   1
   5  16 -17 -507.88 560.467   1
 -17 -16   7 -164.37 288.502   1
  -7 -17  16 -393.34 466.872   1
 -16  -7  17 1780.40 1842.13   1
 -16  -7  17  779.08 705.985   1
  -7  16 -17  190.61 852.717   1
 -17  -7  16  494.98 630.470   1
 -16 -17   7 -110.57 250.579   1
  -7 -16  17  173.85 470.400   1
  17  16  -7  288.50 324.109   1
   7  17 -16  -45.27 418.145   1
  16   7 -17  -72.23 840.149   1
   7 -16  17  951.93 996.030   1
  -9  17 -16  585.27 703.340   1
 -17 -16   9  610.52 326.425   1
  -9 -17  16   37.77 487.156   1
  -9  16 -17 2897.14 2402.16   1
  -9  16 -17  491.90 1376.91   1
 -17  -9  16  854.15 599.603   1
 -16 -17   9  432.04 316.723   1
  17 -16   9  598.61 156.432   1
  17  16  -9  484.18 309.117   1
   9  17 -16  814.68 500.606   1
  16   9 -17 -208.80 809.722   1
  17   9 -16  407.23 762.870   1
   9  16 -17 1203.84 589.571   1
 -17  16 -11  -33.66 330.062   1
 -11  17 -16  335.68 722.522   1
 -17 -16  11 1309.67 436.445   1
 -11 -17  16 1488.26 596.295   1
 -16 -11  17  422.78 631.132   1
 -11  16 -17 -1510.3 2087.97   1
 -17 -11  16   77.24 482.967   1
 -11 -16  17  873.33 555.175   1
  17 -16  11  626.17 652.629   1
  11 -17  16  966.82 1424.32   1
  11  17 -16  513.06 472.935   1
  16 -17  11  852.06 317.715   1
  11 -16  17 -678.09 1127.77   1
  17  11 -16  925.81 654.613   1
  16  17 -11 1371.40 438.209   1
 -13  17 -16 1246.83 1656.93   1
 -17 -16  13  304.82 378.899   1
 -13 -17  16 1118.95 543.269   1
 -16 -13  17  429.39 557.380   1
 -16  17 -13 -164.15 594.642   1
 -13  16 -17  361.15 3284.09   1
 -17 -13  16  376.69 480.873   1
 -16 -17  13  489.58 356.520   1
  13 -17  16  -16.14 1118.95   1
  16  13 -17 1480.54 714.253   1
  16 -17  13   32.42 805.864   1
  13 -16  17 -1039.8 1155.33   1
  16  17 -13 1213.76 435.012   1
  13  16 -17 1117.85 661.117   1
 -15 -17  16 -1243.5 550.214   1
 -17 -15  16 -244.29 512.953   1
 -16 -17  15  395.99 410.539   1
 -15 -16  17  206.81 525.300   1
  15 -17  16  341.42 842.133   1
  17  16 -15 -455.30 395.325   1
  16  15 -17 -417.15 573.696   1
  16 -17  15 -444.16 790.871   1
  17  15 -16  464.78 517.914   1
  16  17 -15  141.33 361.592   1
  15  16 -17 -814.35 581.964   1
 -17   0  17  10691. 5659.79   1
  17   0 -17 7551.53 4506.67   1
  17   0 -17  33094. 8968.13   1
   0  17 -17  29919. 6618.89   1
  17  -2 -17 -395.66 2629.26   1
  17  -2 -17  583.73 3641.27   1
 -17  -2  17  882.48 1832.21   1
 -17  -2  17 -1843.2 2695.40   1
  -2 -17  17  233.27 449.564   1
 -17   2  17 -820.20 1706.54   1
 -17   2  17 -1122.3 3236.69   1
   2 -17  17 -249.15 474.368   1
  17   2 -17 -989.31 2451.77   1
  17   2 -17 1078.16 2729.57   1
   2  17 -17 -238.78 516.260   1
  -4  17 -17  -61.55 592.878   1
 -17  -4  17 -350.35 1380.22   1
  -4 -17  17  512.18 435.122   1
 -17   4  17 -744.24 2164.04   1
  17   4 -17 -332.27 1747.32   1
   6 -17  17 3508.98 2183.88   1
   6 -17  17 -1177.4 590.893   1
  17   6 -17 -1384.6 2842.02   1
  17   6 -17  817.77 905.853   1
   6  17 -17  594.86 633.116   1
 -17  -8  17 -414.40 715.246   1
 -17 -17   8 1088.19 388.821   1
  17  17  -8 1391.25 464.888   1
 -17  17 -10 5917.75 1301.95   1
 -17 -17  10 5910.04 1351.56   1
  17 -17  10 6928.67 1524.64   1
  10 -17  17   68.72 1304.15   1
  17  17 -10 5528.60 1271.08   1
  10  17 -17 3877.19 1073.64   1
 -17  17 -12   21.54 356.300   1
 -12  17 -17 -2456.2 2114.43   1
 -17 -12  17 -577.33 552.860   1
 -17 -17  12 1117.85 401.058   1
 -12 -17  17 2153.01 774.225   1
  17 -17  12 1165.25 887.002   1
  12 -17  17  -56.18 1203.84   1
  17  12 -17  209.46 684.047   1
  17  17 -12  396.76 326.425   1
  12  17 -17 1419.91 634.218   1
 -17 -17  14 -287.73 333.259   1
 -14 -17  17   26.06 543.049   1
  14 -17  17  527.06 974.313   1
  14  17 -17  365.67 510.858   1
 -17 -16  17 -117.41 521.662   1
 -16 -17  17  634.33 523.426   1
  17  16 -17  142.87 478.117   1
  17  17 -16  399.85 376.033   1
  16  17 -17  719.88 496.086   1
  18  -1  -1  19810. 4350.12   1
 -18  -1   1  18675. 4106.49   1
  18  -1   1  17231. 3788.99   1
  18   1  -1  16591. 3650.09   1
 -18  -2   0 7892.18 1750.63   1
 -18   2   0 8678.20 1917.10   1
  18  -2   0 8829.23 1950.17   1
  18   2   0 8068.56 1789.22   1
 -18   0   2 8959.31 1985.45   1
  18  -2  -2 7510.74 1682.28   1
 -18   2  -2 6000.44 1330.61   1
 -18  -2   2 7910.92 1764.96   1
  18  -2   2 6113.98 1355.97   1
  18  -3  -1  158.75 286.297   1
 -18   3  -1   52.83 166.905   1
  18  -1  -3  168.67 314.849   1
 -18  -1   3   11.76 250.358   1
 -18   3   1  482.09 271.304   1
  18  -3   1  -26.31 208.687   1
  18   3  -1  153.01 224.121   1
 -18   1   3  -81.93 315.511   1
  18   1  -3  419.58 263.256   1
  18  -3  -3  14497. 3199.20   1
 -18  -3   3  15632. 3441.73   1
  18   3  -3  13284. 2929.11   1
 -18   4   0 -296.44 237.570   1
 -18   0   4  134.16 321.464   1
  18   0  -4 -439.42 351.229   1
  18  -4  -2  822.40 317.936   1
 -18   4  -2   81.23 185.977   1
 -18  -4   2  243.08 230.845   1
  18  -2  -4  525.74 313.857   1
 -18  -2   4  598.39 319.920   1
  18  -4   2  202.18 158.086   1
  18   2  -4  889.98 320.251   1
  -4  -4  18  15897. 4277.36   1
   4   4 -18  10132. 3317.16   1
  18  -5  -1  109.98 242.200   1
 -18   5  -1  665.86 286.076   1
 -18  -5   1   87.47 211.002   1
  18  -1  -5   98.23 314.629   1
 -18  -1   5  667.62 390.916   1
  18  -5   1  419.36 192.261   1
  18   1  -5  242.53 376.584   1
  18  -5  -3 3484.73 864.953   1
 -18   5  -3 2832.10 644.030   1
 -18  -5   3 3244.40 766.508   1
  -5  -3  18 1171.87 2493.66   1
 -18  -3   5 3947.74 917.869   1
  -3  -5  18  892.62 2285.30   1
 -18   5   3 2166.24 601.807   1
   5   3 -18 -1897.3 2545.47   1
 -18   3   5 1864.18 608.642   1
  18   3  -5 3180.46 769.043   1
   3   5 -18 -2084.7 2280.89   1
 -18  -5   5 121817.  26700.   1
  -5  -5  18 154889.  76022.   1
  -5  -5  18  82549.  18487.   1
  18   5  -5 127659.  27957.   1
   5   5 -18  69287.  34142.   1
 -18   6   0  537.32 297.211   1
  18  -6   0  501.16 246.389   1
  18   0  -6 1106.82 428.067   1
   0   6 -18 -1782.6 2230.18   1
  18  -6  -2  651.64 360.379   1
 -18   6  -2  888.99 259.618   1
 -18  -6   2  530.37 262.264   1
  -2  -6  18 -119.61 2157.42   1
 -18   6   2  904.31 384.742   1
  18  -6   2 1150.92 301.179   1
   6   2 -18 -1315.2 3048.17   1
 -18   2   6 1680.08 564.987   1
  18   2  -6 1024.03 464.667   1
  18  -6  -4 1971.11 957.997   1
 -18   6  -4 1934.74 450.115   1
 -18  -6   4 1971.11 509.425   1
  18  -4  -6 1649.21 790.430   1
  -4  -6  18  742.03 1687.79   1
  -4  -6  18 -672.58 3239.99   1
  18  -6   4 2380.11 541.064   1
  18   6  -4 1464.00 429.610   1
   6   4 -18 -3361.3 3351.34   1
   6   4 -18 -3040.5 3206.92   1
 -18   4   6 2814.46 1049.72   1
   4   6 -18 -5765.6 4113.10   1
   4   6 -18 -2814.5 3363.46   1
  18  -6  -6  49322.  24253.   1
  18  -6  -6  70984.  15753.   1
  -6  -6  18  33756. 8217.39   1
   6   6 -18  22544.  11476.   1
   6   6 -18  35200. 8547.01   1
  18  -7  -1 1871.90 527.725   1
 -18   7  -1 2805.64 670.818   1
  -1   7 -18 1056.33 2270.97   1
  18  -7   1 2424.21 581.192   1
 -18   1   7 2793.51 779.957   1
   1  -7  18 -262.15 2544.37   1
  18   1  -7 1952.37 583.397   1
   1   7 -18   58.85 2617.13   1
 -18   7  -3  469.08 194.355   1
 -18  -7   3  578.99 266.784   1
  -3  -7  18   12.02 1624.96   1
  -3  -7  18 -917.98 3176.05   1
 -18   7   3 1724.17 1880.72   1
  18  -7   3  426.74 176.055   1
  18   7  -3 1222.58 375.592   1
 -18   3   7  781.72 644.360   1
  18  -5  -7 -109.44 1389.04   1
  18  -5  -7 -1126.7 1854.26   1
  -5  -7  18 -2190.5 2021.83   1
  -5  -7  18 2674.45 3351.34   1
 -18   7   5 1577.55 2027.34   1
 -18   7   5  327.20 1605.11   1
 -18   5   7 -544.04 1707.64   1
 -18   5   7 1492.67 1756.14   1
   5   7 -18 -901.66 2556.50   1
   5   7 -18 -856.58 3048.17   1
  18  -7  -7  33734.  16635.   1
  18  -7  -7  21916. 5605.77   1
 -18  -7   7  32091. 7046.62   1
  -7  -7  18  36369.  18002.   1
   7   7 -18  32665. 7999.11   1
  18  -8   0  23614. 5189.06   1
   0  -8  18  12590. 4319.25   1
  18   0  -8  17947. 3975.30   1
   0   8 -18  17076. 8993.49   1
   0   8 -18  19612. 5210.00   1
  18  -8  -2 2611.62 1761.66   1
  18  -8  -2 -1247.9 1177.38   1
 -18   8  -2  993.83 317.164   1
  -8  -2  18 -558.15 2121.04   1
  -2   8 -18 -1869.7 1876.31   1
 -18   8   2 4614.70 2652.41   1
 -18   8   2 1292.03 1300.85   1
  18  -8   2 1115.64 329.732   1
   8   2 -18 -1136.6 2483.74   1
 -18   2   8  708.41 613.713   1
   2  -8  18 -1235.8 2221.36   1
   2   8 -18  476.35 2530.04   1
  18  -8  -4  383.42 1199.43   1
  18  -8  -4 -1378.0 1878.51   1
 -18   8  -4  336.24 186.749   1
 -18  -8   4   70.83 266.343   1
  -8  -4  18 1355.97 1847.64   1
  -8  -4  18  427.96 3184.87   1
  18  -4  -8 1038.36 1675.67   1
  18  -4  -8 1236.91 1638.19   1
  -4  -8  18 -3961.0 2730.68   1
  -4  -8  18 -655.83 3389.92   1
 -18   8   4 -854.59 1644.80   1
  18  -8   4  383.86 150.479   1
 -18   4   8  590.67 1686.69   1
 -18   4   8 1008.82 1462.90   1
  18   4  -8  384.08 514.055   1
   4   8 -18 1250.14 2560.91   1
   4   8 -18 -623.64 2851.94   1
  18  -8  -6  555.40 2145.30   1
 -18  -8   6   11.42 274.942   1
  -8  -6  18  856.24 2009.70   1
  -8  -6  18 1062.95 3327.08   1
  18  -6  -8 -932.42 1574.25   1
  18  -6  -8 2523.42 2771.47   1
 -18  -6   8  547.57 403.263   1
  -6  -8  18 -958.33 2836.51   1
 -18   8   6 -2221.4 1914.89   1
 -18   8   6 -724.73 2116.63   1
  18   8  -6  451.99 340.976   1
   8   6 -18   54.46 2775.88   1
 -18   6   8 -1404.5 2641.38   1
 -18   6   8 -1442.0 1874.10   1
   6   8 -18 -7621.0 4624.62   1
   6   8 -18  729.14 2757.14   1
  18  -8  -8  31342.  15544.   1
 -18  -8   8  76364.  16735.   1
  -8  -8  18  84599.  41594.   1
  -8  -8  18 120494.  26579.   1
  18   8  -8  74722.  16382.   1
   8   8 -18  75273.  37107.   1
  18  -9  -1  46147.  22666.   1
 -18   9  -1  30724. 6754.49   1
  -1  18  -9  13449. 2963.29   1
  -1 -18   9  18024. 3965.38   1
  18  -1  -9  32257.  16018.   1
  18  -1  -9  20747. 4611.39   1
  -1   9 -18  19965. 5168.11   1
  -1   9 -18  28244.  14265.   1
  -1  -9  18  23393. 6390.69   1
 -18   9   1  54349.  26711.   1
   1 -18   9  18928. 4160.51   1
   1  18  -9  18895. 4156.10   1
   1  -9  18  43578.  21453.   1
   1  -9  18  19204. 5265.13   1
   1   9 -18  25488.  12898.   1
   1   9 -18  17969. 5013.77   1
  18  -9  -3  652.19 1236.91   1
  18  -9  -3  822.62 1705.43   1
 -18  -9   3  103.56 209.899   1
  -3 -18   9  702.79 295.998   1
  -9  -3  18  531.25 1730.79   1
  -9  -3  18 -1834.4 3079.04   1
  -3  -9  18 1543.38 1952.37   1
  18  -9   3  416.93 228.530   1
   3 -18   9  118.73 196.891   1
   3  18  -9  269.32 270.973   1
   9   3 -18  655.27 3588.35   1
   9   3 -18  137.14 3753.72   1
 -18   3   9 1854.26 1951.27   1
 -18   3   9  469.96 1234.70   1
   3  -9  18 1113.44 2178.37   1
  18   3  -9  716.35 447.470   1
  18  -9  -5 1773.78 1805.75   1
  18  -9  -5 1315.18 1961.19   1
 -18   9  -5  354.32 171.425   1
 -18  -9   5  220.26 262.705   1
  -5 -18   9  658.80 305.479   1
  -9  -5  18 1120.05 2073.64   1
  -9  -5  18 2308.45 3621.43   1
  18  -5  -9  819.64 1695.51   1
  18  -5  -9 -1372.5 2738.39   1
  -5  -9  18 1652.52 2779.18   1
  -5  -9  18 4496.74 3051.48   1
 -18   9   5 5229.85 3144.08   1
  18  -9   5  260.17 125.565   1
   5 -18   9 -104.59 210.561   1
  18   9  -5   87.09 252.563   1
   5  18  -9  404.37 277.147   1
   9   5 -18 -3614.8 3270.86   1
   9   5 -18 3173.85 3822.07   1
 -18   5   9 1374.71 1908.28   1
 -18   5   9 2188.29 2717.45   1
   5   9 -18  -23.78 2699.81   1
   5   9 -18  220.48 2588.47   1
  18  -9  -7 -763.64 1842.13   1
 -18  -9   7  853.71 355.969   1
  -7 -18   9  376.14 303.494   1
  -9  -7  18 -2530.0 2552.09   1
  -9  -7  18 -2161.8 2982.03   1
  18  -7  -9 -1319.6 1990.96   1
  18  -7  -9 -1208.2 3071.32   1
 -18  -7   9  381.43 382.978   1
  -7  -9  18 -1834.4 2308.45   1
 -18   9   7 -2548.8 2234.59   1
  18   9  -7   42.32 306.140   1
   7  18  -9  456.40 312.424   1
   9   7 -18 2299.63 3190.38   1
   9   7 -18  143.09 3151.80   1
 -18   7   9  241.98 1728.58   1
 -18   7   9 -1440.9 2743.91   1
 -18  -9   9  13075. 2902.65   1
  -9 -18   9  18609. 4102.08   1
  -9  -9  18  22820. 5304.81   1
  18   9  -9  13251. 2941.24   1
   9  18  -9  14243. 3152.90   1
 -18  10   0  45210.  22236.   1
  18 -10   0  32764. 7379.55   1
  18 -10   0  41473.  20384.   1
   0 -18  10  18708. 4110.90   1
   0 -10  18  25014.  12435.   1
   0 -10  18  23470. 6155.88   1
   0  10 -18  19491.  10125.   1
   0  10 -18  14420. 4334.69   1
  18 -10  -2  283.98 1563.22   1
  18 -10  -2 -316.50 1590.78   1
  -2 -18  10 1551.10 417.815   1
 -10  -2  18 1812.37 2056.00   1
 -10  -2  18 1110.13 3077.94   1
  18  -2 -10 1564.32 1499.28   1
  -2 -10  18 1134.38 3500.16   1
 -18  10   2  939.92 1423.22   1
 -18  10   2   66.77 1865.28   1
  18 -10   2 -100.28 363.135   1
   2 -18  10 1630.47 416.492   1
  10   2 -18 1042.66 3841.91   1
  10   2 -18 -3221.3 3712.93   1
   2 -10  18  856.35 1606.22   1
   2 -10  18 2184.98 2785.80   1
  18   2 -10  478.12 520.339   1
   2  10 -18 3925.69 3525.52   1
   2  10 -18  450.01 2553.19   1
  18 -10  -4  667.40 1480.54   1
  -4  18 -10   44.61 222.577   1
 -18 -10   4   26.93 254.547   1
  -4 -18  10  696.17 280.895   1
 -10  -4  18 2192.70 2205.93   1
 -10  -4  18 -340.87 3848.52   1
  -4 -10  18  426.41 1950.17   1
  -4 -10  18 1470.62 2177.27   1
 -18  10   4  430.27 1618.34   1
  18 -10   4   27.55 205.049   1
   4 -18  10   61.34 209.128   1
  18  10  -4  350.68 270.642   1
  10   4 -18  839.16 2792.41   1
  10   4 -18 -3798.9 4050.27   1
 -18   4  10 4081.13 2746.11   1
 -18   4  10 -789.66 2778.08   1
  18   4 -10 -227.21 432.918   1
   4  10 -18  615.48 3426.30   1
 -18  10  -6  439.09 161.393   1
  -6  18 -10  -77.22 203.285   1
 -18 -10   6   25.69 274.501   1
  -6 -18  10   16.14 247.161   1
 -10  -6  18 2115.53 2172.86   1
 -10  -6  18 -1379.1 2952.26   1
  18  -6 -10 -865.61 2997.46   1
  -6  10 -18  400.95 2381.21   1
 -18  -6  10  665.20 378.458   1
  -6 -10  18  295.01 1577.55   1
  18  10  -6   71.81 269.650   1
  10   6 -18  863.63 2934.62   1
  10   6 -18 -384.41 3377.79   1
 -18   6  10 2013.01 1986.55   1
 -18   6  10 -2865.2 3059.20   1
  -8  18 -10 1999.78 491.897   1
 -18 -10   8 2084.66 553.191   1
 -10  -8  18 2116.63 1735.20   1
  18  -8 -10  103.98 2029.54   1
 -18  -8  10 2214.75 643.589   1
 -10 -18   8 1917.10 529.048   1
  -8 -10  18 2449.56 1200.53   1
   8 -18  10 5614.59 1256.75   1
  18  10  -8 2849.74 720.868   1
  10   8 -18 -534.56 2026.24   1
 -18   8  10 2087.97 2463.89   1
  18   8 -10 2571.93 736.302   1
 -10  18 -10  42674. 9352.87   1
 -18 -10  10  53886.  11818.   1
 -10 -18  10  36402. 7989.19   1
  10 -18  10  36435. 7985.88   1
  18  10 -10  55308.  12138.   1
  10  10 -18  44460. 9829.12   1
  18 -11  -1 -375.70 1477.23   1
  11  -1 -18 -1338.3 2786.90   1
 -18  11  -1 3452.76 2246.72   1
  -1  18 -11  621.87 288.722   1
  -1  11 -18 -4224.4 3666.63   1
 -18  -1  11 -1736.3 1966.71   1
 -18  -1  11  249.15 571.601   1
  -1 -11  18 2257.74 2148.60   1
  -1 -11  18  893.84 2939.03   1
 -18  11   1 1882.92 1516.92   1
 -11   1  18   15.60 2838.71   1
  18 -11   1  511.85 1430.93   1
  18 -11   1 1149.82 1104.62   1
   1  18 -11 1359.28 396.538   1
  11   1 -18 -1282.1 3732.77   1
  11   1 -18 3601.58 3951.05   1
   1 -11  18 1491.57 1912.69   1
   1 -11  18 1859.77 3440.63   1
  18   1 -11  335.35 660.345   1
   1  11 -18 3306.14 3668.83   1
   1  11 -18 -2074.7 2365.78   1
  -3  18 -11  783.82 283.430   1
  18  -3 -11 2611.62 2344.83   1
  18  -3 -11  213.65 2678.86   1
  -3 -11  18 1449.67 2168.45   1
   3  18 -11  619.56 304.266   1
  11   3 -18  683.61 3171.64   1
  11   3 -18 1815.67 4157.20   1
  18   3 -11  172.31 572.483   1
   3  11 -18  -94.30 1740.71   1
  -5  18 -11  425.64 244.846   1
 -18 -11   5 1395.66 419.689   1
  -5 -18  11 -213.10 285.856   1
  18  -5 -11 -5021.5 3431.81   1
  -5  11 -18 -5090.9 3703.01   1
  -5  11 -18 -1198.3 2959.98   1
  -5 -11  18 -743.58 1366.99   1
  18 -11   5  484.40 213.868   1
   5 -18  11  414.73 248.594   1
  18  11  -5 1787.01 501.488   1
   5  18 -11 -351.45 287.509   1
  11   5 -18 1749.53 3543.16   1
   5 -11  18  473.27 2750.52   1
  18   5 -11  412.19 471.723   1
   5  11 -18 -268.44 935.618   1
  -7  18 -11 2115.53 525.079   1
 -18 -11   7 1902.77 502.039   1
  -7 -18  11 1542.28 442.950   1
 -11  -7  18 1931.43 2426.41   1
  -7  11 -18 -780.18 2064.82   1
 -18  -7  11 2212.54 637.415   1
  18  11  -7 1580.86 465.329   1
   7  18 -11 2505.79 631.242   1
 -18   7  11 1022.27 2235.69   1
   7 -11  18  270.97 2409.88   1
  -9  18 -11  425.86 232.940   1
 -18 -11   9  -56.83 279.462   1
  -9 -18  11  711.50 295.006   1
 -11  -9  18  796.49 818.321   1
 -18  -9  11  606.00 400.507   1
 -11 -18   9  -27.09 282.108   1
  -9 -11  18 -1295.3 1977.73   1
  -9 -11  18 -214.75 671.700   1
   9 -18  11  139.35 180.906   1
  18  11  -9  385.51 322.676   1
   9  18 -11  447.69 299.967   1
  18   9 -11  663.65 450.887   1
  11  18  -9  103.11 309.006   1
   9  11 -18  146.95 865.946   1
 -11  18 -11  13306. 2924.70   1
 -18 -11  11  13516. 2993.05   1
 -11 -18  11  12601. 2788.00   1
 -11 -11  18  12722. 2912.58   1
  11 -18  11  14442. 3170.54   1
  18  11 -11  15654. 3462.68   1
  11  18 -11  11862. 2628.15   1
  11  11 -18  14067. 3234.48   1
   0 -18  12   71.97 232.389   1
  12   0 -18 -3445.0 3662.22   1
 -18   0  12  397.53 993.936   1
   0 -12  18 1728.58 2019.62   1
   0 -12  18  940.03 2201.52   1
  18   0 -12  808.51 1390.14   1
   0  12 -18 -511.08 3274.17   1
  12  -2 -18 -414.73 3298.42   1
 -18  12  -2 1095.91 1279.90   1
 -18  12  -2 -359.61 1233.60   1
  -2  18 -12  743.80 291.919   1
  -2 -18  12  860.32 323.117   1
 -18  -2  12 4797.70 2873.99   1
 -18  -2  12   90.05 546.025   1
  -2 -12  18  387.17 1531.25   1
  18 -12   2 -451.11 1148.71   1
  18 -12   2 -1685.6 1409.99   1
   2 -18  12  703.45 291.699   1
   2  18 -12  485.39 279.462   1
 -18   2  12 5351.11 3220.15   1
 -18   2  12 3127.55 2490.35   1
   2 -12  18 -1776.0 2137.58   1
  18   2 -12 -336.46 647.998   1
   2  12 -18 -1533.5 1329.51   1
 -18  12  -4 1989.86 1469.52   1
  -4  18 -12 1629.37 428.177   1
  -4 -18  12 1615.04 463.344   1
 -12  -4  18 2961.08 2578.54   1
  18  -4 -12 -3785.7 3871.68   1
  18  -4 -12 -1102.0 2191.60   1
  -4  12 -18 -2644.7 2978.72   1
 -18  -4  12 1675.67 636.313   1
  -4 -12  18 2250.03 1057.54   1
   4  18 -12 1551.10 455.958   1
 -18   4  12 3481.42 2501.38   1
  18   4 -12 1878.51 714.033   1
 -18  12  -6 6604.56 1464.00   1
  -6  18 -12 4611.39 1048.62   1
  -6 -18  12 4235.47 984.124   1
 -12  -6  18 5377.57 3459.37   1
 -12  -6  18 3190.38 2363.57   1
  18  -6 -12 -3518.9 2721.86   1
  18  -6 -12  159.08 2964.39   1
  -6  12 -18  655.38 2868.48   1
  -6 -12  18 1794.73 850.071   1
   6 -18  12 3353.54 786.462   1
  18  12  -6 3375.59 811.156   1
   6  18 -12 4716.12 1084.22   1
  12   6 -18 1910.48 3171.64   1
   6 -12  18 3499.06 2305.15   1
   6 -12  18 1579.76 2958.88   1
  18   6 -12 3477.01 925.366   1
   6  12 -18 4306.03 3888.21   1
   6  12 -18 2394.44 937.823   1
  -8 -18  12  116.75 271.965   1
 -12  -8  18 -248.37 1106.82   1
 -12 -18   8 -112.89 279.021   1
  -8 -12  18 -200.31 662.881   1
   8 -18  12  327.86 205.931   1
  18  12  -8  168.67 276.375   1
   8  18 -12  -39.00 256.091   1
  12   8 -18 -784.04 3136.37   1
  12   8 -18  661.78 1172.97   1
   8 -12  18  377.69 2719.65   1
  12  18  -8  179.36 291.588   1
   8  12 -18 -875.21 784.146   1
 -10  18 -12  504.91 223.790   1
 -10 -18  12  -10.92 285.525   1
 -12 -10  18  129.53 698.820   1
 -12  18 -10  215.63 142.762   1
 -18 -10  12   -4.04 392.349   1
 -12 -18  10  540.18 299.085   1
 -10 -12  18  -82.65 507.331   1
  10 -18  12  197.44 209.128   1
  18  12 -10  333.37 294.785   1
  10  18 -12  229.74 302.502   1
  12  10 -18 -399.62 876.088   1
  12 -18  10  159.30 162.937   1
  18  10 -12  522.32 434.241   1
  12  18 -10  279.46 303.715   1
 -12  18 -12  12248. 2694.30   1
 -18 -12  12  10815. 2425.31   1
 -12 -18  12  12281. 2722.96   1
  12 -18  12  14905. 3282.99   1
  18  12 -12  11178. 2496.97   1
  12  12 -18 8242.74 2064.82   1
  -1  18 -13  -57.01 267.886   1
  -1 -18  13  322.68 262.374   1
 -13  -1  18 -1885.1 2074.74   1
 -13  -1  18 -1913.8 3319.37   1
  18  -1 -13 -1217.1 2501.38   1
  18  -1 -13 -466.10 2465.00   1
  -1  13 -18 -505.57 1468.41   1
 -18  -1  13  160.07 1001.98   1
  -1 -13  18  706.54 1062.18   1
 -13   1  18  719.32 2224.67   1
   1 -18  13 -352.00 276.706   1
 -18   1  13 1753.94 2058.21   1
 -18   1  13 -122.81 1879.61   1
   1 -13  18 -2099.0 2063.72   1
  18   1 -13  -75.87 926.688   1
   1  13 -18 -828.02 923.051   1
  -3  18 -13 1755.04 476.022   1
  -3 -18  13 1818.98 517.583   1
 -13  -3  18 3418.58 2717.45   1
 -13  -3  18  14850. 5120.71   1
  -3  13 -18 -823.39 2989.74   1
 -18  -3  13  421.12 564.546   1
 -18  -3  13 1121.15 2087.97   1
   3 -18  13 2104.51 530.922   1
  13   3 -18 -1875.2 4376.58   1
  13   3 -18 2365.78 3199.20   1
 -18   3  13 1330.61 3620.32   1
 -18   3  13 2370.19 2408.77   1
   3 -13  18 2447.36 2207.03   1
   3 -13  18  15974. 4609.19   1
  18   3 -13  880.94 756.366   1
   3  13 -18 2542.16 1019.95   1
 -18  13  -5  63378.  31110.   1
  -5  18 -13  59784.  13097.   1
 -18 -13   5  56653.  12424.   1
 -13  -5  18  53026.  26138.   1
 -13  -5  18  81942.  18388.   1
  18  -5 -13  11619. 6229.74   1
  -5  13 -18  31474.  15731.   1
 -18  -5  13  49454.  10864.   1
  -5 -13  18  24209.  12093.   1
  -5 -13  18  56422.  12413.   1
  18 -13   5  45475.  10115.   1
  18 -13   5  50380.  24727.   1
   5 -18  13  61228.  13416.   1
   5  18 -13  57325.  12568.   1
  13   5 -18  48925.  11432.   1
  13   5 -18  43545.  21673.   1
 -18   5  13  69783.  34307.   1
   5 -13  18  41142.  20273.   1
  18   5 -13  58858.  12931.   1
   5  13 -18  42983. 9481.86   1
  -7  18 -13 -230.96 264.579   1
 -18 -13   7  217.73 245.838   1
 -13  -7  18 -1643.7 1542.28   1
  18  -7 -13 1215.96 3017.30   1
  -7 -13  18   78.01 580.641   1
  18 -13   7  442.29 126.006   1
   7  18 -13   28.82 250.358   1
  13   7 -18 -1696.6 1577.55   1
 -18   7  13 3430.71 3628.04   1
   7 -13  18 -795.17 1406.68   1
  18   7 -13  344.95 489.582   1
  -9  18 -13  -37.31 263.477   1
 -18 -13   9  -59.71 251.460   1
  -9 -18  13 -232.83 258.847   1
 -13  -9  18  112.67 1777.09   1
 -13  -9  18  613.16 716.789   1
 -13 -18   9  -60.83 258.075   1
  -9 -13  18  -40.15 602.799   1
   9 -18  13  337.67 294.014   1
   9  18 -13 -167.90 269.430   1
  13   9 -18 4845.11 3897.03   1
  13   9 -18 -268.11 887.773   1
  18   9 -13 -639.73 528.607   1
  13  18  -9  364.24 328.299   1
   9  13 -18  -69.80 668.724   1
 -11  18 -13 -218.06 281.336   1
 -18 -13  11  224.34 354.867   1
 -11 -18  13  172.42 284.974   1
 -13  18 -11 -128.98 160.070   1
 -18 -11  13  521.00 475.250   1
 -13 -18  11 -294.12 293.573   1
 -11 -13  18   72.47 607.540   1
  11  18 -13 -394.22 327.527   1
  13  11 -18 -383.20 829.897   1
  13 -18  11   94.05 163.047   1
  18  11 -13  150.15 465.990   1
  13  18 -11  282.44 340.976   1
  11  13 -18 -711.94 812.368   1
 -13 -18  13  29159. 6410.53   1
 -13 -13  18  17628. 3960.97   1
  13 -18  13  26271. 5773.34   1
  18  13 -13  25499. 5614.59   1
  13  18 -13  31275. 6874.65   1
 -14   0  18 -2373.5 2241.21   1
 -14   0  18  147.61 3816.55   1
   0  18 -14  467.75 316.282   1
  14   0 -18 -1631.6 3397.64   1
  14   0 -18  307.68 4726.05   1
 -18   0  14 -1124.5 2062.61   1
 -18   0  14 -654.17 1938.04   1
   0 -14  18  101.81 834.637   1
  18   0 -14  289.05 2523.42   1
  18   0 -14 -993.83 2474.92   1
  14  -2 -18 1236.91 3106.60   1
  -2 -18  14 -153.35 316.834   1
 -14  -2  18 1989.86 2235.69   1
 -14  -2  18 2573.03 4175.94   1
  18  -2 -14 -2596.2 2600.59   1
 -18  -2  14  151.36 1144.30   1
  -2 -14  18 -974.42 704.442   1
 -14   2  18 1516.92 2851.94   1
   2 -18  14  217.62 308.235   1
   2  18 -14  571.05 304.266   1
  14   2 -18 -3523.3 3264.25   1
  14   2 -18  -51.65 4882.59   1
 -18   2  14 -1676.8 2061.51   1
 -18   2  14 -2289.7 3992.94   1
   2 -14  18  976.52 1466.21   1
  18   2 -14 1010.91 2754.93   1
  18   2 -14   -9.77 983.353   1
   2  14 -18 -647.89 750.633   1
  -4  18 -14  68713.  15059.   1
  -4 -18  14  53754.  11785.   1
 -14  -4  18  61515.  30283.   1
 -14  -4  18  61603.  14111.   1
  -4  14 -18  40712.  20218.   1
 -18  -4  14  55760.  12259.   1
  -4 -14  18  54636.  12016.   1
   4 -18  14  66795.  14640.   1
   4  18 -14  49289.  10807.   1
  14   4 -18  49873.  24727.   1
  14   4 -18  38948. 9758.56   1
 -18   4  14  62055.  30526.   1
   4 -14  18  52508.  11862.   1
   4 -14  18  53676.  26414.   1
  18   4 -14  46985.  10345.   1
 -18 -14   6 1026.68 360.820   1
  -6 -18  14 2495.86 631.903   1
  -6  14 -18 3788.99 3450.55   1
 -18  -6  14 1777.09 625.289   1
  18 -14   6  289.49 557.380   1
  18  14  -6  846.65 361.040   1
   6  18 -14 3127.55 748.318   1
  14   6 -18 -2114.4 2243.41   1
 -18   6  14 -517.80 3145.18   1
   6 -14  18 -1353.8 1651.41   1
  18   6 -14 1881.82 736.302   1
   6  14 -18  994.49 665.637   1
 -18 -14   8  621.43 294.785   1
  -8 -18  14  -69.72 296.549   1
  -8  14 -18 1951.27 2678.86   1
 -14 -18   8  -35.06 292.250   1
  -8 -14  18  -18.32 553.742   1
  18  14  -8  153.57 286.517   1
   8  18 -14  214.75 279.241   1
  14   8 -18 -170.10 945.099   1
  18   8 -14 -237.46 530.591   1
  14  18  -8   91.68 294.344   1
   8  14 -18  232.72 667.952   1
 -10  18 -14  -38.52 377.246   1
 -18 -14  10  369.86 295.998   1
 -10 -18  14  537.43 314.408   1
 -14 -10  18  -16.32 735.420   1
 -10  14 -18    6.88 1993.16   1
 -14 -18  10  113.11 265.461   1
 -10 -14  18   -7.82 613.934   1
  10 -18  14   70.69 358.835   1
  18  14 -10  296.66 294.014   1
  14 -18  10   37.83 137.691   1
  18  10 -14  296.44 507.661   1
  14  18 -10  -86.02 308.896   1
  10  14 -18  126.12 746.664   1
 -12  18 -14  337.45 376.584   1
 -18 -14  12 1333.92 442.288   1
 -12 -18  14  594.31 326.976   1
 -14 -12  18 1070.66 702.568   1
 -14  18 -12  155.99 230.515   1
 -12  14 -18 -941.68 1421.01   1
 -18 -12  14  459.04 501.378   1
 -14 -18  12  425.09 307.684   1
 -12 -14  18  -86.74 678.535   1
  12 -18  14 -577.66 409.546   1
  14  12 -18  218.28 833.535   1
  18  12 -14   51.87 502.480   1
  12  14 -18 -145.41 691.213   1
 -14  18 -14  973.43 502.590   1
 -14 -14  18 1520.23 719.545   1
  14  14 -18 2078.05 893.285   1
  15  -1 -18 1448.57 2957.77   1
  15  -1 -18 -1148.7 4892.51   1
  -1 -18  15 -122.26 353.985   1
 -15  -1  18  814.90 1857.57   1
 -15  -1  18 -4683.1 4857.23   1
  -1  15 -18  262.15 727.593   1
 -18  -1  15 -1435.3 1913.79   1
 -18  -1  15 -1052.8 1760.55   1
  -1 -15  18  -60.26 654.613   1
 -15   1  18 -197.11 1801.34   1
 -15   1  18 1702.13 4408.55   1
   1 -18  15 -412.63 350.788   1
   1  18 -15  323.12 308.124   1
  15   1 -18 1466.21 2664.53   1
  15   1 -18 1706.54 5254.10   1
 -18   1  15 -1639.3 1896.15   1
 -18   1  15 -2060.4 4159.40   1
   1  15 -18 -668.50 712.931   1
  15  -3 -18 -1163.0 3182.67   1
  -3  18 -15 1629.37 527.505   1
  -3 -18  15 2752.73 708.300   1
  18  -3 -15 -685.70 5117.40   1
  -3  15 -18 -680.30 1034.72   1
 -18  -3  15  575.57 922.940   1
 -15   3  18 -207.36 2939.03   1
  15   3 -18 2019.62 2768.16   1
  15   3 -18  910.59 4121.92   1
   3 -15  18 1054.02 955.021   1
  18   3 -15 -690.77 866.386   1
   3  15 -18   -9.98 651.636   1
  -5 -18  15  536.43 429.721   1
 -15  -5  18 2291.92 2380.11   1
  18  -5 -15  217.95 3438.43   1
  -5  15 -18 -775.44 1476.13   1
 -18  -5  15  -51.54 615.036   1
  -5 -15  18  212.99 535.332   1
   5 -18  15   17.11 368.316   1
   5  18 -15  613.60 388.490   1
   5 -15  18 -1845.4 1714.25   1
  18   5 -15  261.05 697.828   1
   5  15 -18  774.67 758.019   1
  -7  18 -15  657.15 476.022   1
 -18 -15   7  713.70 317.275   1
 -15  -7  18 3677.65 2423.10   1
 -15  -7  18  907.07 907.837   1
  -7  15 -18 5011.57 3217.94   1
  -7  15 -18 2612.72 2024.03   1
 -18  -7  15 -224.89 498.181   1
  -7 -15  18  120.38 567.633   1
  18  15  -7  871.90 358.615   1
   7  18 -15  408.00 315.400   1
  18   7 -15 1549.99 823.944   1
   7  15 -18   34.25 612.721   1
 -18 -15   9  198.99 284.202   1
  -9 -18  15  317.61 327.306   1
 -15  -9  18 -643.15 726.821   1
  -9  15 -18 -1034.2 2021.83   1
 -15 -18   9  172.42 288.832   1
  -9 -15  18  577.66 682.063   1
   9 -18  15  634.66 437.217   1
  18  15  -9  117.41 297.982   1
   9  18 -15  -99.61 315.180   1
  15   9 -18 1301.95 988.313   1
  18   9 -15  848.64 614.044   1
  15  18  -9  297.54 327.747   1
   9  15 -18  351.45 689.890   1
 -11  18 -15 -106.87 399.845   1
 -18 -15  11  460.26 317.054   1
 -11 -18  15  419.58 374.159   1
 -15 -11  18 -457.61 637.856   1
 -15  18 -11  665.97 200.529   1
 -11  15 -18 -3243.3 2456.18   1
 -15 -18  11 1229.19 415.500   1
 -11 -15  18 -232.61 546.576   1
  18  15 -11  801.56 349.685   1
  11  18 -15   -5.11 324.881   1
  15  11 -18 -439.53 826.038   1
  15 -18  11  606.33 200.749   1
  18  11 -15 -178.37 503.472   1
  15  18 -11  309.45 338.220   1
  11  15 -18 -108.75 610.075   1
 -18 -15  13 4302.72 1016.87   1
 -13 -18  15 4352.33 1043.21   1
 -13  15 -18 -947.30 2397.75   1
 -18 -13  15 3074.63 887.663   1
 -15 -18  13 3253.22 794.730   1
 -13 -15  18 2016.31 749.420   1
  18  15 -13 5491.12 1261.16   1
  13  18 -15 4598.17 1083.89   1
  15  13 -18 1305.26 827.471   1
  18  13 -15 3225.66 905.632   1
  15  18 -13 3677.65 884.797   1
 -15  18 -15 -286.30 578.767   1
 -18 -15  15  591.55 468.195   1
 -15 -18  15 1970.01 573.034   1
 -15 -15  18 -321.57 489.361   1
  15 -18  15  303.49 880.167   1
  15  18 -15 1512.51 491.346   1
  16   0 -18  699.48 2351.45   1
  16   0 -18  410.76 3738.28   1
   0 -16  18 -442.84 558.042   1
  18   0 -16 1564.32 2267.66   1
  18   0 -16 -2117.7 3395.43   1
  16  -2 -18 -950.83 2673.35   1
  16  -2 -18  -28.66 3399.84   1
 -16  -2  18 3139.67 2448.46   1
  18  -2 -16 -2831.0 2550.98   1
  18  -2 -16 2532.24 3522.21   1
 -18  -2  16 -2585.2 2203.72   1
  -2 -16  18 -179.91 525.079   1
 -16   2  18 1409.99 3019.51   1
 -16   2  18 1117.85 1899.46   1
   2 -18  16  428.18 406.129   1
   2  18 -16  821.52 427.075   1
   2 -16  18 1401.17 1710.95   1
   2 -16  18  184.21 599.603   1
   2  16 -18  781.61 666.629   1
  16  -4 -18 -587.37 2176.16   1
  -4  18 -16 -658.91 489.692   1
  -4 -18  16  743.91 451.107   1
 -16  -4  18  245.73 1799.14   1
 -16  -4  18 -1478.3 1813.47   1
  18  -4 -16  103.06 2339.32   1
  18  -4 -16 1951.27 2870.68   1
  -4  16 -18  581.30 787.123   1
 -18  -4  16  567.85 1592.99   1
 -18  -4  16 -558.48 759.673   1
  -4 -16  18 -133.06 556.498   1
 -16   4  18  609.74 2431.92   1
   4 -18  16  -45.52 371.293   1
   4  18 -16  -90.31 375.261   1
  16   4 -18  813.25 2479.33   1
 -18   4  16  911.92 1607.32   1
 -18   4  16 -1272.2 2419.80   1
   4  16 -18   10.93 658.141   1
  -6 -18  16  218.50 415.389   1
 -16  -6  18 1850.95 1142.10   1
  18  -6 -16 -542.39 1693.31   1
  -6  16 -18  183.33 910.924   1
 -18  -6  16  -50.66 616.249   1
  -6 -16  18  609.63 631.903   1
   6 -18  16 1005.29 469.408   1
   6  18 -16  662.66 390.695   1
  16   6 -18 -466.87 2619.33   1
  16   6 -18 -1505.9 1087.42   1
 -18   6  16 1129.97 2021.83   1
  18   6 -16 -457.28 892.955   1
   6  16 -18  126.89 711.718   1
  -8  18 -16  234.04 596.846   1
  -8 -18  16  665.31 430.823   1
 -16  -8  18 -294.68 1558.81   1
 -16  -8  18 -395.99 691.103   1
  -8  16 -18 -226.99 2035.05   1
 -18  -8  16 -479.88 551.537   1
 -16 -18   8 -634.33 330.724   1
  -8 -16  18 -128.32 489.030   1
  18  16  -8  505.24 315.180   1
  16   8 -18  -19.58 924.263   1
   8 -16  18 -391.91 1274.39   1
  18   8 -16 -438.43 749.751   1
  16  18  -8  136.04 311.873   1
   8  16 -18 -239.33 511.299   1
 -18  16 -10  735.20 237.129   1
 -18 -16  10  684.27 323.558   1
 -10 -18  16  128.10 465.218   1
 -10  16 -18 -955.35 2122.15   1
 -16 -18  10 1114.54 391.467   1
 -10 -16  18 -665.53 580.751   1
  18  16 -10  694.08 344.063   1
  16  10 -18 -281.56 843.677   1
  16 -18  10  388.71 148.605   1
  18  10 -16  233.49 602.910   1
  16  18 -10 1163.05 413.846   1
 -12  18 -16  300.63 682.945   1
 -18 -16  12 2316.17 606.327   1
 -16 -12  18  803.99 723.183   1
 -16  18 -12 2826.59 679.748   1
 -16 -18  12 2425.31 627.163   1
 -12 -16  18 1116.74 731.561   1
  12 -18  16  471.94 852.276   1
  18  16 -12 2098.99 577.554   1
  12  18 -16 2786.90 733.435   1
  16 -18  12 1935.84 520.890   1
  12 -16  18 1468.41 1306.36   1
  18  12 -16  831.44 598.610   1
  12  16 -18 2191.60 826.038   1
 -14  18 -16 -525.63 1554.40   1
 -18 -16  14  -42.37 345.055   1
 -14 -18  16  358.73 488.259   1
 -16 -14  18 -155.11 539.080   1
 -16  18 -14   42.18 425.862   1
 -18 -14  16 -288.06 502.259   1
  14 -18  16 1256.75 1127.77   1
  18  16 -14  514.94 355.749   1
  14  18 -16  501.27 414.948   1
  16  14 -18 -512.29 581.192   1
  16 -18  14  -52.02 775.548   1
  18  14 -16 -191.60 535.222   1
  16  18 -14  324.77 332.047   1
 -16  18 -16 -2845.3 1928.12   1
 -18 -16  16  773.56 457.391   1
 -16 -18  16  159.08 394.443   1
  16 -18  16 1292.03 1133.28   1
  16  18 -16  562.12 400.066   1
  16  16 -18  359.72 559.916   1
  -1 -18  17  354.10 427.957   1
 -17  -1  18 -3758.1 2590.67   1
 -17  -1  18 -1845.4 2184.98   1
  18  -1 -17 -555.51 2327.19   1
  18  -1 -17 1931.43 2413.18   1
  -1  17 -18  -26.59 698.930   1
 -18  -1  17  562.01 1887.33   1
 -18  -1  17 1437.55 1792.52   1
  -1 -17  18 -391.25 596.075   1
   1 -18  17  273.07 489.471   1
  17   1 -18 -3104.4 2933.52   1
 -18   1  17 1293.13 2323.89   1
 -18   1  17 -3653.4 2539.96   1
   1 -17  18  803.77 607.760   1
  18   1 -17 -203.51 2298.53   1
  18   1 -17 -726.16 2058.21   1
   1  17 -18 -884.69 711.497   1
  17  -3 -18 -1203.8 1809.06   1
 -17  -3  18  893.06 1912.69   1
 -17  -3  18 -1245.7 1866.39   1
  18  -3 -17 3131.96 2813.36   1
  18  -3 -17  898.58 2084.66   1
  -3 -17  18 -434.68 535.001   1
   3 -18  17  477.90 433.138   1
  17   3 -18  722.96 2334.91   1
  17   3 -18 -829.01 1984.34   1
 -18   3  17  764.63 1653.62   1
 -18   3  17  759.12 1910.48   1
   3 -17  18   77.82 562.561   1
  18   3 -17 -3248.8 2684.38   1
  18   3 -17  -55.30 1421.01   1
   3  17 -18   81.03 654.944   1
  17  -5 -18 1813.47 1804.65   1
  -5  18 -17 -358.95 630.580   1
 -17  -5  18  306.03 1251.24   1
  18  -5 -17  426.74 1618.34   1
  -5  17 -18 -1206.0 2169.55   1
  -5  17 -18 1193.91 756.917   1
 -18  -5  17 -403.26 653.070   1
  -5 -17  18 -560.47 482.526   1
   5 -18  17  636.86 447.029   1
   5  18 -17    3.02 442.398   1
  17   5 -18 -991.73 1320.69   1
 -18   5  17  813.36 1521.33   1
   5 -17  18 -229.96 523.977   1
   5  17 -18 -105.71 581.743   1
 -18 -17   7  736.41 333.811   1
  -7 -18  17 1229.19 589.681   1
 -18  -7  17 -302.72 687.024   1
  -7 -17  18 -192.81 501.267   1
   7  18 -17  132.29 457.501   1
  17   7 -18 -2373.5 3009.59   1
  17   7 -18   99.86 865.284   1
   7 -17  18  845.77 790.871   1
  18   7 -17  469.41 893.616   1
 -18 -17   9  820.64 357.182   1
  -9 -18  17 1282.11 643.038   1
 -17  -9  18  430.27 714.364   1
  -9  17 -18 7220.81 2356.96   1
 -18  -9  17 -801.34 704.552   1
 -17 -18   9  769.04 421.012   1
   9  18 -17  638.08 531.032   1
  18   9 -17  484.62 902.215   1
  17  18  -9 1074.30 403.042   1
   9  17 -18  958.22 602.689   1
 -18  17 -11 5712.71 1279.90   1
 -11 -18  17 5650.97 1384.63   1
 -17  18 -11 5250.79 1159.74   1
 -11  17 -18 2575.24 2323.89   1
 -11  17 -18 3731.67 2765.95   1
 -17 -18  11 5204.49 1201.63   1
 -11 -17  18 3096.68 925.807   1
  18 -17  11 1553.30 933.854   1
  11 -18  17 1086.21 1215.96   1
  18  17 -11 5429.38 1249.03   1
  11  18 -17 5407.34 1305.26   1
  17  11 -18 1010.14 1004.85   1
  17 -18  11 5710.50 1268.88   1
  11 -17  18 1957.89 1578.66   1
  17  18 -11 4677.54 1092.71   1
 -13  18 -17 -2452.9 2047.18   1
 -18 -17  13  499.83 347.370   1
 -13 -18  17  113.33 490.684   1
 -17 -13  18 1203.84 572.814   1
 -18 -13  17 -162.94 459.376   1
 -17 -18  13  139.12 329.401   1
  13 -18  17 -2440.7 1573.14   1
  18  17 -13  137.14 337.449   1
  13  18 -17    5.53 501.818   1
  17  13 -18  864.84 612.391   1
  17 -18  13  642.38 819.644   1
  13 -17  18 -2375.7 1581.96   1
  17  18 -13  752.84 363.025   1
  13  17 -18  191.27 560.136   1
 -18  17 -15 -629.81 599.603   1
 -15  18 -17 -2804.5 2047.18   1
 -18 -17  15   94.58 371.513   1
 -15 -18  17  -56.43 457.722   1
 -17  18 -15  222.58 1221.47   1
 -18 -15  17   16.71 524.859   1
 -17 -18  15  367.32 353.323   1
 -15 -17  18 -369.31 574.578   1
  18  17 -15 -111.67 336.126   1
  17 -18  15 -1565.4 1133.28   1
  18  15 -17   74.21 513.725   1
  17  18 -15  372.62 332.929   1
  15  17 -18  404.14 525.190   1
 -17  18 -17  734.21 1299.75   1
 -18 -17  17  598.61 512.622   1
 -17 -17  18 -1376.9 643.920   1
  17  18 -17  204.94 432.807   1
  17  17 -18  -18.06 511.299   1
 -18   0  18 116305.  57094.   1
 -18   0  18  20924. 5169.22   1
  18   0 -18  43479.  21508.   1
  18   0 -18 9705.65 3275.27   1
 -18  -2  18  772.79 1858.67   1
 -18  -2  18 -189.50 1770.48   1
  -2 -18  18  242.31 452.982   1
 -18   2  18 -1758.3 1738.51   1
 -18   2  18 1890.64 1909.38   1
   2 -18  18 -562.45 471.282   1
  18   2 -18 -878.95 2295.22   1
  18   2 -18  611.40 1961.19   1
   2  18 -18 -749.64 570.830   1
  -4  18 -18  -57.81 651.085   1
  -4 -18  18  474.48 437.217   1
 -18   4  18  429.94 1690.00   1
  18   4 -18 -995.70 1628.26   1
  18  -6 -18   21.98 2631.46   1
 -18  -6  18  345.94 820.747   1
   6 -18  18 -164.48 561.018   1
   6  18 -18    0.89 566.530   1
 -18  -8  18  16757. 3814.35   1
 -18 -18   8  25763. 5668.61   1
  -8 -18  18  20968. 4659.90   1
  18   8 -18  15037. 3494.65   1
  18  18  -8  25344. 5579.31   1
 -18 -10  18  57590.  12667.   1
 -18 -18  10  55440.  12160.   1
  18 -18  10  71028.  15566.   1
  18  10 -18  74435.  16371.   1
  18  18 -10  48892.  10730.   1
  10  18 -18  77169.  16933.   1
 -18  18 -12  302.61 242.641   1
 -12  18 -18 1742.92 1891.74   1
 -12  18 -18 -565.21 1156.43   1
 -18 -18  12  587.37 334.252   1
 -12 -18  18  216.95 569.176   1
  12 -18  18 -1572.0 1398.96   1
  18  12 -18 -964.72 599.272   1
  12  18 -18  171.87 532.906   1
 -18  18 -14 -598.83 1072.10   1
 -14  18 -18 -1450.8 1674.57   1
 -18 -14  18 -130.08 510.638   1
 -14 -18  18  498.29 572.704   1
  18 -18  14  994.71 871.458   1
  18  18 -14 -284.86 306.802   1
  14  18 -18  449.01 514.055   1
 -18  18 -16 -1374.7 1385.73   1
 -16  18 -18 -706.87 1355.97   1
 -16  18 -18  188.73 503.472   1
 -18 -16  18 1778.19 732.995   1
 -18 -18  16   18.90 409.216   1
 -16 -18  18  284.75 554.293   1
  18  16 -18   83.16 528.828   1
  18  18 -16   68.09 343.843   1
  16  18 -18 -172.86 439.863   1
  19  -1   0 7429.16 1652.52   1
  19   1   0 4489.03 1022.27   1
 -19   0  -1 4360.04 987.983   1
  19   0   1 4218.94 959.540   1
  19   0  -1 5650.97 1274.39   1
  19  -2  -1 1544.48 403.814   1
 -19   2  -1 1251.24 349.244   1
 -19  -2   1  839.05 321.243   1
  19  -1  -2 1831.11 484.070   1
 -19  -1   2 1759.45 462.903   1
 -19   2   1 2479.33 594.862   1
  19  -2   1 1402.27 368.647   1
  19   2  -1  881.71 336.567   1
  19   1  -2 1527.94 410.649   1
 -19  -3   0  671.26 245.728   1
  19   0  -3 1391.25 409.436   1
  19  -3  -2 2222.46 601.807   1
 -19   3  -2  418.59 197.442   1
 -19  -3   2    2.32 254.657   1
 -19  -2   3  268.44 270.642   1
  19   3  -2  243.19 236.798   1
  19   2  -3  397.53 276.926   1
  19  -4  -1  204.17 308.676   1
 -19  -4   1  -92.77 226.656   1
  19  -4   1   81.77 163.819   1
  19   4  -1 -370.74 241.318   1
  19   1  -4  -55.78 345.717   1
 -19   4  -3  978.28 271.855   1
  19  -4   3  930.55 262.154   1
  19   4  -3 1438.65 400.507   1
  19   3  -4 1239.11 421.673   1
 -19   5   0  483.41 297.762   1
  19  -5   0 -120.05 265.792   1
 -19   5  -2  139.68 169.331   1
 -19  -5   2  527.61 272.517   1
 -19  -2   5   45.49 354.205   1
 -19   5   2  510.75 288.061   1
  19  -5   2  291.26 175.725   1
  19   5  -2  259.62 254.657   1
 -19   2   5  482.64 363.025   1
   2   5 -19 -949.40 2459.48   1
  19  -5  -4 1336.12 551.207   1
 -19  -5   4 1568.73 448.462   1
  -5  -4  19 1854.26 2356.96   1
  19  -4  -5 1443.06 569.948   1
 -19  -4   5 3652.29 858.449   1
  -4  -5  19  377.14 2403.26   1
 -19   5   4 -698.05 1665.75   1
   5   4 -19 -2834.3 2449.56   1
 -19   6  -1  205.71 242.090   1
  -1  -6  19 1597.40 2575.24   1
 -19   6   1  307.79 262.154   1
  19  -6   1  -11.48 238.121   1
 -19   1   6  864.51 422.004   1
   1   6 -19 -632.12 1986.55   1
  19  -6  -3 -182.78 380.884   1
 -19   6  -3  883.47 267.115   1
 -19  -6   3    5.93 217.175   1
  -6  -3  19 -674.35 2502.48   1
  19  -3  -6 -143.20 505.126   1
 -19  -3   6   96.43 347.922   1
  19  -6   3  898.25 249.586   1
   6   3 -19 -963.07 2420.90   1
 -19   3   6   84.09 458.604   1
   3   6 -19 -666.30 2812.26   1
  -6  -5  19 1146.51 2010.80   1
  -6  -5  19 -1072.6 3404.25   1
  19  -5  -6  665.42 1195.02   1
 -19  -5   6 4570.60 1061.51   1
  -5  -6  19  262.26 1910.48   1
  -5  -6  19 -1344.9 3485.83   1
   6   5 -19 -1235.8 3561.90   1
   6   5 -19 -2519.0 3639.07   1
  19   5  -6 3565.20 848.858   1
   5   6 -19  744.79 3434.02   1
   5   6 -19 -2676.7 3438.43   1
 -19   7   0  932.20 324.550   1
 -19   0   7  605.67 400.727   1
   0  -7  19 -108.38 2434.13   1
   0   7 -19 -253.56 2127.66   1
 -19   7  -2  445.82 245.066   1
 -19  -7   2   28.10 220.813   1
  -7  -2  19 -539.52 2567.52   1
  19  -2  -7 -121.82 477.345   1
  -2  -7  19 -1030.5 3157.31   1
 -19   7   2 -130.53 422.555   1
  19  -7   2  437.99 243.413   1
   7   2 -19  744.35 2748.32   1
 -19   2   7   21.85 484.621   1
   2   7 -19 -4510.0 4051.37   1
   2   7 -19 -648.88 2625.95   1
 -19   7  -4  508.87 183.883   1
 -19  -7   4  710.40 300.738   1
  -7  -4  19 1250.14 3357.95   1
  19  -4  -7  822.18 932.972   1
 -19  -4   7 1627.16 529.820   1
  -4  -7  19 1942.45 2070.33   1
  -4  -7  19 1732.99 3478.11   1
 -19   7   4  721.20 1725.28   1
 -19   7   4 1462.90 1250.14   1
  19  -7   4  782.93 221.365   1
  19   7  -4  773.67 323.889   1
   7   4 -19  624.41 3458.27   1
   7   4 -19 -1164.1 3613.71   1
 -19   4   7  -30.28 836.732   1
  19   4  -7 1109.03 475.250   1
 -19  -7   6  218.50 325.653   1
  -7  -6  19 1584.17 3833.09   1
  19  -6  -7  838.27 1546.69   1
  19  -6  -7 -1921.5 2355.86   1
 -19  -6   7  431.59 352.772   1
  -6  -7  19 -1979.9 2312.86   1
  -6  -7  19 1193.91 3873.88   1
 -19   7   6 -1794.7 2533.35   1
 -19   7   6 -140.01 1824.49   1
  19   7  -6  257.63 303.274   1
   7   6 -19 2080.25 3254.32   1
   7   6 -19 1330.61 4143.97   1
  19   6  -7  338.66 316.723   1
   6   7 -19 -4504.5 3589.46   1
   6   7 -19 -711.94 3734.98   1
 -19   8  -1 1236.91 382.096   1
  19  -1  -8  634.22 518.575   1
  -1   8 -19 -1003.9 2128.76   1
 -19  -1   8  874.76 443.060   1
  -1  -8  19 -874.10 1775.99   1
  -1  -8  19 1588.58 3475.91   1
 -19   8   1 -143.42 495.976   1
   8   1 -19 2575.24 3288.50   1
 -19   1   8 -126.78 483.518   1
   1  -8  19   -8.20 2463.89   1
   1   8 -19 -1606.2 3602.69   1
   1   8 -19 -986.44 2780.29   1
  19  -8  -3  -12.81 1232.50   1
  19  -8  -3 -314.74 1358.17   1
 -19   8  -3  461.03 227.869   1
 -19  -8   3  295.67 256.091   1
  19  -3  -8  401.72 731.892   1
 -19   8   3 -2866.3 2130.96   1
 -19   8   3   -0.87 1594.09   1
  19  -8   3 1146.51 309.558   1
  19   8  -3  461.25 287.289   1
   8   3 -19 -1403.4 3482.52   1
 -19   3   8 -189.84 870.245   1
   3   8 -19  156.21 2754.93   1
  19  -8  -5  528.28 1342.74   1
  19  -8  -5 2553.19 2451.77   1
 -19   8  -5  306.69 181.237   1
 -19  -8   5  360.82 287.179   1
  19  -5  -8 -730.35 1680.08   1
  19  -5  -8 1552.20 2204.83   1
 -19  -5   8 1196.12 483.959   1
  -5  -8  19 -431.15 4108.69   1
  -5  -8  19 -2728.5 2520.12   1
 -19   8   5 1289.82 2459.48   1
 -19   8   5   -1.32 1688.90   1
  19  -8   5  363.91 144.637   1
  19   8  -5  155.44 268.989   1
   8   5 -19 -537.98 4261.93   1
 -19   5   8 -293.57 1813.47   1
 -19   5   8 3384.41 2246.72   1
  19   5  -8  494.32 433.689   1
   5   8 -19  207.36 2791.31   1
   5   8 -19 -1319.6 3472.60   1
 -19  -8   7  412.74 304.156   1
  -8  -7  19 1438.65 2222.46   1
  19  -7  -8 -609.97 1548.89   1
  19  -7  -8 -3532.1 2977.62   1
 -19  -7   8  588.36 367.545   1
  -7  -8  19  276.26 3271.96   1
 -19   8   7 -421.56 1731.89   1
 -19   8   7 -4060.2 2622.64   1
  19   8  -7 -176.50 331.055   1
  19   7  -8  471.83 374.049   1
   7   8 -19  569.95 2904.86   1
   7   8 -19 2725.17 3168.34   1
  19  -9   0 1138.79 500.055   1
 -19   0   9 3684.26 981.148   1
   0  -9  19  653.40 1855.36   1
   0  -9  19  143.64 3719.54   1
   0   9 -19 -4658.8 4247.60   1
   0   9 -19  -42.29 2845.33   1
  19  -9  -2 -161.61 1232.50   1
  19  -9  -2 -1373.6 1771.58   1
 -19   9  -2 1675.67 458.163   1
  -2 -19   9  -24.35 221.475   1
  -9  -2  19  179.58 2359.16   1
  19  -2  -9  372.51 662.661   1
 -19  -2   9  330.06 417.925   1
  -2  -9  19 -2409.9 4290.59   1
 -19   9   2 -708.41 1866.39   1
 -19   2   9  709.62 748.318   1
   2  -9  19  490.90 2496.97   1
   2   9 -19  -64.67 3395.43   1
   2   9 -19 -1084.2 3165.03   1
  19  -9  -4 -119.28 1369.20   1
  19  -9  -4 -2100.1 2113.33   1
 -19   9  -4  186.75 223.790   1
 -19  -9   4  214.97 243.192   1
  -4 -19   9  297.43 259.949   1
  -9  -4  19 2070.33 2223.57   1
  -9  -4  19 -2380.1 3579.54   1
  19  -4  -9 1638.19 1936.94   1
  19  -4  -9 -329.07 1984.34   1
  -4  -9  19 -5277.3 4164.92   1
  -4  -9  19 -2423.1 2485.94   1
  19  -9   4  317.72 154.448   1
  19   9  -4  124.46 278.139   1
 -19   4   9 2436.33 2265.46   1
 -19   4   9   33.86 1936.94   1
  19  -9  -6 -2552.1 2158.52   1
  19  -9  -6 -1096.9 2465.00   1
  -6 -19   9   40.84 266.123   1
  -9  -6  19 -2828.8 3841.91   1
  -9  -6  19 -2060.4 2305.15   1
  19  -6  -9 -901.22 1698.82   1
  19  -6  -9 -743.36 2988.64   1
 -19  -6   9  104.89 411.421   1
  -6  -9  19 -1037.2 3020.61   1
  -6  -9  19 1051.81 2153.01   1
 -19   9   6 -1256.8 1725.28   1
  19   9  -6  327.64 295.667   1
   6  19  -9  285.86 243.964   1
   9   6 -19 -761.44 3036.05   1
 -19   6   9 -1664.6 2006.39   1
 -19   6   9  923.82 2936.83   1
  19   6  -9  263.59 468.636   1
   6   9 -19 -188.29 2904.86   1
   6   9 -19 -4663.2 3104.40   1
  -8 -19   9 9073.96 2022.93   1
  -9  -8  19 5436.00 3477.01   1
  -9  -8  19  15500. 4282.88   1
  19  -8  -9 6476.68 3689.78   1
 -19  -8   9  11829. 2627.05   1
  -8  -9  19  15357. 4217.83   1
  -8  -9  19 4613.60 3239.99   1
 -19   9   8  613.16 2218.06   1
  19   9  -8  10531. 2342.63   1
   8  19  -9  10158. 2259.95   1
   9   8 -19 2607.21 3449.45   1
  19   8  -9  13218. 2934.62   1
  19 -10  -1 3557.49 2236.80   1
  19 -10  -1 2036.16 2049.39   1
  -1  19 -10 1361.48 401.499   1
  -1 -19  10  591.67 307.794   1
 -10  -1  19 -212.21 2440.74   1
 -19  -1  10 1282.11 595.744   1
  -1 -10  19 -531.91 1965.60   1
  -1 -10  19 1653.62 4157.20   1
 -19  10   1  558.48 1520.23   1
   1 -19  10 1587.47 425.972   1
   1  19 -10 1225.88 380.002   1
  10   1 -19 -1139.9 2840.92   1
 -19   1  10 1584.17 773.012   1
   1 -10  19 -1539.0 1809.06   1
   1 -10  19  161.50 3299.52   1
   1  10 -19 -436.22 3263.14   1
   1  10 -19  516.92 2999.67   1
  19 -10  -3 -1770.5 2189.39   1
 -19  10  -3  310.11 298.754   1
  -3  19 -10  285.30 217.616   1
  -3 -19  10 -276.49 301.290   1
 -10  -3  19 -1085.3 2058.21   1
 -10  -3  19  906.29 3602.69   1
 -19  -3  10  412.52 430.713   1
 -19  10   3  671.92 1470.62   1
 -19  10   3  322.46 2121.04   1
   3 -19  10  454.30 234.704   1
   3  19 -10   99.13 259.067   1
  10   3 -19 -2036.2 3640.17   1
  10   3 -19  499.39 4062.39   1
 -19   3  10 -2172.9 2187.19   1
 -19   3  10 -630.69 1568.73   1
   3  10 -19  605.00 3356.85   1
   3  10 -19 -2688.8 2737.29   1
 -19  10  -5  329.07 183.442   1
  -5  19 -10  467.97 233.271   1
 -10  -5  19  518.91 2128.76   1
 -10  -5  19  -14.32 3815.45   1
  19  -5 -10 -1701.0 1961.19   1
  19  -5 -10 -2146.4 3010.69   1
  -5  10 -19 -901.77 2180.57   1
 -19  -5  10 1061.62 459.045   1
  -5 -10  19 -579.87 2448.46   1
  -5 -10  19 -3611.5 2837.61   1
 -19  10   5  536.76 1692.20   1
  19 -10   5  481.75 171.425   1
   5 -19  10  341.20 214.419   1
  19  10  -5  392.13 334.472   1
   5  19 -10  612.61 289.935   1
  10   5 -19 -4338.0 4121.92   1
  10   5 -19 2941.24 3434.02   1
 -19   5  10  618.67 1947.96   1
 -19   5  10 -750.63 2964.39   1
   5 -10  19 -1082.0 2523.42   1
   5  10 -19 -3410.9 3303.93   1
  19 -10  -7 -958.99 2151.91   1
  -7  19 -10  385.07 218.829   1
 -19 -10   7  571.82 355.198   1
 -10  -7  19 -765.52 2125.45   1
 -10  -7  19 2627.05 3353.54   1
  19  -7 -10 -527.06 1889.54   1
  19  -7 -10 -355.20 3324.88   1
 -19  -7  10  995.59 484.511   1
   7  19 -10  445.82 282.879   1
  10   7 -19 3149.59 3454.96   1
  10   7 -19  -75.17 3593.87   1
 -19   7  10 -1802.4 3029.43   1
 -19   7  10  373.50 1780.40   1
  19   7 -10  540.73 492.999   1
   7  10 -19 -1163.0 1900.56   1
 -19 -10   9  12953. 2872.89   1
 -10  -9  19  18884. 4612.50   1
 -10 -19   9  12160. 2694.30   1
  -9 -10  19 9702.34 2631.46   1
   9 -19  10  13780. 3030.53   1
   9  19 -10  15963. 3522.21   1
  10   9 -19 4697.38 2446.25   1
  19   9 -10  15798. 3495.75   1
  10  19  -9  12193. 2704.22   1
   9  10 -19 8970.34 2425.31   1
 -19  11   0 -136.04 1604.01   1
 -19  11   0  937.27 2093.48   1
 -11   0  19 1956.78 2490.35   1
  19 -11   0  306.36 1160.84   1
  19 -11   0 -1114.5 1524.64   1
   0 -19  11  589.35 277.588   1
  11   0 -19 -211.66 2721.86   1
 -19   0  11   -1.26 599.713   1
   0 -11  19 -227.10 2007.49   1
   0 -11  19 1299.75 3135.26   1
   0  11 -19 -2180.6 3463.78   1
  19 -11  -2  663.54 1450.78   1
  19 -11  -2  915.88 1834.42   1
 -19  11  -2 2068.13 1678.98   1
  -2  19 -11  500.05 242.090   1
  -2 -19  11  722.08 311.762   1
 -11  -2  19 3208.02 2564.21   1
 -11  -2  19 -610.52 3267.55   1
  -2  11 -19 -2285.3 2630.36   1
 -19  -2  11   80.01 441.516   1
  -2 -11  19 -3642.4 3232.28   1
  -2 -11  19  530.26 2071.43   1
 -19  11   2  959.98 1678.98   1
   2 -19  11  335.80 244.074   1
   2  19 -11  406.13 262.485   1
  11   2 -19 -6205.5 4873.77   1
  11   2 -19 1126.67 3900.34   1
 -19   2  11 2547.68 2386.72   1
   2  11 -19 3413.07 3804.43   1
   2  11 -19 -825.49 2425.31   1
  19 -11  -4  -58.71 1660.23   1
 -19  11  -4  697.94 328.409   1
  -4  19 -11  456.84 215.742   1
 -19 -11   4   -1.29 261.492   1
  -4 -19  11  670.38 311.211   1
 -11  -4  19 -198.10 1966.71   1
 -11  -4  19 3157.31 4019.40   1
  -4  11 -19 3302.83 3597.17   1
 -19  -4  11  624.52 446.147   1
  -4 -11  19 -3038.3 2296.33   1
  -4 -11  19 -328.96 2226.87   1
   4 -19  11  571.05 243.303   1
   4  19 -11  335.91 265.130   1
  11   4 -19  166.46 4253.11   1
  11   4 -19 4452.65 3830.89   1
 -19   4  11 -1136.6 1951.27   1
 -19   4  11 -4431.7 3191.49   1
   4 -11  19 -1907.2 1984.34   1
   4 -11  19  834.31 3039.35   1
 -19  11  -6  571.93 189.064   1
  -6  19 -11  142.10 177.489   1
 -19 -11   6  350.13 278.580   1
  -6 -19  11  117.08 258.847   1
 -11  -6  19 -3308.3 2628.15   1
 -11  -6  19 -154.01 3464.88   1
  -6  11 -19 1358.17 2404.36   1
 -19  -6  11  857.35 413.736   1
  -6 -11  19 1213.76 1623.85   1
  19 -11   6  223.13 123.581   1
   6 -19  11  217.95 198.214   1
  19  11  -6  469.08 291.699   1
   6  19 -11  526.62 267.886   1
  11   6 -19 -1095.4 3056.99   1
  11   6 -19 1760.55 3739.39   1
 -19   6  11  -58.67 3550.87   1
 -19   6  11 3887.11 2550.98   1
   6 -11  19 -819.42 2448.46   1
   6  11 -19  -67.88 1310.77   1
  -8  19 -11   84.52 171.535   1
 -19 -11   8  172.64 273.619   1
  -8 -19  11  -63.28 258.736   1
  19  -8 -11 -2597.3 2839.82   1
 -19  -8  11 -307.46 399.074   1
  -8 -11  19 -246.61 1763.86   1
  -8 -11  19  614.60 1023.15   1
   8 -19  11   44.72 175.284   1
  19  11  -8  -99.24 284.423   1
   8  19 -11  149.93 231.617   1
  11   8 -19 1245.73 2527.83   1
 -19   8  11 -183.11 3055.89   1
  19   8 -11  217.51 462.132   1
 -10  19 -11 -208.69 186.308   1
 -19 -11  10  868.48 347.481   1
 -10 -19  11   53.89 280.674   1
 -10 -11  19 -167.90 760.334   1
  10 -19  11 -222.14 183.111   1
  10  19 -11  185.10 262.815   1
  11  10 -19 -561.90 1091.61   1
  11 -19  10  231.84 165.582   1
  19  10 -11 -294.56 392.239   1
  11  19 -10 -308.23 292.801   1
  10  11 -19 -5079.9 3869.47   1
  10  11 -19  268.77 938.925   1
  19 -12  -1 -691.43 1397.86   1
  12  -1 -19 -1887.3 2939.03   1
 -19  12  -1  589.79 1171.87   1
 -19  12  -1 -651.64 1598.50   1
  -1 -19  12  -62.29 242.641   1
 -12  -1  19 2173.96 2258.84   1
 -12  -1  19 -616.69 3531.03   1
  -1  12 -19 -823.50 2592.88   1
  -1 -12  19 -1959.0 2650.20   1
  -1 -12  19 3245.50 2614.92   1
 -12   1  19 -840.04 2677.76   1
  19 -12   1 1470.62 1502.59   1
  19 -12   1 -884.25 1708.74   1
   1 -19  12   73.83 217.065   1
  12   1 -19  621.76 3714.03   1
  12   1 -19 -387.17 4211.22   1
   1 -12  19 -3146.3 2385.62   1
  19   1 -12 2673.35 3076.84   1
  19   1 -12  762.21 697.717   1
   1  12 -19 -2386.7 3539.85   1
   1  12 -19 -1630.5 2048.28   1
 -19  12  -3 1336.12 1407.78   1
  -3 -19  12  599.49 299.195   1
 -12  -3  19  504.46 4321.46   1
 -19  -3  12   55.26 501.488   1
  19 -12   3   90.78 985.116   1
   3 -19  12  896.81 294.344   1
  12   3 -19 4915.66 4170.43   1
  12   3 -19 -686.14 4812.03   1
   3 -12  19 -1976.6 1944.66   1
   3 -12  19  17572. 5581.52   1
   3  12 -19 2742.80 1609.52   1
 -19  12  -5  476.02 304.376   1
  -5  19 -12  244.18 223.900   1
 -19 -12   5 -147.17 274.721   1
  19  -5 -12 -1823.4 2242.31   1
  19  -5 -12 -2096.8 4339.10   1
  -5  12 -19 1149.82 2878.40   1
 -19  -5  12  351.34 430.823   1
  -5 -12  19  486.72 1229.19   1
   5 -19  12  355.42 212.104   1
  19  12  -5  183.11 284.974   1
   5  19 -12  499.94 318.597   1
  12   5 -19 3109.91 4314.85   1
   5 -12  19  482.09 1503.69   1
   5 -12  19 2008.60 3794.51   1
   5  12 -19 -816.34 3185.97   1
   5  12 -19 -1449.7 961.745   1
 -19  12  -7  396.21 134.715   1
  -7  19 -12   64.31 171.095   1
 -19 -12   7  505.57 278.139   1
 -12  -7  19  932.42 2047.18   1
 -12  -7  19 -791.64 2681.07   1
 -19  -7  12  514.83 374.600   1
  19  12  -7  306.47 273.729   1
   7  19 -12   85.86 259.949   1
 -19   7  12 1056.00 3209.12   1
   7 -12  19 -350.57 2668.94   1
   7  12 -19 -631.35 835.519   1
  -9  19 -12  125.34 165.141   1
 -19 -12   9  197.44 270.201   1
 -12  -9  19 1092.05 1041.67   1
 -19  -9  12  321.90 419.027   1
 -12 -19   9 -302.61 283.430   1
  -9 -12  19 -495.42 1696.61   1
  -9 -12  19  305.70 746.003   1
   9 -19  12  228.97 200.088   1
  19  12  -9  109.21 301.620   1
   9  19 -12  139.68 276.816   1
  19   9 -12  684.38 504.023   1
  12  19  -9  198.77 317.385   1
   9  12 -19 -833.64 806.856   1
 -11  19 -12  -27.49 161.173   1
 -19 -12  11   -9.47 296.990   1
 -12 -11  19  211.00 794.289   1
 -12  19 -11   92.56 166.354   1
 -19 -11  12  293.24 422.224   1
 -12 -19  11   12.53 296.218   1
 -11 -12  19  563.77 765.846   1
  11 -19  12  -10.88 198.986   1
  19  12 -11  369.64 304.376   1
  11  19 -12  -51.46 305.148   1
  12  11 -19 -204.17 1016.98   1
  12 -19  11  163.16 172.858   1
  12  19 -11 -366.88 297.762   1
  13   0 -19 -893.84 3383.31   1
  13   0 -19 1311.87 4754.71   1
   0 -13  19 1017.20 1955.68   1
  19   0 -13  957.78 1643.70   1
  13  -2 -19 5485.61 3969.79   1
  -2  19 -13  784.04 285.084   1
  -2 -19  13 -319.70 240.326   1
  19  -2 -13 157866.  77511.   1
  -2 -13  19 -679.53 1734.10   1
  19 -13   2 -290.04 1721.97   1
   2  19 -13  271.52 237.129   1
 -19   2  13 117738.  57811.   1
   2 -13  19  11322. 4259.72   1
  19   2 -13 -169.55 724.285   1
   2  13 -19 3321.57 1423.22   1
 -19  13  -4  37989.  18675.   1
  -4 -19  13  35476. 7783.04   1
 -13  -4  19  31441.  15610.   1
 -13  -4  19  23856. 7301.28   1
  -4  13 -19  19116. 9850.06   1
 -19  -4  13  28310. 6250.68   1
  -4 -13  19  34682. 7687.13   1
  19 -13   4  34087.  16746.   1
  19 -13   4  25157. 5926.57   1
   4 -19  13  31948. 7006.94   1
   4  19 -13  37703. 8269.20   1
 -19   4  13  51406.  25300.   1
   4 -13  19  28045.  13890.   1
   4 -13  19  17396. 5641.05   1
  19   4 -13  23085. 5131.73   1
 -19  13  -6  541.95 329.842   1
 -19 -13   6  944.00 342.299   1
  -6 -19  13  298.53 272.627   1
 -13  -6  19 3208.02 2512.40   1
 -13  -6  19 1623.85 2674.45   1
  19  -6 -13 1515.82 2100.10   1
  19  -6 -13 -274.06 3601.58   1
 -19  -6  13 -195.46 442.950   1
  -6 -13  19 -805.75 757.909   1
   6 -19  13  269.21 221.695   1
  19  13  -6 1337.23 421.563   1
   6  19 -13  523.21 287.179   1
  13   6 -19 -1404.5 2963.29   1
 -19   6  13 -336.35 1682.28   1
   6 -13  19 3747.10 2285.30   1
   6  13 -19 -1631.6 3222.35   1
   6  13 -19   -6.18 735.861   1
  -8  19 -13  104.05 203.836   1
 -19 -13   8   96.45 262.154   1
  -8 -19  13  146.62 254.988   1
 -13  -8  19 1210.45 1395.66   1
  19  -8 -13 -293.79 2036.16   1
  -8  13 -19   21.60 2189.39   1
 -19  -8  13  144.42 426.083   1
  -8 -13  19  421.23 715.246   1
   8 -19  13  -48.86 225.554   1
  19  13  -8  116.64 270.312   1
   8  19 -13  220.92 273.288   1
  13   8 -19 -110.90 1239.11   1
   8  13 -19  614.60 793.407   1
 -10  19 -13 -131.30 205.269   1
 -19 -13  10  264.25 281.446   1
 -10 -19  13  337.12 299.526   1
 -13 -10  19 -359.61 1653.62   1
 -13 -10  19 -278.03 765.736   1
 -10  13 -19  370.30 1385.73   1
 -19 -10  13  436.56 476.132   1
  10 -19  13 -193.03 293.132   1
  19  13 -10  -57.55 279.903   1
  10  19 -13  421.34 309.558   1
  13  10 -19  406.02 985.778   1
  19  10 -13  398.19 520.229   1
  13  19 -10  147.94 305.368   1
  10  13 -19  102.03 843.015   1
 -12  19 -13  932.53 319.369   1
 -19 -13  12 1053.36 403.042   1
 -12 -19  13  857.46 349.906   1
 -13  19 -12 1135.49 299.636   1
 -19 -12  13 1616.14 545.915   1
 -12 -13  19  698.60 693.308   1
  12 -19  13 1694.41 471.833   1
  19  13 -12  893.06 400.727   1
  12  19 -13  965.05 376.915   1
  13  12 -19 1292.03 921.287   1
  13 -19  12 1317.38 343.071   1
  13  19 -12  610.74 356.300   1
  12  13 -19   20.47 837.062   1
  -1 -19  14  310.66 265.682   1
 -14  -1  19 -1491.6 1984.34   1
 -14  -1  19 3870.57 4743.68   1
  19  -1 -14 3302.83 2877.30   1
  19  -1 -14 1403.37 3329.29   1
  -1  14 -19  351.45 1403.37   1
 -19  -1  14   59.31 1159.74   1
  -1 -14  19 -390.58 988.534   1
 -14   1  19 4282.88 3307.24   1
   1 -19  14    7.45 227.648   1
   1  19 -14  202.07 222.136   1
 -19   1  14  902.33 1881.82   1
 -19   1  14 -727.81 3087.86   1
  19   1 -14  400.84 1545.58   1
   1  14 -19 -1031.1 1005.18   1
  14  -3 -19 2361.37 3833.09   1
  -3  19 -14  12104. 2670.04   1
 -14  -3  19 7046.62 4022.71   1
 -14  -3  19  -77.91 4566.20   1
  19  -3 -14 2313.97 2501.38   1
  19  -3 -14 -318.49 4595.96   1
 -19  -3  14 9221.69 2154.12   1
 -19  -3  14 6386.28 3705.21   1
   3 -19  14  13372. 2953.36   1
  14   3 -19 -964.83 4984.01   1
  14   3 -19 1932.53 2921.39   1
 -19   3  14 9179.79 4830.77   1
 -19   3  14  13163. 6774.33   1
   3 -14  19 8419.13 4442.73   1
   3 -14  19 5248.59 2933.52   1
  19   3 -14 6626.61 4463.67   1
  19   3 -14 8545.91 2065.92   1
   3  14 -19 3596.07 3822.07   1
  -5  19 -14 6164.69 1383.53   1
  -5 -19  14 6314.62 1421.01   1
 -14  -5  19 7964.94 4442.73   1
 -14  -5  19 4597.06 3234.48   1
  -5  14 -19 -478.34 2753.83   1
  -5 -14  19 4796.60 1327.31   1
  19 -14   5  -11.77 662.550   1
   5 -19  14 7083.00 1596.29   1
  14   5 -19  22357.  11366.   1
 -19   5  14 4011.68 2618.23   1
 -19   5  14  396.32 3208.02   1
   5 -14  19 4069.01 2509.09   1
  19   5 -14 4766.83 1243.52   1
   5  14 -19 4006.17 1269.98   1
 -14  -7  19  168.01 1394.55   1
  19  -7 -14 -1347.1 1693.31   1
  -7  14 -19 1146.51 1855.36   1
 -19  -7  14  292.14 495.204   1
  -7 -14  19 -508.76 607.981   1
  19  14  -7  359.06 294.565   1
   7  19 -14  900.56 361.922   1
  14   7 -19 -2235.7 1836.62   1
 -19   7  14  137.58 1946.86   1
   7 -14  19  923.93 1839.93   1
  -9  19 -14  172.97 277.918   1
 -19 -14   9  907.95 387.278   1
  -9  14 -19 4013.89 2837.61   1
  -9  14 -19 -1579.8 1604.01   1
 -19  -9  14   92.34 445.044   1
 -14 -19   9 -189.95 313.526   1
  -9 -14  19  792.64 645.022   1
   9 -19  14 -328.96 379.230   1
  19  14  -9    5.31 277.257   1
   9  19 -14 -269.87 264.689   1
  14   9 -19 -2350.3 3171.64   1
  14   9 -19 -352.55 1003.31   1
   9 -14  19  278.91 1551.10   1
  14  19  -9   86.27 313.857   1
   9  14 -19 -1333.9 814.794   1
 -11  19 -14 -310.22 350.457   1
 -19 -14  11  120.93 282.328   1
 -14 -11  19  -84.39 779.406   1
 -14  19 -11  125.56 152.684   1
 -11  14 -19  275.82 1664.64   1
 -14 -19  11  538.31 323.448   1
 -11 -14  19 -212.32 655.054   1
  19  14 -11  -87.01 305.368   1
  11  19 -14   33.24 312.975   1
  14 -19  11  434.46 181.237   1
  19  11 -14  640.72 539.852   1
  14  19 -11  165.91 295.557   1
  11  14 -19 -487.71 797.486   1
 -19 -14  13 2925.80 755.043   1
 -13 -19  14 3091.17 760.775   1
 -14  19 -13 2549.88 627.604   1
 -19 -13  14 2474.92 723.624   1
 -14 -19  13 3635.76 881.379   1
 -13 -14  19 3034.94 1089.51   1
  13 -19  14 2181.68 630.029   1
  19  14 -13 3235.58 808.620   1
  13  19 -14 3006.28 750.082   1
  14  13 -19 -981.26 992.723   1
  14  19 -13 2179.47 591.886   1
 -15   0  19 -438.65 1810.16   1
 -15   0  19 -827.91 3149.59   1
   0 -19  15 -126.56 311.321   1
  15   0 -19 -374.93 2812.26   1
  15   0 -19 -502.37 3331.49   1
 -19   0  15 2677.76 2258.84   1
 -19   0  15 -348.69 1947.96   1
  19   0 -15 -268.00 2339.32   1
  19   0 -15 -4561.8 3116.52   1
   0  15 -19  301.07 822.841   1
  -2  19 -15  358.17 355.859   1
 -15  -2  19 -357.18 1818.98   1
 -15  -2  19 -1404.5 2919.19   1
  19  -2 -15 1117.85 2155.22   1
 -19  -2  15 -159.41 1105.72   1
  -2 -15  19  275.38 726.160   1
  -2 -15  19 -3234.5 2297.43   1
 -15   2  19 1850.95 2164.04   1
   2 -19  15 1099.99 402.491   1
   2  19 -15 1213.76 385.293   1
  15   2 -19  666.41 2503.58   1
  15   2 -19 -1639.3 3317.16   1
 -19   2  15  619.12 2848.64   1
 -19   2  15  392.46 1831.11   1
   2 -15  19  425.09 1231.40   1
  19   2 -15   60.22 1014.44   1
   2  15 -19  -43.25 713.592   1
  -4  19 -15  939.48 398.633   1
  -4 -19  15  909.05 363.686   1
 -15  -4  19 3317.16 2430.82   1
 -15  -4  19  883.58 2240.10   1
 -19  -4  15 -196.89 1501.49   1
 -19  -4  15  755.26 660.345   1
  -4 -15  19  679.97 698.599   1
   4 -19  15 1510.31 471.282   1
   4  19 -15 1758.35 483.518   1
  15   4 -19 -433.69 2526.73   1
  15   4 -19 -108.66 2552.09   1
 -19   4  15 2802.33 2107.81   1
 -19   4  15 -613.49 2348.14   1
   4 -15  19   79.76 1497.08   1
  19   4 -15  959.43 830.889   1
  -6  19 -15  944.11 419.689   1
 -19 -15   6  816.56 331.606   1
  -6 -19  15 1186.20 417.815   1
  -6  15 -19 -420.90 2137.58   1
  -6  15 -19 -127.33 1644.80   1
  19  15  -6  670.93 347.150   1
   6  19 -15  704.88 327.086   1
  15   6 -19 -1002.9 1822.29   1
 -19   6  15 -1236.9 1675.67   1
  19   6 -15  787.45 703.119   1
   6  15 -19 -219.82 652.849   1
 -19 -15   8  152.46 253.114   1
  -8 -19  15  627.82 331.275   1
 -15  -8  19 -525.96 775.107   1
  -8  15 -19 -1626.1 2225.77   1
  -8  15 -19 1875.20 1841.03   1
 -19  -8  15 -165.91 505.567   1
 -15 -19   8  281.67 264.138   1
  -8 -15  19 -627.82 648.439   1
   8  19 -15  282.00 284.533   1
   8 -15  19 1018.63 1450.78   1
   8 -15  19 1936.94 1672.36   1
   8  15 -19  166.68 698.820   1
 -10 -19  15   67.59 324.109   1
 -15 -10  19  442.73 789.548   1
 -10  15 -19 -1749.5 2189.39   1
 -19 -10  15  681.29 500.606   1
 -10 -15  19 -251.68 647.447   1
  10 -19  15 -188.40 392.349   1
  19  15 -10 -408.33 326.866   1
  10  19 -15  -12.02 290.927   1
  15  10 -19   97.74 939.477   1
  15  19 -10   55.96 320.582   1
 -12  19 -15  138.90 440.965   1
 -12 -19  15  449.34 362.032   1
 -15 -12  19 -674.13 732.774   1
 -15  19 -12  774.22 235.806   1
 -12 -15  19  235.59 733.325   1
  12 -19  15  112.01 450.777   1
  19  15 -12  427.63 330.062   1
  15  12 -19  621.76 967.037   1
  15 -19  12  531.91 227.097   1
  19  12 -15  889.98 594.421   1
  15  19 -12  829.24 369.970   1
  12  15 -19 -684.16 735.640   1
 -14  19 -15  150.04 384.742   1
 -19 -15  14  735.97 424.429   1
 -14 -19  15  334.69 351.560   1
 -15 -14  19  101.19 643.809   1
 -15  19 -14 -281.23 321.133   1
 -19 -14  15  411.75 466.321   1
 -15 -19  14  903.43 391.357   1
 -14 -15  19 -178.04 537.316   1
  19  15 -14 1368.09 465.990   1
  15  14 -19 -311.54 597.618   1
  19  14 -15  828.57 502.259   1
  15  19 -14 1134.38 422.004   1
  14  15 -19 1137.69 651.857   1
  16  -1 -19 1759.45 2638.07   1
  16  -1 -19  620.22 2310.66   1
  -1 -19  16  563.11 422.555   1
 -16  -1  19 -994.82 1729.69   1
 -16  -1  19 1003.20 2141.99   1
  -1  16 -19 -747.00 2480.43   1
  -1  16 -19 -198.54 722.191   1
 -19  -1  16 -115.75 1136.59   1
 -19  -1  16 2295.22 2040.57   1
  -1 -16  19 -169.77 668.724   1
 -16   1  19 -1358.2 1968.91   1
 -16   1  19 -1313.0 1767.17   1
   1 -19  16  512.84 417.704   1
   1  19 -16 1157.53 438.430   1
  16   1 -19 -1564.3 2334.91   1
  16   1 -19  204.61 2235.69   1
 -19   1  16  875.98 1773.78   1
 -19   1  16 1472.82 1874.10   1
   1 -16  19   33.44 632.124   1
  19   1 -16 -897.25 2129.86   1
  16  -3 -19  446.37 1736.30   1
  -3 -19  16  288.50 374.380   1
  19  -3 -16 -2192.7 2006.39   1
 -19  -3  16  173.30 1065.48   1
 -16   3  19  209.90 1533.46   1
   3  19 -16  -47.41 340.205   1
  16   3 -19  917.54 2474.92   1
  16   3 -19 -2351.4 2046.08   1
   3 -16  19  -91.35 663.432   1
  19   3 -16  284.64 2387.83   1
  19   3 -16  245.73 971.116   1
   3  16 -19 -113.55 682.063   1
  -5 -19  16  304.82 353.985   1
 -16  -5  19 -1352.7 1904.97   1
 -16  -5  19  259.62 1598.50   1
  19  -5 -16 1817.88 2455.07   1
  19  -5 -16  775.44 1919.30   1
  -5  16 -19 -417.37 1112.33   1
 -19  -5  16  696.61 682.945   1
 -19  -5  16  965.82 1621.65   1
  -5 -16  19 -268.66 542.277   1
   5 -19  16 -381.55 362.473   1
  19   5 -16  618.34 730.569   1
   5  16 -19   20.90 731.120   1
  -7  19 -16 1638.19 629.809   1
 -19 -16   7  241.21 310.991   1
 -16  -7  19 -544.26 992.282   1
  -7  16 -19 3406.46 2729.57   1
  -7  16 -19 2172.86 1718.66   1
  -7 -16  19  121.38 595.413   1
   7 -19  16   92.78 421.783   1
  19  16  -7  364.57 309.117   1
   7  19 -16  994.71 397.751   1
  16   7 -19 -1090.3 983.022   1
   7 -16  19 1427.62 1592.99   1
  19   7 -16   84.99 742.365   1
   7  16 -19  343.95 645.353   1
 -19 -16   9  371.73 300.518   1
 -16  -9  19 2575.24 2329.40   1
 -16  -9  19  583.18 840.590   1
  -9  16 -19 -1773.8 2306.25   1
 -19  -9  16 -237.02 568.735   1
 -16 -19   9  971.23 377.577   1
  -9 -16  19  901.33 756.807   1
   9 -19  16  269.87 475.361   1
  19  16  -9  380.33 278.359   1
   9  19 -16  778.30 375.041   1
  16   9 -19   71.34 953.918   1
   9 -16  19 3216.84 2048.28   1
  16  19  -9 1269.98 440.965   1
   9  16 -19 -437.22 707.088   1
 -11  19 -16  248.15 663.322   1
 -19 -16  11 1115.64 384.522   1
 -11 -19  16  435.45 373.387   1
 -16  19 -11  347.70 155.550   1
 -11  16 -19 -1736.3 2980.93   1
 -19 -11  16  707.42 555.396   1
 -16 -19  11  564.66 326.645   1
 -11 -16  19  -56.95 638.848   1
  11  19 -16  369.53 358.725   1
  16  11 -19 -1159.7 911.585   1
  16 -19  11  599.71 186.749   1
  11 -16  19 -527.61 1145.41   1
  19  11 -16 1505.90 693.197   1
  16  19 -11  745.01 339.102   1
  11  16 -19  426.63 660.676   1
 -13 -19  16  927.79 457.060   1
 -16 -13  19  316.61 594.311   1
 -16  19 -13  444.93 305.368   1
 -16 -19  13  634.00 351.008   1
 -13 -16  19 -633.78 571.822   1
  19  16 -13  475.25 319.149   1
  13  19 -16  774.67 393.231   1
  16 -19  13 -135.60 260.831   1
  19  13 -16  250.14 531.914   1
  16  19 -13  436.89 340.094   1
  13  16 -19  346.16 547.569   1
 -15  19 -16   63.41 524.969   1
 -19 -16  15  -78.24 358.174   1
 -15 -19  16  425.86 408.885   1
 -16 -15  19 -487.05 540.293   1
 -16  19 -15  -95.19 403.152   1
 -19 -15  16  560.91 470.069   1
 -16 -19  15  214.75 386.947   1
 -15 -16  19 -129.97 516.370   1
  15 -19  16 1397.86 1195.02   1
  19  16 -15  512.40 384.632   1
  15  19 -16   -4.76 360.599   1
  16  15 -19  621.21 546.687   1
  16 -19  15 -1105.7 1100.21   1
  19  15 -16  194.36 417.043   1
  17   0 -19  136.37 2201.52   1
  17   0 -19   14.77 2073.64   1
  19   0 -17 3237.79 2672.25   1
  19   0 -17 2275.38 2007.49   1
  17  -2 -19 -1311.9 2591.77   1
  17  -2 -19 -1279.9 2166.24   1
 -17  -2  19 -227.87 1724.17   1
  19  -2 -17  508.21 2044.98   1
  19  -2 -17 3747.10 2886.12   1
 -19  -2  17 1448.57 1525.74   1
 -19  -2  17 1538.97 1867.49   1
  -2 -17  19  408.55 588.909   1
 -17   2  19 -697.61 2065.92   1
 -17   2  19 -145.08 1564.32   1
   2 -19  17  221.59 352.441   1
   2  19 -17 -489.58 401.609   1
   2 -17  19 -690.44 1537.87   1
   2 -17  19  611.40 593.208   1
   2  17 -19 -297.65 686.914   1
  17  -4 -19 -556.94 1792.52   1
  -4  19 -17 -568.07 524.859   1
  -4 -19  17 -100.79 422.224   1
 -17  -4  19  183.66 1756.14   1
 -17  -4  19 -123.36 1652.52   1
  19  -4 -17 1843.23 2462.79   1
  19  -4 -17 -1149.8 2457.28   1
  -4  17 -19  315.95 794.068   1
 -19  -4  17  377.36 886.891   1
  -4 -17  19  443.50 571.491   1
 -17   4  19 -800.13 1712.05   1
   4 -19  17   32.03 394.002   1
   4  19 -17   28.10 391.577   1
  17   4 -19 -1605.1 2599.49   1
 -19   4  17  770.81 2187.19   1
 -19   4  17  527.28 1577.55   1
  19   4 -17 -170.87 808.400   1
   4  17 -19 -181.35 697.166   1
  -6 -19  17 -436.67 436.115   1
 -17  -6  19   16.92 1452.98   1
  19  -6 -17 -943.22 2192.70   1
  -6  17 -19 -195.02 962.958   1
 -19  -6  17 -266.56 699.150   1
  -6 -17  19  573.70 614.485   1
   6 -19  17 -287.07 434.351   1
   6  19 -17 -145.52 394.002   1
  17   6 -19 -125.12 1220.37   1
 -19   6  17  988.64 2437.44   1
   6 -17  19  446.37 1063.28   1
  19   6 -17 -102.15 902.215   1
   6  17 -19 -433.25 734.979   1
  -8  19 -17  933.74 762.539   1
 -19 -17   8 3026.12 745.783   1
  -8 -19  17 3570.72 928.011   1
  -8  17 -19 2771.47 1925.92   1
 -17 -19   8 3585.05 862.308   1
  -8 -17  19 1360.38 703.450   1
  19  17  -8 3122.03 762.980   1
   8  19 -17 3163.93 826.810   1
  17   8 -19 4453.75 3811.04   1
  17   8 -19  600.15 1041.01   1
   8 -17  19 -235.70 1387.94   1
   8  17 -19  994.49 642.376   1
 -19 -17  10 1768.27 514.276   1
 -10 -19  17 1487.16 559.254   1
 -17 -10  19   67.26 690.331   1
 -10  17 -19 2519.01 2359.16   1
 -19 -10  17  204.17 605.004   1
 -10 -17  19 -354.65 636.423   1
  19  17 -10 1032.19 387.278   1
  17  19 -10  947.08 428.067   1
  10  17 -19 1755.04 737.735   1
 -12  19 -17  478.67 672.031   1
 -19 -17  12  578.88 366.001   1
 -12 -19  17  868.59 573.255   1
 -17 -12  19 -128.32 578.877   1
 -17  19 -12  479.77 191.820   1
 -12  17 -19 1662.44 1936.94   1
 -12  17 -19 1022.16 1382.43   1
 -19 -12  17   58.63 485.172   1
 -12 -17  19  -27.13 554.404   1
  19  17 -12  459.38 321.684   1
  17  12 -19  253.56 708.741   1
  17 -19  12 -192.92 217.506   1
  19  12 -17  -82.95 546.135   1
  17  19 -12 -532.25 331.275   1
 -14  19 -17 -213.87 540.844   1
 -19 -17  14 -433.91 313.196   1
 -17 -14  19 -258.85 517.803   1
 -14  17 -19 -350.02 1407.78   1
 -17 -19  14 -292.03 357.072   1
  14 -19  17  761.55 1024.80   1
  14  19 -17 -266.01 363.796   1
  17  14 -19 -298.53 550.766   1
  17 -19  14  169.44 385.624   1
  19  14 -17   25.87 530.261   1
  17  19 -14  515.49 348.142   1
 -16  19 -17 -646.34 1654.72   1
 -19 -17  16 -833.42 494.432   1
 -16 -19  17  566.97 505.567   1
 -17  19 -16  405.47 1435.34   1
 -16  17 -19 -286.08 429.610   1
 -19 -16  17   14.22 478.888   1
 -17 -19  16  693.86 410.208   1
  16 -19  17 -2050.5 1389.04   1
  19  17 -16   88.48 376.364   1
  16  19 -17 -100.63 373.939   1
  17 -19  16 -706.43 944.768   1
  19  16 -17 -182.89 441.516   1
  17  19 -16 -320.47 331.165   1
  16  17 -19   54.55 559.144   1
  18  -1 -19 -1692.2 3396.53   1
  -1  19 -18  205.27 606.658   1
  -1 -19  18   72.60 425.201   1
 -18  -1  19  109.34 1817.88   1
 -18  -1  19 -807.08 2914.78   1
  19  -1 -18 1728.58 2521.22   1
  19  -1 -18 -2653.5 3124.24   1
  -1  18 -19 -177.05 707.308   1
 -19  -1  18 1118.95 1919.30   1
  -1 -18  19 -327.42 568.073   1
   1 -19  18  -56.87 511.299   1
  18   1 -19 -3206.9 2916.99   1
 -19   1  18 -582.29 3050.38   1
 -19   1  18 -4764.6 2955.57   1
   1 -18  19 -440.52 526.953   1
  19   1 -18 -2078.0 2552.09   1
  19   1 -18 1276.59 2805.64   1
   1  18 -19 -334.36 711.057   1
  18  -3 -19 -5806.4 3757.02   1
  18  -3 -19 1853.16 3388.82   1
  -3  19 -18 -251.79 697.166   1
 -18  -3  19 -453.86 1801.34   1
 -18  -3  19 2397.75 2759.34   1
  19  -3 -18 -2272.1 2702.01   1
  19  -3 -18 3376.69 3677.65   1
  -3 -18  19  333.26 607.209   1
   3 -19  18  -92.44 441.406   1
  18   3 -19 -590.34 2817.77   1
  18   3 -19 4961.96 3475.91   1
 -19   3  18 -1469.5 3085.65   1
 -19   3  18 1836.62 1870.80   1
  19   3 -18  516.37 2068.13   1
   3  18 -19  805.97 714.474   1
  18  -5 -19  854.04 2983.13   1
  -5  19 -18  423.99 725.388   1
 -18  -5  19 -823.83 1627.16   1
  -5  18 -19 -737.51 840.590   1
 -19  -5  18  296.55 1529.05   1
 -19  -5  18 -254.00 1045.20   1
  -5 -18  19  534.12 532.135   1
 -18   5  19 -1311.9 3279.68   1
   5 -19  18  -76.95 469.628   1
   5  19 -18   95.14 494.212   1
  18   5 -19  478.34 1962.30   1
 -19   5  18 -2917.0 2912.58   1
   5 -18  19  295.01 614.154   1
   5  18 -19  721.42 665.637   1
  -7  19 -18  385.51 703.560   1
 -19  -7  18  -19.62 736.522   1
  -7 -18  19 -1043.4 609.855   1
   7  19 -18 1117.85 542.167   1
  18   7 -19  -83.41 994.818   1
   7 -18  19  -88.81 777.201   1
  19   7 -18   76.20 942.563   1
  -9 -19  18 8425.74 1956.78   1
 -18  -9  19 4167.12 1212.65   1
 -18 -19   9 8849.07 1990.96   1
  -9 -18  19 5367.65 1355.97   1
  19  18  -9 7135.92 1615.04   1
   9  19 -18 7246.16 1690.00   1
  18   9 -19 5474.58 1497.08   1
  19   9 -18 7877.84 1958.99   1
  18  19  -9 7261.60 1649.21   1
   9  18 -19 3711.83 1010.69   1
 -19 -18  11 3731.67 896.152   1
 -11 -19  18 1698.82 719.986   1
 -18  19 -11 2199.31 499.944   1
 -11  18 -19 -1411.1 1928.12   1
 -19 -11  18  330.61 559.475   1
 -18 -19  11 2376.80 627.494   1
  19 -18  11 2308.45 535.663   1
  19  18 -11 2124.35 573.806   1
  11  19 -18  785.25 535.883   1
  18 -19  11 3101.09 691.985   1
  11 -18  19 2545.47 1777.09   1
  18  19 -11 1818.98 514.937   1
 -19  18 -13 -252.45 930.547   1
 -13  19 -18 -639.73 600.595   1
 -19 -18  13  301.07 324.220   1
 -13 -19  18  -38.74 523.756   1
 -18  19 -13   51.38 255.650   1
 -13  18 -19  206.26 1684.49   1
 -19 -13  18 -156.10 482.967   1
 -18 -19  13  533.79 359.828   1
  13 -19  18 -451.00 1062.84   1
  19  18 -13  168.01 303.384   1
  13  19 -18   35.40 465.329   1
  18  13 -19  874.54 592.878   1
  13 -18  19 -746.77 1284.31   1
  19  13 -18  375.92 530.261   1
  13  18 -19  117.30 544.813   1
 -15  19 -18   35.01 1832.21   1
 -19 -18  15  -52.23 340.756   1
 -15 -19  18  470.73 516.701   1
 -18 -15  19  154.23 450.005   1
 -18  19 -15 -1371.4 1389.04   1
 -15  18 -19 -889.65 1684.49   1
 -15 -18  19   29.09 644.360   1
  15 -19  18 -789.66 1113.44   1
  18 -19  15  261.38 801.675   1
  19  15 -18 -820.75 581.523   1
  18  19 -15   21.66 294.455   1
  15  18 -19 -733.88 549.773   1
 -19   0  19 8332.04 4552.97   1
 -19   0  19 5985.00 4558.48   1
   0 -19  19 6985.99 1677.87   1
  19   0 -19 1898.36 2730.68   1
  19   0 -19 -4051.4 4529.82   1
   0  19 -19 4817.55 1343.84   1
 -19  -2  19  710.06 1757.25   1
 -19  -2  19 -2990.8 3111.01   1
  -2 -19  19  158.75 597.067   1
 -19   2  19 3058.09 2176.16   1
 -19   2  19 -1502.6 3648.99   1
   2 -19  19    3.59 517.252   1
  19   2 -19 -4051.4 3138.57   1
  19   2 -19 -303.94 3115.42   1
   2  19 -19 -665.64 624.627   1
  19  -4 -19 -125.34 3641.27   1
  -4  19 -19 1394.55 788.887   1
  -4 -19  19 -482.97 510.528   1
  19   4 -19 -922.61 2193.80   1
  19  -6 -19 1672.36 2291.92   1
 -19  -6  19 -487.49 885.899   1
   6 -19  19   61.29 554.845   1
   6  19 -19 -112.34 549.222   1
  -8  19 -19  566.09 1898.36   1
  -8  19 -19  511.41 723.955   1
 -19  -8  19 2845.33 934.957   1
 -19 -19   8 3869.47 937.272   1
  -8 -19  19 3409.76 920.515   1
  19   8 -19  460.15 851.394   1
  19  19  -8 2276.48 629.478   1
 -19 -19  10 1513.61 490.905   1
  10 -19  19 1230.29 869.253   1
  19  10 -19 -198.43 736.963   1
  10  19 -19  604.23 564.215   1
 -19  19 -12   13.22 162.275   1
 -19 -12  19  389.70 543.931   1
 -12 -19  19 -264.03 630.250   1
  19 -19  12   50.01 177.048   1
  12 -19  19 -225.33 1156.43   1
  19  19 -12   80.27 334.582   1
  12  19 -19    1.13 535.442   1
 -19  19 -14 -2183.9 1551.10   1
 -14  19 -19  252.23 566.310   1
 -19 -14  19 -257.08 436.004   1
 -19 -19  14 -330.61 329.732   1
 -14 -19  19 1099.77 1381.32   1
 -14 -19  19   48.19 578.987   1
  19 -19  14   30.18 730.790   1
  14 -19  19  872.23 1200.53   1
  19  14 -19   54.37 462.132   1
  19  19 -14  244.52 319.259   1
  14  19 -19 -135.38 486.936   1
  20   0   0  24209. 5316.94   1
  20  -1  -1  10742. 2372.39   1
 -20  -1   1 8124.79 1805.75   1
 -20   1   1 9161.05 2033.95   1
  20   1  -1 6546.13 1465.11   1
 -20  -2   0 1281.00 365.340   1
 -20   2   0 1494.87 392.790   1
  20  -2   0 1098.66 328.188   1
  20   2   0  924.92 325.212   1
  20   0  -2 1075.73 377.136   1
 -20   2  -2   16.06 173.961   1
 -20   2   2 -337.12 320.141   1
  20  -2   2 -157.42 194.135   1
  20  -3  -1 1977.73 514.166   1
 -20   3  -1 1318.49 353.875   1
  20  -1  -3 1381.32 492.117   1
 -20  -1   3 2084.66 537.867   1
  20   3  -1 1166.35 352.441   1
 -20   3  -3   96.47 165.582   1
 -20  -3   3  490.79 285.415   1
 -20   3   3  552.09 310.109   1
  20   3  -3  203.95 275.273   1
 -20   4   0 1243.52 377.907   1
  20  -4   0 2180.57 532.355   1
 -20   0   4 2031.75 579.539   1
  20   0  -4 1143.20 436.445   1
 -20   4  -2  959.98 296.549   1
 -20  -4   2  430.49 262.926   1
 -20  -2   4 1352.66 413.846   1
  20  -4   2  470.95 203.285   1
  20   2  -4 1567.63 451.879   1
  20  -4  -4 2582.95 717.781   1
 -20  -4   4 4522.10 1048.06   1
 -20   4   4 3200.31 813.691   1
  20   4  -4 4569.50 1054.02   1
   4   4 -20 -771.58 2999.67   1
 -20   5  -1  442.07 220.924   1
 -20  -5   1  527.84 257.524   1
 -20  -1   5 -106.31 378.679   1
 -20   5   1  397.20 307.243   1
  20  -5   1  394.33 197.222   1
 -20   1   5  622.53 381.104   1
  20   1  -5   17.98 370.521   1
  20  -5  -3  500.61 374.600   1
  20  -3  -5 1438.65 534.891   1
 -20  -3   5 1751.73 497.299   1
  -3  -5  20 -138.90 2784.70   1
  20   5  -3  577.44 297.872   1
  20   3  -5 2261.05 585.271   1
   3   5 -20 -743.91 2522.32   1
  20  -5  -5 5193.47 3205.82   1
  20  -5  -5 5763.42 1391.25   1
 -20  -5   5 8053.13 1801.34   1
 -20   6   0 1261.16 390.144   1
 -20   0   6 1454.08 498.732   1
  20  -6  -2  262.59 319.369   1
 -20   6  -2  -52.65 191.379   1
 -20  -6   2  -18.48 234.373   1
  20  -2  -6  580.09 441.847   1
 -20  -2   6  260.50 410.098   1
  -2  -6  20 -903.54 2659.02   1
  20  -6   2   80.31 196.781   1
 -20   2   6  791.42 410.318   1
  20   2  -6  384.63 408.113   1
   2   6 -20 -2549.9 2353.65   1
 -20   6  -4  239.44 176.937   1
 -20  -6   4  283.87 276.706   1
  -6  -4  20  249.48 2624.85   1
  20  -4  -6   83.76 527.946   1
 -20  -4   6  916.66 383.419   1
 -20   6   4 -179.69 459.706   1
  20  -6   4  113.44 145.188   1
  20   6  -4  613.60 329.070   1
   6   4 -20 -374.93 2889.42   1
   4   6 -20 4588.24 3742.69   1
  -6  -6  20 2888.32 2524.53   1
  -6  -6  20 -1878.5 3803.33   1
 -20   6   6 -2670.0 2441.85   1
 -20   6   6 -413.63 1394.55   1
  20   6  -6 1602.91 485.723   1
   6   6 -20 -106.33 3781.28   1
   6   6 -20 -2408.8 3919.08   1
  20  -7  -1  379.01 299.085   1
 -20   7  -1 1087.42 367.765   1
  20  -1  -7 -152.13 418.366   1
 -20  -1   7 -187.41 370.301   1
  -1  -7  20 -1270.0 2607.21   1
  20  -7   1  924.92 355.528   1
 -20   1   7  697.83 421.232   1
  20   1  -7  502.92 411.972   1
   1   7 -20 -1450.8 2279.79   1
 -20   7  -3  268.99 216.293   1
 -20  -7   3   74.18 246.059   1
  -7  -3  20 1003.64 2567.52   1
  20  -3  -7  289.38 516.591   1
 -20  -3   7 -260.06 416.492   1
  -3  -7  20 -1055.3 3967.58   1
 -20   7   3 -338.22 578.436   1
  20  -7   3   70.26 142.762   1
  20   7  -3   52.04 275.493   1
   7   3 -20 -2988.6 3020.61   1
 -20   3   7 1578.66 2081.36   1
 -20   3   7  678.87 505.126   1
   3   7 -20 -3644.6 3942.23   1
   3   7 -20  326.87 3392.13   1
  20  -7  -5  310.33 1607.32   1
  -7  -5  20 2461.69 3906.95   1
  -7  -5  20 1724.17 2214.75   1
  20  -5  -7  386.62 1324.00   1
 -20  -5   7 2236.80 637.746   1
  -5  -7  20 -2591.8 4270.75   1
  -5  -7  20 -4061.3 2872.89   1
 -20   7   5 2220.26 1577.55   1
 -20   7   5  421.67 1821.19   1
  20   7  -5 3812.14 916.105   1
   7   5 -20 3052.58 4152.79   1
   7   5 -20 -2132.1 4155.00   1
  20   5  -7 1999.78 568.294   1
 -20  -7   7   10.66 362.032   1
  -7  -7  20  774.22 2219.16   1
  -7  -7  20 -934.52 3959.87   1
 -20   7   7 1146.51 2040.57   1
 -20   7   7 -853.60 2816.67   1
   7   7 -20 -2182.8 3180.46   1
   7   7 -20 1203.84 3924.59   1
 -20   0   8  799.80 443.280   1
   0  -8  20 -2562.0 2683.27   1
  20   0  -8  911.48 522.654   1
  20  -8  -2   43.39 486.495   1
  -8  -2  20 2068.13 2826.59   1
  20  -2  -8  251.02 533.237   1
  -2   8 -20 1138.79 2423.10   1
 -20  -2   8  268.88 389.262   1
  -2  -8  20   -4.65 1928.12   1
  -2  -8  20  542.72 3955.46   1
   8   2 -20 -1177.4 2811.15   1
 -20   2   8 -112.23 497.188   1
   2   8 -20 1556.61 3777.97   1
   2   8 -20 -832.32 2946.75   1
  20  -8  -4  478.34 1368.09   1
  20  -8  -4  510.64 1757.25   1
 -20   8  -4  741.04 242.972   1
 -20  -8   4  277.70 263.918   1
  -8  -4  20  799.36 1998.68   1
  -8  -4  20 6405.02 4229.96   1
 -20  -4   8 1500.38 544.261   1
 -20   8   4  474.37 1761.66   1
  20  -8   4  607.54 215.191   1
   8   4 -20 -4452.6 4318.15   1
   8   4 -20 -862.09 4003.96   1
  20   4  -8 1368.09 572.263   1
   4   8 -20 -2401.1 3682.06   1
  20  -8  -6  204.61 1409.99   1
  20  -8  -6 -1203.8 2681.07   1
 -20  -8   6  512.84 310.881   1
  -8  -6  20 5790.98 4360.04   1
  20  -6  -8 -1882.9 1870.80   1
  20  -6  -8 1265.57 2769.26   1
  -6  -8  20 1359.28 2381.21   1
  -6  -8  20  819.86 4217.83   1
 -20   8   6 -2541.1 2212.54   1
 -20   8   6 -1758.3 2730.68   1
   8   6 -20 4224.45 4474.69   1
   8   6 -20 2392.24 3380.00   1
  20   6  -8   73.60 386.837   1
   6   8 -20 -1822.3 3098.88   1
   6   8 -20 -2358.1 3663.32   1
 -20  -8   8 1229.19 395.656   1
  -8  -8  20 -974.64 5157.09   1
   8   8 -20  263.04 2805.64   1
   8   8 -20 -1703.2 4055.78   1
 -20   9  -1  326.87 297.321   1
  -9  -1  20   68.25 2750.52   1
  20  -1  -9  -18.31 527.505   1
  -1   9 -20 -1166.4 2736.19   1
 -20  -1   9  816.78 451.438   1
  -1  -9  20 3761.43 2663.43   1
  -1  -9  20 -1154.2 3797.81   1
   9   1 -20 -794.62 2989.74   1
 -20   1   9  310.99 521.111   1
   1   9 -20 -1220.4 3755.92   1
  20  -9  -3  117.41 1268.88   1
  20  -9  -3 -2493.7 1977.73   1
 -20  -9   3  578.00 288.832   1
  20  -3  -9  -87.40 927.350   1
  -3   9 -20 -2752.7 2182.78   1
 -20  -3   9  911.92 438.319   1
  -3  -9  20 -2400.0 2422.00   1
  -3  -9  20  -37.54 4387.60   1
  20  -9   3 1426.52 387.939   1
   9   3 -20 3835.30 4181.45   1
   9   3 -20 1640.39 3893.72   1
 -20   3   9  989.09 930.216   1
   3  -9  20  451.00 2788.00   1
  20   3  -9 -218.61 446.036   1
   3   9 -20 2984.23 3856.24   1
   3   9 -20 -150.92 3194.79   1
  20  -9  -5 -1726.4 1644.80   1
  20  -9  -5 -871.24 2426.41   1
 -20   9  -5  446.81 208.577   1
 -20  -9   5 1783.70 484.180   1
  20  -5  -9 1057.88 1803.55   1
  20  -5  -9 -1550.0 2585.16   1
 -20  -5   9  -44.57 449.013   1
  -5  -9  20 2972.11 4466.98   1
  -5  -9  20 -419.36 2231.28   1
  20  -9   5  379.78 152.464   1
  20   9  -5 1331.72 415.940   1
   9   5 -20 -2014.1 4546.35   1
 -20   5   9 -1780.4 2039.46   1
  20   5  -9 1301.95 585.051   1
  20  -9  -7 -1823.4 1880.72   1
  20  -9  -7 -886.01 3570.72   1
 -20  -9   7 1136.59 387.608   1
  -7 -20   9 1200.53 382.317   1
  -9  -7  20 2071.43 2243.41   1
  20  -7  -9 2431.92 1965.60   1
  20  -7  -9 2472.71 4137.36   1
 -20  -7   9 2189.39 644.030   1
  -7  -9  20 4053.57 2875.09   1
  -7  -9  20 -2576.3 3997.35   1
 -20   9   7  357.07 3239.99   1
 -20   9   7 -1176.3 1795.83   1
  20   9  -7 1714.25 482.857   1
   7   9 -20 -4579.4 3741.59   1
   7   9 -20 -5132.8 4182.56   1
 -20  -9   9 1570.94 468.195   1
  -9 -20   9  339.65 266.894   1
  -9  -9  20 1438.65 2100.10   1
  -9  -9  20  892.29 2661.23   1
  20   9  -9 1535.66 470.289   1
   9   9 -20 2495.86 3108.81   1
   0 -20  10 1229.19 365.229   1
  10   0 -20  631.02 3449.45   1
 -20   0  10 2264.36 744.680   1
   0 -10  20  -85.64 1903.87   1
 -20  10  -2  329.62 334.472   1
  -2 -20  10  469.74 283.982   1
  20  -2 -10 -200.97 787.013   1
  -2  10 -20 4975.19 4088.85   1
  -2  10 -20 -383.64 2629.26   1
 -20  -2  10  575.46 455.517   1
  -2 -10  20 -2368.0 2358.06   1
  -2 -10  20 -5005.0 4423.98   1
 -20  10   2  259.84 2290.81   1
 -20  10   2 -400.07 1608.42   1
   2 -20  10  -68.54 215.522   1
   2  20 -10  210.56 236.798   1
 -20   2  10  183.66 925.035   1
   2 -10  20 1932.53 3203.61   1
  20   2 -10 1046.30 569.948   1
   2  10 -20 -2036.2 3625.84   1
   2  10 -20  879.73 3032.74   1
 -20 -10   4  269.21 255.209   1
  -4 -20  10  702.24 298.313   1
 -10  -4  20 -787.45 2028.44   1
 -10  -4  20  -46.38 4000.66   1
  20  -4 -10  969.35 1889.54   1
  20  -4 -10 -142.87 2444.05   1
 -20  -4  10  682.50 462.793   1
 -20  10   4 1688.90 1799.14   1
 -20  10   4 -1466.2 2631.46   1
  20 -10   4 1382.43 362.253   1
   4 -20  10  606.44 227.207   1
  20  10  -4  608.97 325.102   1
   4  20 -10  662.77 291.147   1
 -20   4  10 1118.95 1982.14   1
 -20   4  10 -260.50 2468.30   1
   4 -10  20 -236.69 2759.34   1
  20   4 -10 1023.92 528.938   1
   4  10 -20 -3900.3 3080.14   1
  20 -10  -6 1277.70 1787.01   1
  20 -10  -6   63.66 3071.32   1
 -20  10  -6  208.25 149.487   1
 -20 -10   6   21.92 264.248   1
  -6 -20  10   -9.36 230.074   1
 -10  -6  20 -475.36 2030.65   1
 -10  -6  20  795.28 5211.11   1
  20  -6 -10 -603.13 1705.43   1
  20  -6 -10  410.21 4182.56   1
  -6 -10  20 -145.52 3408.66   1
  -6 -10  20 -590.67 2213.65   1
 -20  10   6 2252.23 2635.87   1
  20 -10   6  229.19 122.588   1
  20  10  -6  110.35 262.485   1
   6  20 -10  841.14 309.337   1
  10   6 -20 3632.45 3335.90   1
 -20   6  10 -1747.3 4093.26   1
 -20   6  10 1268.88 1917.10   1
  20   6 -10 1589.68 600.815   1
   6  10 -20  551.87 3004.08   1
   6  10 -20  832.43 3068.02   1
  20 -10  -8 -1038.3 2465.00   1
 -20 -10   8 -296.77 296.549   1
  -8 -20  10   84.75 266.674   1
 -10  -8  20 1693.31 2118.84   1
 -10  -8  20 -952.04 3267.55   1
  20  -8 -10  -97.33 1747.32   1
  20  -8 -10 -345.61 3514.49   1
 -20  -8  10  260.39 345.827   1
 -20  10   8 -2119.9 2907.06   1
  20  10  -8  564.88 322.456   1
   8  20 -10   -3.24 267.445   1
  10   8 -20 -1542.3 2813.36   1
  10   8 -20 -1533.5 3561.90   1
 -20   8  10  163.16 1855.36   1
   8  10 -20 -1371.4 2418.69   1
 -20 -10  10 3045.97 758.460   1
 -10 -20  10 3714.03 874.875   1
 -10 -10  20 1006.94 1584.17   1
  20  10 -10 3231.17 800.903   1
  10  20 -10 2367.98 614.706   1
  10  10 -20 -1972.2 1381.32   1
  20 -11  -1  969.68 1207.14   1
  20 -11  -1 2273.18 2130.96   1
 -20  11  -1 -573.48 1406.68   1
  -1 -20  11  531.25 243.303   1
 -11  -1  20  260.39 3020.61   1
  -1  11 -20 -2402.2 3548.67   1
 -20  -1  11  281.01 526.072   1
  -1 -11  20 -189.95 1923.71   1
  -1 -11  20  388.60 4626.83   1
 -20  11   1  208.25 1575.35   1
  20 -11   1 -772.13 1305.26   1
   1 -20  11   90.32 228.861   1
 -20   1  11 -809.06 863.630   1
   1 -11  20 -3226.8 4461.47   1
  20   1 -11  117.30 614.706   1
   1  11 -20 -4177.0 3978.61   1
  20 -11  -3 -1320.7 1615.04   1
  20 -11  -3 -2245.6 2599.49   1
 -20  11  -3   -3.08 422.886   1
  -3  20 -11  369.97 234.042   1
  -3 -20  11   77.70 214.750   1
 -11  -3  20 -1476.1 2151.91   1
 -11  -3  20 -221.47 4888.10   1
  20  -3 -11 2089.07 2057.10   1
  -3  11 -20   61.46 3637.96   1
 -20  -3  11  910.26 469.738   1
  -3 -11  20 -2674.5 2682.17   1
  -3 -11  20 -5104.2 4054.68   1
 -20  11   3 2355.86 1965.60   1
  11   3 -20 -4152.8 5291.58   1
  11   3 -20 -1724.2 3719.54   1
 -20   3  11 -2056.0 2162.93   1
 -20   3  11  775.99 2431.92   1
   3 -11  20  552.64 1632.67   1
   3 -11  20 3136.37 3938.92   1
  20   3 -11   31.78 534.450   1
   3  11 -20 -1669.1 3578.43   1
   3  11 -20 -1022.0 3181.56   1
  20 -11  -5  880.72 2145.30   1
 -20  11  -5  673.46 269.099   1
  -5  20 -11  670.16 247.271   1
 -20 -11   5  512.95 274.832   1
  -5 -20  11    0.64 207.805   1
 -11  -5  20 -1041.4 2078.05   1
 -11  -5  20 -4637.9 5460.25   1
  20  -5 -11 2092.38 1989.86   1
  20  -5 -11  472.16 4085.54   1
 -20  -5  11  601.92 428.949   1
  -5 -11  20 -1955.7 2214.75   1
  -5 -11  20 -686.69 2908.17   1
 -20  11   5   78.14 2459.48   1
  20 -11   5  846.98 250.358   1
  20  11  -5  291.70 274.391   1
  11   5 -20 -2096.8 3146.29   1
  11   5 -20 -4569.5 5593.64   1
 -20   5  11 -2307.4 4397.53   1
 -20   5  11 1147.61 1930.33   1
   5 -11  20 -332.60 3033.84   1
  20   5 -11 1094.37 551.868   1
   5  11 -20 -962.08 2914.78   1
  -7  20 -11   66.63 179.142   1
 -20 -11   7 -307.02 262.044   1
  -7 -20  11  140.01 219.049   1
 -11  -7  20 -2629.3 2284.20   1
 -11  -7  20  178.92 3628.04   1
  20  -7 -11 -2122.1 2087.97   1
  20  -7 -11  314.74 3529.93   1
  -7 -11  20 1012.46 1794.73   1
  20  11  -7 -116.41 268.438   1
  11   7 -20  351.34 2729.57   1
  11   7 -20 1120.05 4083.34   1
 -20   7  11 -2772.6 3546.46   1
 -20   7  11  967.92 1735.20   1
  20   7 -11 -201.41 504.905   1
   7  11 -20 -4004.0 2046.08   1
  -9  20 -11 2882.81 663.212   1
 -20 -11   9 3773.56 887.112   1
  -9 -20  11 2256.64 564.766   1
 -11  -9  20 4081.13 1943.55   1
  20  -9 -11 -184.87 1620.55   1
 -20  -9  11 4012.78 980.817   1
 -11 -20   9 4059.09 947.855   1
  -9 -11  20 -218.39 1206.04   1
   9 -20  11 2890.53 680.299   1
  20  11  -9 4277.36 995.259   1
  11   9 -20 -4027.1 2306.25   1
 -20   9  11 1094.92 2064.82   1
  11  20  -9 2741.70 708.962   1
   9  11 -20 3295.11 1332.82   1
 -11  20 -11  348.58 179.693   1
 -20 -11  11   93.43 337.449   1
 -11 -20  11 -154.45 252.012   1
  11 -20  11 -315.62 200.308   1
  20  11 -11  462.79 335.575   1
  11  11 -20  522.87 1036.60   1
 -20  12   0 -1357.1 1475.03   1
 -12   0  20   64.67 3465.99   1
  20 -12   0 1019.73 1455.19   1
  20 -12   0 -556.72 2542.16   1
   0 -20  12  218.50 239.444   1
  12   0 -20 -204.28 3938.92   1
 -20   0  12 -1602.9 885.017   1
   0 -12  20 1709.84 1970.01   1
   0  12 -20 -2474.9 3550.87   1
  20 -12  -2 2660.12 2394.44   1
 -20  12  -2 2166.24 1713.15   1
  -2  20 -12 -135.60 201.411   1
  -2 -20  12  -36.24 225.003   1
 -12  -2  20  957.56 1986.55   1
 -12  -2  20  10086. 5561.67   1
  -2  12 -20  13571. 5260.72   1
  -2  12 -20 -4400.8 3859.55   1
 -20  -2  12  -42.08 512.732   1
  -2 -12  20   31.96 3916.87   1
  -2 -12  20 -2424.2 2272.07   1
 -20  12   2 5160.40 2544.37   1
  20 -12   2  876.42 1039.24   1
   2 -20  12  295.89 251.130   1
   2  20 -12   95.16 219.049   1
  12   2 -20 -6695.0 6140.44   1
  12   2 -20 5806.41 4802.11   1
 -20   2  12  631.68 1805.75   1
 -20   2  12  426.30 1917.10   1
   2 -12  20 -1466.2 1855.36   1
   2 -12  20 2316.17 4722.74   1
  20   2 -12 -435.12 601.697   1
   2  12 -20 -1981.0 3689.78   1
   2  12 -20 7408.22 3076.84   1
 -20  12  -4 1842.13 633.557   1
  -4  20 -12 1441.96 373.387   1
  -4 -20  12 1791.42 460.258   1
 -12  -4  20 -1949.1 2113.33   1
 -12  -4  20 -865.95 5324.66   1
 -20  -4  12 2519.01 720.868   1
  -4 -12  20 2578.54 2496.97   1
  20 -12   4 2035.05 525.520   1
   4 -20  12 2030.65 500.716   1
   4  20 -12 1956.78 490.684   1
  12   4 -20 -1449.7 2844.23   1
  12   4 -20 -8404.8 5775.54   1
 -20   4  12 5154.88 3108.81   1
 -20   4  12 -1433.1 4199.09   1
   4 -12  20 3489.14 3888.21   1
   4 -12  20 -1315.2 1605.11   1
  20   4 -12 3012.90 892.183   1
   4  12 -20 -1530.1 1772.68   1
 -20  12  -6  220.37 182.780   1
  -6  20 -12  184.43 178.150   1
  -6 -20  12  480.21 253.114   1
 -12  -6  20 -1461.8 3452.76   1
 -20  -6  12 -833.31 442.950   1
  -6 -12  20  943.45 1536.76   1
  20 -12   6  534.56 170.543   1
  20  12  -6  354.98 273.398   1
   6  20 -12  -65.38 229.743   1
  12   6 -20 -8478.7 4928.89   1
  12   6 -20 -606.22 3544.26   1
 -20   6  12 2709.73 2061.51   1
 -20   6  12   34.87 3220.15   1
  20   6 -12  706.32 536.875   1
   6  12 -20 -823.94 1028.77   1
  -8  20 -12  228.86 182.560   1
  -8 -20  12  692.09 294.344   1
  20  -8 -12 -956.78 1677.87   1
  -8  12 -20 2084.66 1664.64   1
  -8 -12  20 -499.72 825.707   1
   8 -20  12  150.81 240.106   1
  20  12  -8  312.86 284.753   1
   8  20 -12   -8.92 257.744   1
  12   8 -20 -1949.1 2309.56   1
 -20   8  12 -1204.9 1820.08   1
  20   8 -12  925.70 619.666   1
 -10  20 -12  155.22 173.851   1
 -10 -20  12  376.69 272.517   1
 -12 -10  20  747.00 1704.33   1
 -12 -10  20  -25.61 870.024   1
 -20 -10  12  693.64 448.462   1
 -12 -20  10  247.49 283.320   1
 -10 -12  20  427.85 789.548   1
  10 -20  12   60.50 194.355   1
  20  12 -10  695.40 348.914   1
  10  20 -12  137.69 265.461   1
  20  10 -12  394.11 445.154   1
  12  20 -10  290.04 325.984   1
  10  12 -20  890.75 3041.56   1
  10  12 -20   48.05 959.871   1
 -12  20 -12 -181.24 165.693   1
 -20 -12  12 1139.90 436.776   1
 -12 -20  12 -178.81 304.266   1
 -12 -12  20 -673.68 859.111   1
  12 -20  12  637.19 219.049   1
  20  12 -12  247.38 344.614   1
  12  20 -12  -15.58 296.659   1
  12  12 -20 -271.19 1036.49   1
  13  -1 -20 2964.39 3691.98   1
  -1 -20  13   34.63 230.625   1
 -13  -1  20 -234.37 1760.55   1
 -13  -1  20  14861. 5601.36   1
  20  -1 -13 -164.37 2356.96   1
  -1  13 -20 -3890.4 3582.84   1
 -20  -1  13 -676.55 768.713   1
  -1 -13  20  12942. 3978.61   1
  -1 -13  20 1314.08 2083.56   1
  20 -13   1  735.42 1312.97   1
  20 -13   1 2517.91 2065.92   1
   1 -20  13   75.91 212.215   1
   1  20 -13  114.21 219.490   1
  13   1 -20 6854.81 4907.94   1
  13   1 -20 -484.07 5074.41   1
   1  13 -20 -6004.8 4398.63   1
 -20  13  -3 7262.70 3748.20   1
  -3  20 -13 8340.86 1848.75   1
  -3 -20  13 8535.99 1896.15   1
 -13  -3  20 -3025.0 4274.06   1
 -20  -3  13 6704.88 1611.73   1
  -3 -13  20 3820.96 1998.68   1
  20 -13   3 5229.85 2714.14   1
   3 -20  13 7673.90 1699.92   1
   3  20 -13 7489.79 1669.05   1
  13   3 -20 2579.65 3082.35   1
  13   3 -20 -3992.9 4636.75   1
   3 -13  20 5480.10 3179.36   1
   3 -13  20 -1461.8 3222.35   1
  -5  20 -13  538.64 232.609   1
 -20 -13   5  332.27 281.556   1
  -5 -20  13  203.51 248.374   1
  20  -5 -13  -22.71 1592.99   1
  20  -5 -13 -493.55 2684.38   1
  -5  13 -20 4261.93 2471.61   1
 -20  -5  13  757.58 513.284   1
  -5 -13  20   16.32 1033.07   1
  20 -13   5  140.23 286.627   1
   5 -20  13  502.48 229.963   1
  20  13  -5 -219.82 293.021   1
  13   5 -20 1850.95 2957.77   1
   5 -13  20 2117.74 1701.02   1
  20   5 -13  273.73 601.918   1
 -20  13  -7  534.67 181.788   1
  -7  20 -13  320.47 195.237   1
 -20 -13   7 -370.52 254.988   1
  -7 -20  13  280.01 260.831   1
 -13  -7  20 4449.34 2955.57   1
 -13  -7  20    8.56 1739.61   1
  20  -7 -13 -814.35 1964.50   1
  20  -7 -13  126.89 1839.93   1
  -7  13 -20 4150.59 3092.27   1
  -7  13 -20 -1021.3 1721.97   1
 -20  -7  13  205.93 442.729   1
  20 -13   7  353.32 123.360   1
  20   7 -13 -608.53 570.609   1
   7  13 -20  310.88 830.448   1
  -9  20 -13  376.47 192.702   1
 -20 -13   9  288.39 266.343   1
 -13  -9  20  209.02 1107.93   1
  -9  13 -20 1178.48 1440.85   1
 -13 -20   9   18.36 297.652   1
  -9 -13  20 -866.17 2048.28   1
  -9 -13  20 -491.57 784.367   1
   9 -20  13  286.74 215.852   1
  13   9 -20   35.26 2774.77   1
  13   9 -20 -379.34 1142.10   1
  13  20  -9  208.91 277.477   1
   9  13 -20   74.38 841.031   1
 -11  20 -13  594.86 242.090   1
 -11 -20  13  255.76 290.706   1
 -13 -11  20 -3963.2 2494.76   1
 -13 -11  20  429.94 863.190   1
 -13  20 -11  407.78 173.740   1
 -20 -11  13  215.41 426.965   1
 -13 -20  11  297.21 287.289   1
 -11 -13  20  832.98 873.442   1
  11 -20  13  231.51 198.765   1
  20  13 -11 -118.18 271.745   1
  13  11 -20 -116.19 1028.22   1
  13 -20  11  452.98 198.104   1
  20  11 -13  241.87 414.948   1
 -13  20 -13 1061.62 314.408   1
 -20 -13  13 1245.73 473.046   1
 -13 -20  13  803.66 359.497   1
  13 -20  13 1148.71 338.000   1
  20  13 -13  925.48 422.114   1
  13  13 -20  -25.27 903.428   1
   0 -20  14 -115.64 226.656   1
  14   0 -20 -6829.4 4914.56   1
  14   0 -20 -332.71 3189.28   1
   0 -14  20 -3269.8 2379.01   1
  20   0 -14  952.37 1759.45   1
   0  14 -20 1498.18 1423.22   1
  14  -2 -20 -919.85 2106.71   1
  20  -2 -14 3780.17 2828.79   1
  20  -2 -14 -3440.6 2575.24   1
  -2  14 -20 -3854.0 1914.89   1
  -2 -14  20 3902.54 1618.34   1
 -14   2  20 -1470.6 2128.76   1
  14   2 -20 1873.00 2675.56   1
 -20   2  14 6459.04 3661.11   1
   2 -14  20 -1110.1 2162.93   1
   2 -14  20 7031.19 3828.68   1
  20   2 -14 2438.54 1054.02   1
   2  14 -20  503.36 1034.06   1
 -20  14  -4  194.47 880.718   1
 -20  14  -4  717.89 781.611   1
  -4  20 -14  -97.87 234.814   1
 -14  -4  20 -1243.5 1896.15   1
 -14  -4  20 -353.87 2181.68   1
 -20  -4  14  -48.54 609.855   1
  20 -14   4 -473.16 741.593   1
  20 -14   4 -1159.7 899.459   1
   4 -20  14   16.04 207.584   1
   4  20 -14  129.53 242.972   1
 -20   4  14  391.03 1534.56   1
 -20   4  14 -1569.8 2123.25   1
   4 -14  20  870.13 1503.69   1
   4  14 -20  496.53 863.741   1
  -6  20 -14  789.00 271.635   1
 -20 -14   6  457.72 287.399   1
  -6 -20  14  563.11 277.036   1
 -14  -6  20 -1991.0 2060.41   1
 -14  -6  20 -709.40 1858.67   1
  20  -6 -14  -41.51 1965.60   1
  20  -6 -14 -382.87 1925.92   1
  -6  14 -20 -1031.9 2370.19   1
  -6  14 -20 1891.74 1640.39   1
 -20  -6  14  539.63 532.796   1
  -6 -14  20 -1114.5 777.532   1
  -6 -14  20  698.27 1748.43   1
  20 -14   6  492.45 336.677   1
   6 -20  14  872.34 299.085   1
  20  14  -6  336.13 295.557   1
   6  20 -14  575.35 281.115   1
  14   6 -20  838.83 2788.00   1
  14   6 -20 -2036.2 2240.10   1
 -20   6  14 -685.04 1921.51   1
 -20   6  14 1903.87 1768.27   1
   6 -14  20   98.06 1390.14   1
  20   6 -14 -243.19 660.235   1
   6  14 -20 -595.19 758.019   1
 -20  14  -8  565.54 151.251   1
  -8  20 -14  850.62 283.541   1
 -20 -14   8  575.57 297.982   1
  -8 -20  14  761.88 320.251   1
 -14  -8  20 -500.05 1557.71   1
  20  -8 -14 -1047.6 1580.86   1
  -8  14 -20 -1514.7 2418.69   1
 -20  -8  14  525.30 475.691   1
  -8 -14  20  556.06 768.382   1
  20  14  -8  263.92 288.281   1
   8  20 -14  428.18 287.068   1
  14   8 -20 -953.37 1419.91   1
 -20   8  14 -307.90 1895.05   1
   8 -14  20 -507.00 1382.43   1
   8 -14  20  368.43 1678.98   1
  20   8 -14 1079.92 626.391   1
 -10  20 -14  475.58 248.484   1
 -20 -14  10   55.44 269.209   1
 -10 -20  14  647.12 310.770   1
 -14 -10  20 -667.18 960.863   1
 -20 -10  14  618.56 449.344   1
 -14 -20  10  215.19 276.485   1
  10 -20  14   10.91 295.777   1
  20  14 -10  602.14 321.905   1
  10  20 -14  948.96 347.370   1
  14  10 -20 -615.04 3030.53   1
  14  10 -20 1071.99 1110.13   1
  14  20 -10  153.01 309.447   1
  10  14 -20 -642.38 841.141   1
 -12  20 -14  595.08 329.291   1
 -20 -14  12  576.45 319.700   1
 -12 -20  14  958.77 390.144   1
 -14 -12  20  310.66 758.681   1
 -14  20 -12  870.80 250.138   1
 -20 -12  14 1330.61 555.065   1
 -14 -20  12 1406.68 452.541   1
 -12 -14  20 -596.41 731.120   1
  12 -20  14  971.12 401.609   1
  12  20 -14  839.71 367.545   1
  14 -20  12  880.50 246.830   1
  20  12 -14  218.94 456.289   1
  14  20 -12  -68.01 308.786   1
  12  14 -20  -29.22 851.063   1
 -14  20 -14  260.94 288.391   1
 -14 -20  14  463.79 347.150   1
 -14 -14  20 -869.36 639.620   1
  20  14 -14  557.82 405.688   1
  14  20 -14  347.81 333.921   1
  14  14 -20 -1303.1 819.975   1
  15  -1 -20 -253.78 1827.80   1
  -1 -20  15 1264.47 388.049   1
 -15  -1  20  944.22 1710.95   1
 -15  -1  20 -153.24 1909.38   1
  20  -1 -15 1817.88 2274.28   1
  20  -1 -15 -289.16 2016.31   1
  -1  15 -20 -744.13 1101.42   1
 -20  -1  15  802.89 1755.04   1
  -1 -15  20  365.45 828.133   1
   1 -20  15 1078.05 352.662   1
   1  20 -15 1814.57 468.195   1
 -20   1  15 4545.25 2868.48   1
 -20   1  15 -181.90 1626.06   1
   1 -15  20 -511.52 1217.06   1
  20   1 -15 -960.86 1518.02   1
  15  -3 -20  -26.12 1762.76   1
  -3  20 -15 -327.09 252.673   1
  -3 -20  15  -21.25 254.547   1
 -15  -3  20 -300.41 1803.55   1
 -15  -3  20  303.27 2043.87   1
  20  -3 -15 3260.94 2569.73   1
  20  -3 -15  901.55 2075.84   1
  -3 -15  20 1492.67 765.516   1
   3  20 -15  220.70 243.413   1
  15   3 -20 -1415.5 2127.66   1
  15   3 -20 -1654.7 2655.71   1
 -20   3  15 -1287.6 1861.98   1
 -20   3  15 -489.80 1893.95   1
   3 -15  20 -310.00 1522.43   1
   3 -15  20  100.17 1351.56   1
  20   3 -15 2059.31 2685.48   1
  20   3 -15  319.26 772.792   1
   3  15 -20 6192.25 4116.41   1
   3  15 -20  -47.38 803.990   1
  -5 -20  15 1068.24 356.079   1
 -15  -5  20  40150.  19810.   1
 -15  -5  20 -460.59 2009.70   1
  -5  15 -20 -1995.4 2655.71   1
  -5  15 -20 1584.17 1760.55   1
 -20  -5  15 1126.67 692.536   1
  -5 -15  20  309.67 711.608   1
   5 -20  15  773.01 330.062   1
   5  20 -15 1038.14 362.914   1
  15   5 -20 -439.42 2662.33   1
  15   5 -20 -3227.9 2301.84   1
 -20   5  15 3197.00 2222.46   1
 -20   5  15 -1206.0 1962.30   1
   5  15 -20  910.59 926.137   1
 -20  15  -7 -637.75 674.126   1
  -7  20 -15  558.26 337.118   1
 -20 -15   7  393.01 284.643   1
  -7 -20  15  671.26 293.793   1
  -7  15 -20 -3279.7 2731.78   1
  -7  15 -20  746.00 2190.49   1
 -20  -7  15  245.40 585.602   1
  -7 -15  20 -612.94 739.058   1
  20  15  -7  758.13 336.346   1
  15   7 -20 -1011.8 1880.72   1
 -20   7  15  858.34 2000.88   1
   7 -15  20  960.75 1834.42   1
   7 -15  20  849.08 1467.31   1
  20   7 -15 1266.67 733.105   1
  -9  20 -15 1136.59 413.074   1
 -20 -15   9  126.34 276.816   1
  -9 -20  15   97.67 295.888   1
 -20  -9  15  183.44 511.299   1
 -15 -20   9  191.71 310.770   1
  -9 -15  20  785.03 684.709   1
  20  15  -9  434.35 286.738   1
  15   9 -20 -668.06 1157.53   1
   9 -15  20 -526.40 1236.91   1
   9 -15  20 1349.35 3043.76   1
  20   9 -15 1192.81 633.006   1
  15  20  -9  658.80 339.874   1
   9  15 -20 -159.85 793.407   1
 -11  20 -15 -243.52 398.633   1
 -20 -15  11 -230.96 310.109   1
 -15 -11  20 -592.33 836.180   1
 -20 -11  15   28.91 426.744   1
 -15 -20  11 -295.67 299.746   1
 -11 -15  20 -433.25 719.435   1
  20  15 -11  278.14 305.920   1
  11  20 -15  200.20 283.210   1
  15  11 -20 -604.45 928.673   1
  15 -20  11  168.01 148.164   1
  11  15 -20  -53.18 863.741   1
 -20 -15  13  465.66 332.708   1
 -15 -13  20  125.12 605.004   1
 -15  20 -13  348.47 200.419   1
 -20 -13  15  321.35 468.967   1
 -15 -20  13  182.89 393.231   1
 -13 -15  20 -477.46 699.812   1
  13 -20  15  730.68 374.269   1
  13  20 -15  671.26 355.418   1
  15  13 -20  668.17 779.296   1
  15 -20  13  336.13 252.453   1
  20  13 -15  590.78 500.496   1
  15  20 -13  -71.62 378.679   1
 -15  20 -15   31.30 340.646   1
 -15 -15  20  204.39 627.273   1
  20  15 -15  434.02 377.577   1
  15  20 -15 -178.81 342.740   1
  15  15 -20 -882.48 603.130   1
 -16   0  20 -998.12 1778.19   1
 -16   0  20 1157.53 2015.21   1
   0 -20  16 -141.33 318.597   1
  16   0 -20 1403.37 2898.24   1
  16   0 -20  830.12 2020.72   1
 -20   0  16 -464.78 1687.79   1
 -20   0  16 -123.36 1565.43   1
  20   0 -16 -1821.2 2417.59   1
  20   0 -16  818.10 1911.58   1
   0  16 -20 -492.45 770.366   1
  -2  20 -16 -148.61 313.416   1
 -16  -2  20 -948.41 1845.44   1
 -16  -2  20  100.53 2019.62   1
  20  -2 -16 1729.69 2224.67   1
 -20  -2  16 -748.43 956.564   1
  -2 -16  20   17.24 1534.56   1
  -2 -16  20  780.40 729.136   1
 -16   2  20 -569.07 1522.43   1
   2 -20  16   18.50 328.960   1
   2  20 -16 -370.96 296.108   1
  16   2 -20 3126.44 2964.39   1
  16   2 -20  560.14 2168.45   1
 -20   2  16 -1737.4 2035.05   1
 -20   2  16 -1837.7 2011.90   1
   2 -16  20 -374.93 861.756   1
  20   2 -16  107.67 1285.41   1
   2  16 -20   39.30 784.808   1
  16  -4 -20 -1028.1 2282.00   1
  -4  20 -16  406.02 358.725   1
 -16  -4  20 -1876.3 1922.61   1
 -16  -4  20  989.09 2184.98   1
  -4  16 -20  547.79 1300.85   1
  -4 -16  20   33.30 673.244   1
   4 -20  16  694.74 372.505   1
   4  20 -16  862.53 348.583   1
  16   4 -20   41.10 2571.93   1
  16   4 -20  172.20 2371.29   1
 -20   4  16 1136.59 2328.30   1
 -20   4  16 -1705.4 1835.52   1
   4 -16  20  -80.13 1514.72   1
  20   4 -16  289.05 2597.29   1
  20   4 -16 -157.53 837.173   1
  -6  20 -16  662.66 413.295   1
  -6 -20  16  501.27 301.179   1
  -6  16 -20 -2240.1 2599.49   1
  -6  16 -20 1395.66 2056.00   1
 -20  -6  16  149.16 580.751   1
   6  20 -16  168.01 295.006   1
  16   6 -20 -1600.7 2287.51   1
 -20   6  16  881.71 2570.83   1
   6 -16  20 -2435.2 1882.92   1
   6  16 -20 1167.46 838.936   1
  -8 -20  16  447.14 343.181   1
 -16  -8  20 1295.34 1712.05   1
 -16  -8  20  433.69 1072.10   1
  -8  16 -20 -1922.6 2375.70   1
 -20  -8  16  418.26 616.690   1
  -8 -16  20 1161.94 758.901   1
  20  16  -8  591.33 310.991   1
   8  20 -16 1835.52 504.905   1
   8 -16  20  -66.31 1357.07   1
  20   8 -16  615.59 862.418   1
   8  16 -20  -91.31 738.066   1
 -20 -16  10  331.16 268.438   1
 -10 -20  16   43.16 334.582   1
 -16 -10  20  -28.63 776.981   1
 -10  16 -20 2795.72 2205.93   1
 -20 -10  16 -142.54 455.627   1
 -16 -20  10  134.49 295.006   1
 -10 -16  20 -470.73 673.685   1
  10 -20  16  281.23 433.579   1
  20  16 -10  -32.54 282.879   1
  10  20 -16  176.39 312.424   1
  16  10 -20 -208.80 920.405   1
  10 -16  20   45.01 1234.70   1
  20  10 -16 -110.35 584.720   1
  16  20 -10   45.67 313.637   1
 -12  20 -16  381.66 410.098   1
 -20 -16  12  267.89 336.236   1
 -12 -20  16  481.75 387.498   1
 -16  20 -12  159.30 149.597   1
 -16 -20  12  570.61 372.836   1
 -12 -16  20  577.11 647.888   1
  12 -20  16 -627.82 423.437   1
  20  16 -12  495.98 336.677   1
  12  20 -16  280.12 333.921   1
  16  12 -20 -404.25 761.216   1
  16 -20  12  102.95 147.613   1
  16  20 -12  -26.03 321.243   1
  12  16 -20 -374.27 593.429   1
 -14  20 -16  -78.59 382.317   1
 -20 -16  14  -79.27 323.999   1
 -14 -20  16 -494.43 413.846   1
 -16 -14  20 -412.41 601.697   1
 -16  20 -14  294.90 350.016   1
 -14  16 -20  783.71 656.597   1
 -20 -14  16 -148.27 472.605   1
 -16 -20  14  854.04 418.035   1
 -14 -16  20 -520.56 604.784   1
  20  16 -14  152.57 318.377   1
  14  20 -16  431.93 402.491   1
  16 -20  14 -381.21 278.029   1
  20  14 -16  615.15 495.314   1
  16  20 -14  417.15 354.426   1
  14  16 -20  513.61 578.657   1
 -16  20 -16  678.20 428.949   1
 -16 -20  16   33.22 374.159   1
 -16 -16  20 -674.79 537.206   1
  16 -20  16   78.93 398.743   1
  20  16 -16 -489.91 446.918   1
  16  16 -20 -184.32 467.754   1
  17  -1 -20 1005.95 2791.31   1
  17  -1 -20 2267.66 3189.28   1
  -1 -20  17  236.91 389.483   1
 -17  -1  20 2990.85 2243.41   1
 -17  -1  20 1383.53 3356.85   1
  -1  17 -20  295.89 748.979   1
 -20  -1  17 -421.56 1873.00   1
 -20  -1  17 -221.92 1721.97   1
  -1 -17  20  548.56 741.373   1
 -17   1  20 -905.19 1816.78   1
 -17   1  20 -1905.0 2953.36   1
   1  20 -17 -169.44 348.693   1
  17   1 -20  -47.82 2588.47   1
  17   1 -20 3155.11 3410.87   1
 -20   1  17 -2060.4 2028.44   1
 -20   1  17 9998.89 3642.37   1
   1 -17  20  384.08 687.906   1
  20   1 -17 -1467.3 2322.78   1
  17  -3 -20 1326.20 2689.89   1
  -3 -20  17  126.01 386.286   1
  20  -3 -17 -195.90 2200.42   1
  20  -3 -17 2010.80 3726.16   1
 -20  -3  17 -2125.5 1652.52   1
 -17   3  20  745.89 2601.70   1
   3  20 -17  100.74 329.842   1
  17   3 -20 1084.88 2478.22   1
  17   3 -20 -539.19 3234.48   1
   3 -17  20 -328.63 810.715   1
  20   3 -17  492.01 1249.03   1
  -5 -20  17   20.84 365.560   1
 -17  -5  20 -3321.6 2455.07   1
 -17  -5  20  143.42 2236.80   1
  20  -5 -17 -1607.3 2514.60   1
  20  -5 -17 -648.33 3989.63   1
  -5  17 -20 -233.27 1182.89   1
 -20  -5  17  108.98 814.904   1
  -5 -17  20  -12.36 591.114   1
   5 -20  17  420.02 398.081   1
   5 -17  20  747.88 1376.91   1
  20   5 -17  448.13 893.837   1
  20   5 -17 -3170.5 3301.73   1
   5  17 -20 -122.70 818.983   1
  -7  20 -17  649.98 566.861   1
 -20 -17   7  310.77 305.368   1
  -7 -20  17  576.45 431.264   1
 -17  -7  20 1364.79 1366.99   1
  20  -7 -17 -450.56 2844.23   1
  -7  17 -20 -746.11 2209.24   1
 -20  -7  17 -120.05 596.736   1
  -7 -17  20 -490.02 635.872   1
   7 -20  17  731.45 502.039   1
  20  17  -7  371.73 276.816   1
  17   7 -20 -2665.6 2915.88   1
  17   7 -20  -79.02 1222.58   1
 -20   7  17 -712.71 3128.65   1
   7 -17  20   96.10 1395.66   1
 -20 -17   9  923.16 345.276   1
 -17  -9  20  878.18 1745.12   1
 -17  -9  20 -207.69 734.979   1
  -9  17 -20   50.06 1651.41   1
 -20  -9  17  614.26 565.538   1
 -17 -20   9  266.23 334.582   1
  -9 -17  20 -311.43 689.339   1
   9 -20  17 -293.02 459.155   1
   9  20 -17 1127.77 413.295   1
  17   9 -20  -81.49 900.782   1
   9 -17  20   91.75 1226.99   1
  20   9 -17  644.69 741.704   1
  17  20  -9  572.92 361.371   1
   9  17 -20 -445.26 642.597   1
 -11  20 -17  454.30 596.075   1
 -11 -20  17 -310.55 462.793   1
 -17 -11  20 -799.80 607.650   1
 -11  17 -20 -2321.7 2149.71   1
 -11  17 -20 -1982.1 1371.40   1
 -20 -11  17 -574.91 441.296   1
 -17 -20  11  103.11 315.511   1
 -11 -17  20 -882.92 641.494   1
  20  17 -11  584.06 335.354   1
  11  20 -17  876.53 427.847   1
  17 -20  11  332.71 149.267   1
  11 -17  20  197.44 1250.14   1
  20  11 -17 -655.38 570.940   1
  11  17 -20 -258.30 553.081   1
 -20 -17  13   81.94 314.408   1
 -13 -20  17  510.97 433.138   1
 -17 -13  20  -39.44 573.475   1
 -17  20 -13  375.15 210.010   1
 -13  17 -20 2358.06 2187.19   1
 -13 -17  20  265.13 577.775   1
  13 -20  17  434.79 490.684   1
  20  17 -13   18.79 310.770   1
  13  20 -17 -140.56 378.789   1
  17  13 -20 -247.27 696.505   1
  17 -20  13  130.19 256.201   1
  17  20 -13 -265.13 341.197   1
  13  17 -20 -1054.5 570.278   1
 -20 -17  15  201.52 346.929   1
 -15 -20  17 -438.54 442.178   1
 -17 -15  20  200.31 518.796   1
 -20 -15  17 -290.49 473.486   1
 -17 -20  15 -419.25 347.370   1
 -15 -17  20 -681.95 516.040   1
  15 -20  17 -350.02 467.092   1
  20  17 -15  329.51 345.717   1
  15  20 -17  153.13 370.852   1
  17  15 -20  340.87 520.229   1
  20  15 -17  335.80 493.109   1
  17  20 -15  484.40 360.599   1
  18   0 -20 -1707.6 2427.51   1
  18   0 -20  632.23 4042.55   1
  20   0 -18  818.87 2350.34   1
  20   0 -18 2444.05 3883.80   1
   0  18 -20 -192.37 747.546   1
  18  -2 -20 -3517.8 3117.62   1
  18  -2 -20  870.47 4276.26   1
 -18  -2  20 -1823.4 1906.07   1
 -18  -2  20 1664.64 4224.45   1
  20  -2 -18  799.36 2427.51   1
  20  -2 -18 1321.79 4250.91   1
 -20  -2  18 -3477.0 2363.57   1
 -20  -2  18 2681.07 2263.25   1
  -2 -18  20  238.01 632.785   1
 -18   2  20 -2248.9 3733.87   1
 -18   2  20 -1643.7 1874.10   1
   2 -20  18 -176.83 366.883   1
   2  20 -18  380.44 425.642   1
 -20   2  18  915.44 1812.37   1
   2 -18  20  250.36 663.432   1
   2  18 -20 -508.32 820.195   1
  18  -4 -20 -238.34 2926.91   1
  -4  20 -18 1595.19 697.607   1
  -4 -20  18  149.27 504.134   1
 -18  -4  20 -967.48 1809.06   1
 -18  -4  20 3025.02 2775.88   1
  20  -4 -18 -416.82 2470.51   1
  20  -4 -18 3051.48 4005.07   1
  -4  18 -20 3647.89 1221.47   1
  -4  18 -20 1175.17 2362.47   1
 -20  -4  18 1778.19 1586.37   1
  -4 -18  20   28.88 615.918   1
 -18   4  20 2729.57 2754.93   1
   4 -20  18   53.49 466.762   1
   4  20 -18  168.23 425.311   1
  18   4 -20   53.96 3000.77   1
  18   4 -20 1814.57 2633.67   1
 -20   4  18 -3441.7 2320.58   1
 -20   4  18 1611.73 3388.82   1
  20   4 -18 1084.00 2528.94   1
  20   4 -18 -173.19 1038.03   1
   4  18 -20 1038.03 785.249   1
  -6 -20  18 -121.04 447.359   1
 -18  -6  20 -414.18 1381.32   1
  20  -6 -18 -509.65 1989.86   1
 -20  -6  18  396.54 1601.81   1
 -20  -6  18 -197.33 676.220   1
  -6 -18  20  188.18 577.444   1
   6 -20  18  203.51 436.004   1
   6  20 -18  417.15 413.295   1
  18   6 -20   46.68 1368.09   1
 -20   6  18 -452.21 1899.46   1
   6 -18  20  169.88 795.722   1
  20   6 -18 -628.71 909.711   1
   6  18 -20 -281.01 721.529   1
  -8  20 -18 -865.06 612.391   1
 -20 -18   8  909.49 376.364   1
  -8 -20  18 1624.96 583.066   1
  -8  18 -20 -296.11 1016.42   1
 -20  -8  18  281.67 552.970   1
  -8 -18  20   36.37 550.876   1
  20  18  -8  720.21 366.332   1
   8  20 -18 2016.31 611.950   1
  18   8 -20 -2674.5 2889.42   1
  18   8 -20 -355.31 844.779   1
   8 -18  20  725.94 1314.08   1
   8  18 -20 -263.15 495.865   1
 -20 -18  10 1602.91 470.289   1
 -10 -20  18 -725.28 523.426   1
 -18 -10  20   70.92 605.335   1
 -10  18 -20  675.56 1920.40   1
 -10  18 -20 -1820.1 1231.40   1
 -20 -10  18 -186.09 519.016   1
 -18 -20  10  375.70 382.978   1
 -10 -18  20 -712.60 582.295   1
  20  18 -10 1150.92 396.538   1
  20  10 -18  200.20 696.284   1
  18  20 -10  816.78 368.316   1
  10  18 -20  655.27 536.214   1
 -20  18 -12  365.67 737.184   1
 -12  20 -18   86.05 652.188   1
 -20 -18  12 2455.07 647.998   1
 -12 -20  18 2051.59 714.584   1
 -18 -12  20  282.88 579.539   1
 -18  20 -12 1552.20 368.426   1
 -12  18 -20   20.56 1798.04   1
 -20 -12  18  311.65 481.424   1
 -18 -20  12 1721.97 529.820   1
 -12 -18  20 1125.56 640.061   1
  18  12 -20 -424.87 745.231   1
  18 -20  12 1790.32 419.689   1
  12 -18  20  287.62 1273.29   1
  20  12 -18  517.03 603.461   1
  18  20 -12 1226.99 427.847   1
 -20 -18  14  212.99 353.103   1
 -18 -14  20 -633.01 548.671   1
 -18  20 -14  -81.91 268.658   1
 -18 -20  14   38.77 340.976   1
  14 -20  18 -1251.2 1424.32   1
  20  18 -14 -205.05 327.637   1
  14  20 -18 -540.95 426.083   1
  18  14 -20  -18.75 495.204   1
  14 -18  20 -163.16 1198.32   1
  18  20 -14  -66.87 309.558   1
  19  -1 -20  446.15 2410.98   1
  -1  20 -19  630.91 562.892   1
  -1 -20  19  396.21 459.265   1
 -19  -1  20  886.23 1805.75   1
 -19  -1  20 2251.13 2502.48   1
  20  -1 -19 -1128.9 2412.08   1
  20  -1 -19 -1719.8 2789.11   1
  -1  19 -20  388.05 680.409   1
  -1 -19  20 -485.83 552.640   1
   1 -20  19 -617.79 496.527   1
  19   1 -20 -1739.6 2431.92   1
 -20   1  19 2304.04 2186.09   1
 -20   1  19  -13.09 2543.27   1
   1 -19  20  800.46 550.435   1
  20   1 -19  254.77 2147.50   1
  20   1 -19 -363.25 2290.81   1
   1  19 -20  139.35 692.536   1
  19  -3 -20 -3632.5 3095.58   1
  19  -3 -20 -1383.5 2115.53   1
  -3  20 -19  182.67 698.268   1
 -19  -3  20 2423.10 2074.74   1
 -19  -3  20 -472.38 1928.12   1
  20  -3 -19  100.71 2119.94   1
  20  -3 -19 -4350.1 3345.82   1
 -20  -3  19 -2253.3 1939.14   1
 -20  -3  19 1080.70 1590.78   1
  -3 -19  20  -63.80 528.717   1
   3 -20  19  323.01 442.178   1
   3  20 -19 -234.48 543.931   1
  19   3 -20 -936.50 2143.09   1
  19   3 -20 -3815.5 2946.75   1
 -20   3  19  760.00 1611.73   1
 -20   3  19 -1352.7 1945.76   1
   3  19 -20 -685.92 658.582   1
  19  -5 -20  -47.78 1395.66   1
  -5  20 -19  189.17 611.068   1
  -5 -20  19  229.52 413.295   1
  -5  19 -20 1253.44 809.392   1
 -20  -5  19 1042.00 914.452   1
  -5 -19  20  359.28 563.554   1
 -19   5  20  627.38 1444.16   1
   5 -20  19   56.05 404.696   1
  19   5 -20  272.30 1414.40   1
 -20   5  19 1824.49 1441.96   1
   5 -19  20 -1177.4 1490.46   1
   5 -19  20  137.36 522.103   1
  20   5 -19  -12.04 895.821   1
   5  19 -20   79.18 587.035   1
  -7  20 -19    1.61 604.012   1
 -19  -7  20 -325.65 643.809   1
  20  -7 -19 -504.35 1501.49   1
  -7  19 -20  827.91 721.529   1
 -20  -7  19 -965.60 1512.51   1
 -20  -7  19 1265.57 704.773   1
  -7 -19  20   51.76 458.714   1
   7  20 -19  538.86 490.794   1
  20   7 -19  352.00 776.540   1
   7  19 -20  831.00 659.905   1
 -20 -19   9  -30.74 302.612   1
  -9 -20  19  643.48 523.646   1
 -19  -9  20 -122.81 610.957   1
  -9  19 -20  524.64 659.574   1
 -20  -9  19  196.56 562.231   1
 -19 -20   9   80.28 318.487   1
  -9 -19  20   25.07 495.535   1
  20  19  -9  568.96 333.700   1
   9  20 -19  272.19 486.826   1
  19   9 -20 -498.40 823.944   1
  20   9 -19  327.42 762.649   1
  19  20  -9  -36.70 327.527   1
 -11  20 -19  124.35 601.036   1
 -20 -19  11  828.02 361.481   1
 -19 -11  20  356.74 611.178   1
 -11  19 -20  436.22 1989.86   1
 -11  19 -20  243.30 611.178   1
 -20 -11  19 -230.96 530.702   1
 -19 -20  11  389.92 331.055   1
  20 -19  11 1061.73 253.996   1
  20  19 -11  426.96 329.732   1
  19  11 -20  -61.12 716.679   1
  19 -20  11  764.30 202.513   1
  11 -19  20 -1381.3 1439.75   1
  20  11 -19  713.81 725.167   1
 -20  19 -13 -190.61 214.309   1
 -13  20 -19 3820.96 1028.88   1
 -20 -19  13  353.65 358.615   1
 -13 -20  19 -930.33 595.083   1
 -19 -13  20 -259.84 453.643   1
 -13  19 -20  928.34 731.120   1
 -20 -13  19 -721.75 441.516   1
  13 -20  19 -1537.9 1519.13   1
  13  20 -19  653.84 470.400   1
  19 -20  13   19.51 180.245   1
  13 -19  20 1155.33 1370.30   1
  20  13 -19  554.62 497.960   1
  19  20 -13  263.70 304.707   1
  13  19 -20  397.20 538.198   1
 -20   0  20  468.97 1908.28   1
 -20   0  20 4945.43 2104.51   1
   0 -20  20 1182.89 610.847   1
  20   0 -20 4066.80 3079.04   1
  20   0 -20 -1541.2 1846.54   1
   0  20 -20 2470.51 868.702   1
 -20  -2  20 1148.71 1709.84   1
 -20  -2  20  493.33 1397.86   1
  -2 -20  20   15.10 535.001   1
 -20   2  20  802.01 1640.39   1
 -20   2  20  421.23 1401.17   1
   2 -20  20 -130.31 457.501   1
  20   2 -20 1229.19 2268.77   1
  20   2 -20 -2846.4 1658.03   1
   2  20 -20 -159.85 545.695   1
  20  -4 -20   57.27 2606.10   1
  20  -4 -20 -651.75 1633.78   1
  -4  20 -20 1307.46 726.711   1
  -4 -20  20  329.95 453.202   1
  20   4 -20 -1473.9 1540.07   1
  20  -6 -20  952.04 1114.54   1
 -20  -6  20 1789.22 1804.65   1
 -20  -6  20  555.29 754.602   1
  -6 -20  20 -1061.8 541.836   1
 -20   6  20  243.63 1099.88   1
   6  20 -20 -172.86 500.055   1
  -8  20 -20  402.05 687.244   1
 -20  -8  20 -1607.3 1848.75   1
 -20  -8  20  754.38 587.035   1
 -20 -20   8  876.42 359.497   1
  20   8 -20 -664.98 758.570   1
  10 -20  20  177.93 486.054   1
  20  10 -20  322.24 657.810   1
  20  20 -10 -152.90 297.872   1
  10  20 -20 -217.51 515.819   1
  21  -1   0 3142.98 732.223   1
  21   1   0 2266.56 561.900   1
 -21   0  -1 1538.97 408.003   1
  21   0   1 1835.52 478.447   1
 -21   2  -1 3479.22 799.580   1
 -21  -2   1 3169.44 750.302   1
  21  -1  -2 5207.80 1179.58   1
 -21   1  -2 3135.26 720.317   1
  21  -2   1 2349.24 564.546   1
  21   2  -1 2279.79 585.161   1
 -21  -3   0  422.22 250.138   1
 -21   3   0  540.95 266.674   1
  21  -3   0  677.43 276.706   1
 -21   0   3 1811.26 501.488   1
  21  -3  -2  390.25 351.560   1
 -21   3  -2  330.39 215.412   1
 -21  -3   2  960.75 357.182   1
  21  -2  -3 1114.54 448.682   1
 -21  -2   3  257.85 275.603   1
 -21   3   2  517.03 324.220   1
  21   3  -2  234.48 258.847   1
  21   2  -3    6.07 283.651   1
  21  -4  -1 3919.08 922.720   1
 -21   4  -1 3327.08 765.846   1
 -21  -4   1 2831.00 680.189   1
  21  -1  -4 5157.09 1213.76   1
 -21   4   1 3958.77 925.917   1
  21  -4   1 3965.38 896.482   1
  21   4  -1 2252.23 568.294   1
 -21   1   4 3497.96 888.545   1
  21   1  -4 6588.02 1487.16   1
  21  -4  -3 1397.86 457.281   1
 -21   4  -3  489.47 215.632   1
  21  -3  -4 1729.69 532.245   1
  21  -4   3  558.26 220.924   1
  21   4  -3  226.66 276.706   1
  21   3  -4  529.16 306.250   1
 -21   5   0 9125.78 2025.13   1
  21  -5   0 9113.65 2028.44   1
  21   0  -5 8092.81 1837.72   1
  21  -5  -2 1256.75 424.760   1
 -21   5  -2 1033.84 299.746   1
  21  -2  -5 1394.55 493.330   1
  21  -5   2  869.80 278.359   1
  21   5  -2  386.29 287.289   1
  21   2  -5 1228.09 436.445   1
 -21   5  -4  -11.66 178.260   1
 -21  -5   4  467.64 302.171   1
  -5  -4  21 -1118.9 2975.41   1
 -21  -4   5  437.00 353.654   1
  -4  -5  21   69.28 2816.67   1
 -21   5   4 -142.87 372.616   1
   5   4 -21 -2196.0 2967.70   1
   4   5 -21 -2343.7 2738.39   1
  21  -6  -1  487.49 293.573   1
 -21   6  -1  241.10 263.367   1
  21  -1  -6  693.20 402.712   1
  21  -6   1  274.83 274.501   1
  21   1  -6 2441.85 706.537   1
 -21   6  -3    6.78 213.096   1
 -21  -6   3  363.36 265.130   1
  21  -3  -6  169.99 435.233   1
 -21  -3   6  790.54 468.195   1
  -3  -6  21 -933.85 2761.54   1
 -21   6   3   -4.51 345.937   1
  21  -6   3  310.44 180.575   1
   6   3 -21 1120.05 3324.88   1
   3   6 -21  788.12 2316.17   1
 -21  -6   5 3730.57 893.726   1
 -21  -5   6 2379.01 625.730   1
  -5  -6  21  973.87 3766.95   1
 -21   6   5  833.53 705.214   1
   6   5 -21  324.22 3776.87   1
 -21   5   6  286.74 641.384   1
   5   6 -21 -628.93 3650.09   1
   5   6 -21 -3360.2 3932.31   1
 -21   7   0  895.38 349.575   1
  21  -7   0  219.05 256.201   1
  21   0  -7  271.97 391.026   1
   0   7 -21 -629.81 2451.77   1
 -21   7  -2  816.56 306.471   1
 -21  -7   2 -259.51 265.902   1
  21  -2  -7  264.91 424.209   1
  -2  -7  21 -1405.6 2737.29   1
 -21   7   2 -390.81 342.410   1
  21  -7   2  138.90 192.481   1
  21   2  -7  596.74 521.772   1
  21  -7  -4  437.00 633.226   1
 -21   7  -4 1629.37 399.625   1
  -7  -4  21  600.70 3008.49   1
  21  -4  -7 2418.69 2245.62   1
 -21  -4   7 2007.49 593.319   1
  -4  -7  21  694.63 2014.11   1
  -4  -7  21  672.14 4150.59   1
  21  -7   4 3749.31 841.141   1
 -21   4   7  564.66 696.505   1
   4   7 -21 -1514.7 3911.36   1
   4   7 -21 -2899.3 3869.47   1
  21  -7  -6 -1391.2 1557.71   1
  21  -7  -6 -522.10 2223.57   1
 -21  -7   6  618.67 347.370   1
  -7  -6  21 -904.64 2145.30   1
  -7  -6  21 -3845.2 5095.35   1
 -21  -6   7 1693.31 493.220   1
  -6  -7  21 1402.27 2285.30   1
 -21   7   6 -1253.4 1923.71   1
 -21   7   6 1915.99 2264.36   1
  21   7  -6  282.11 337.228   1
   7   6 -21 -1221.5 3838.60   1
  21   6  -7 1381.32 439.753   1
 -21   8  -1  -29.04 257.634   1
  21  -1  -8  205.38 467.203   1
  -1   8 -21 -719.99 2316.17   1
 -21   8   1  122.48 343.402   1
  21  -8   1  815.12 306.691   1
   1  -8  21  326.42 3008.49   1
  21   1  -8  792.52 447.359   1
  21  -8  -3 -119.94 818.872   1
 -21   8  -3 1054.02 320.692   1
 -21  -8   3  284.31 264.579   1
  -8  -3  21 -330.50 2997.46   1
  21  -3  -8  303.38 2065.92   1
  21  -3  -8  190.39 575.239   1
 -21  -3   8 2028.44 642.376   1
  -3  -8  21 1180.68 2116.63   1
  -3  -8  21 -1009.1 4583.83   1
  21  -8   3  571.27 207.364   1
  21   8  -3  -16.05 277.036   1
   8   3 -21  166.24 3472.60   1
   3   8 -21 -788.56 3787.89   1
   3   8 -21  -49.00 3716.23   1
  21  -8  -5  994.27 1464.00   1
  21  -8  -5 -1057.3 2566.42   1
 -21   8  -5 2113.33 500.385   1
 -21  -8   5 2157.42 561.900   1
  -8  -5  21 -1133.3 2135.37   1
  -8  -5  21  272.52 5401.82   1
 -21  -5   8 2462.79 665.527   1
 -21   8   5 5070.00 3039.35   1
  21  -8   5 1468.41 352.772   1
  21   8  -5 1728.58 485.282   1
   8   5 -21  867.16 3941.13   1
   8   5 -21 -2342.6 5871.45   1
   5   8 -21 -163.82 4966.37   1
  21  -8  -7  581.85 1421.01   1
  21  -8  -7 -169.00 3895.93   1
 -21  -8   7  723.29 323.448   1
  -8  -7  21 -661.78 2116.63   1
  -8  -7  21 -1977.7 5555.06   1
 -21  -7   8  982.25 383.860   1
  -7  -8  21 -392.02 5487.81   1
  -7  -8  21 2549.88 2516.81   1
 -21   8   7 1333.92 3949.95   1
 -21   8   7 1670.16 1965.60   1
  21   8  -7   78.07 272.076   1
   8   7 -21  217.84 2803.44   1
   8   7 -21 -3620.3 5413.95   1
  21   7  -8  422.33 311.873   1
   7   8 -21 4151.69 3474.81   1
   7   8 -21 -2321.7 4821.96   1
  21  -9   0  112.34 315.400   1
  21   0  -9  272.85 500.055   1
   0   9 -21  -42.94 3258.73   1
 -21   9  -2  815.90 323.889   1
  -9  -2  21 -925.03 3435.12   1
  21  -2  -9  941.13 656.377   1
  -2   9 -21 -2531.1 2731.78   1
  -2  -9  21 2620.44 2460.59   1
  -2  -9  21 -4430.6 5130.63   1
  21  -9   2  835.30 309.558   1
   9   2 -21   25.00 3621.43   1
 -21   2   9 2768.16 2274.28   1
   2  -9  21 -2323.9 3281.88   1
  21  -9  -4 2742.80 1871.90   1
  21  -9  -4 5268.43 3190.38   1
 -21   9  -4 7017.96 1553.30   1
 -21  -9   4 3469.29 813.581   1
  -9  -4  21 3599.38 2674.45   1
  -9  -4  21 -2288.6 5322.45   1
  21  -4  -9 3603.79 1777.09   1
 -21  -4   9 5663.10 1324.00   1
  -4  -9  21 4501.15 2989.74   1
  -4  -9  21 -6118.4 6353.21   1
  21  -9   4 5043.54 1120.05   1
  21   9  -4 5013.77 1148.71   1
   9   4 -21 -6138.2 4763.53   1
   9   4 -21 -11884. 6520.77   1
   4   9 -21 -450.34 2903.76   1
   4   9 -21 -6828.3 4832.98   1
  21  -9  -6  -21.95 1403.37   1
  21  -9  -6 -309.78 3103.29   1
 -21   9  -6  304.71 164.039   1
 -21  -9   6  527.61 317.715   1
  -9  -6  21  844.23 2084.66   1
  -9  -6  21  875.76 5596.95   1
  21  -6  -9  202.84 1533.46   1
 -21  -6   9  751.52 423.657   1
  -6  -9  21 -1124.5 5169.22   1
  -6  -9  21 -956.12 2158.52   1
  21   9  -6  -61.42 288.502   1
   9   6 -21 1947.96 3279.68   1
   9   6 -21 -3312.8 5572.70   1
  21   6  -9 1044.76 483.959   1
   6   9 -21  892.29 2882.81   1
  21  -9  -8  631.13 1589.68   1
  21  -9  -8 -2075.8 2792.41   1
 -21  -9   8   61.22 284.643   1
 -21  -8   9   -8.80 317.275   1
  -8  -9  21 1942.45 1995.37   1
  -8  -9  21 -337.45 3155.11   1
 -21   9   8 1032.96 2576.34   1
 -21   9   8 -345.72 1580.86   1
  21   9  -8  243.08 317.495   1
   9   8 -21 -1749.5 2587.36   1
   9   8 -21 1811.26 3359.05   1
  21   8  -9 -116.19 314.408   1
   8   9 -21 3484.73 3126.44   1
   8   9 -21  824.16 3237.79   1
  -1 -21  10  105.20 191.710   1
 -10  -1  21 -1249.0 3677.65   1
  21  -1 -10 -304.93 636.533   1
  -1  10 -21  516.04 3628.04   1
  -1  10 -21  191.93 3510.08   1
  -1 -10  21 -334.14 2115.53   1
 -21  10   1 -442.73 1596.29   1
 -21  10   1 -1487.2 1675.67   1
  21 -10   1  166.46 307.684   1
  10   1 -21 -1031.4 4125.23   1
 -21   1  10 -458.05 1548.89   1
 -21   1  10  675.34 590.122   1
   1 -10  21 1141.00 1860.87   1
   1 -10  21 -1650.3 4324.77   1
   1  10 -21 -2062.6 4167.12   1
  -3 -21  10   83.56 212.986   1
 -10  -3  21 2202.62 4588.24   1
  -3  10 -21 -808.07 2740.60   1
  -3 -10  21 -1072.5 2147.50   1
  -3 -10  21 -6821.7 6013.66   1
 -21  10   3 2022.93 1805.75   1
 -21  10   3 -4121.9 3332.59   1
  21 -10   3  784.92 290.596   1
  10   3 -21 2769.26 3983.02   1
  10   3 -21 -511.41 5658.69   1
   3 -10  21 -1195.0 3109.91   1
  21   3 -10  903.65 521.882   1
   3  10 -21 3011.79 3811.04   1
   3  10 -21 -663.43 4150.59   1
 -21  10  -5 1958.99 473.266   1
 -21 -10   5 1813.47 494.212   1
  -5 -21  10 1131.08 354.646   1
  21  -5 -10 1089.51 1645.90   1
  21  -5 -10 -2499.2 3109.91   1
 -21  10   5 2290.81 3112.11   1
  21 -10   5 1407.78 336.126   1
   5  21 -10 1041.67 325.763   1
  10   5 -21 -1137.7 5645.46   1
 -21   5  10 1268.88 1863.08   1
   5  10 -21 -4309.3 3535.44   1
  21 -10  -7 -2447.4 1914.89   1
  21 -10  -7 -651.75 2162.93   1
  -7 -21  10 -171.54 241.428   1
 -10  -7  21 2803.44 2306.25   1
  21  -7 -10 -3242.2 2134.27   1
  21  -7 -10 1713.15 2659.02   1
 -21  -7  10  481.09 423.988   1
  -7 -10  21  427.07 2880.61   1
  -7 -10  21 -817.11 1855.36   1
   7  21 -10   43.83 218.829   1
  21   7 -10  519.68 459.155   1
   7  10 -21 1648.11 2871.79   1
   7  10 -21  548.34 2603.90   1
  21 -10  -9 -358.28 1228.09   1
  -9 -21  10   54.00 254.327   1
 -10  -9  21  958.33 2019.62   1
 -10  -9  21  227.65 1817.88   1
  21  -9 -10 -308.57 1542.28   1
 -21  -9  10  141.33 318.156   1
  -9 -10  21 -2412.1 2196.01   1
  -9 -10  21 -472.27 1895.05   1
 -21  10   9  865.95 1478.34   1
  21  10  -9 -126.12 277.698   1
   9  21 -10 -198.10 260.941   1
  10   9 -21 -1771.6 2697.60   1
  21   9 -10  189.06 351.449   1
 -21  11   0 -1492.7 1544.48   1
 -11   0  21 6731.33 4239.88   1
  21 -11   0 3330.39 2013.01   1
  21 -11   0 1304.15 1727.48   1
   0 -21  11 2210.34 534.891   1
   0  21 -11 2079.15 516.260   1
  11   0 -21 3219.05 3984.12   1
 -21   0  11 2711.94 2442.95   1
 -21   0  11  581.85 646.565   1
   0 -11  21 2697.60 4568.40   1
   0  11 -21 -3334.8 3878.29   1
   0  11 -21 4163.81 3911.36   1
  21 -11  -2   42.78 1097.56   1
  21 -11  -2   27.08 2407.67   1
 -21  11  -2 -170.43 601.036   1
  -2  21 -11   75.05 197.663   1
  -2 -21  11  397.53 254.657   1
  21  -2 -11  327.09 1154.23   1
  -2  11 -21  639.95 3635.76   1
  -2  11 -21 1439.75 3348.03   1
 -21  -2  11 -542.83 478.006   1
  -2 -11  21 -1333.9 1978.83   1
  -2 -11  21  125.12 4953.14   1
 -21  11   2 -136.59 1405.58   1
  21 -11   2  -33.38 321.574   1
   2 -21  11  203.51 196.340   1
   2  21 -11  799.36 288.281   1
  11   2 -21  504.68 4700.69   1
 -21   2  11 -126.67 1142.10   1
   2 -11  21 -1726.4 1703.23   1
   2 -11  21 -4153.9 3912.46   1
  21   2 -11  -26.13 564.325   1
   2  11 -21 -3381.1 3736.08   1
  21 -11  -4 -183.77 1348.25   1
  21 -11  -4 -742.81 2390.03   1
  -4  21 -11  510.53 222.136   1
 -21 -11   4  657.15 290.265   1
  -4 -21  11  515.16 281.226   1
 -11  -4  21 -761.00 4183.66   1
  21  -4 -11   24.10 1681.18   1
  21  -4 -11 -247.38 2503.58   1
  -4 -11  21 -985.45 3513.39   1
 -21  11   4 1865.28 1652.52   1
  21 -11   4 1142.10 358.284   1
   4 -21  11  597.40 230.404   1
  21  11  -4  770.59 324.220   1
   4  21 -11 1212.65 355.859   1
 -21   4  11 2337.12 2078.05   1
 -21   4  11 1692.20 2574.13   1
   4 -11  21  580.31 2390.03   1
  21   4 -11 1380.22 577.444   1
   4  11 -21 -123.36 3299.52   1
   4  11 -21 -2447.4 2997.46   1
 -21  11  -6  147.39 152.133   1
  -6  21 -11  166.35 184.213   1
 -21 -11   6  125.90 269.981   1
 -11  -6  21 1250.14 1952.37   1
 -11  -6  21 2438.54 3040.46   1
  21  -6 -11 -1639.3 1725.28   1
  21  -6 -11  203.17 2310.66   1
  -6  11 -21 -309.67 1863.08   1
  -6 -11  21 1047.95 1907.17   1
  -6 -11  21 -162.05 2053.80   1
 -21  11   6  662.11 1552.20   1
  21 -11   6  282.33 136.148   1
   6 -21  11  194.25 193.914   1
  21  11  -6  323.78 281.556   1
   6  21 -11  366.88 259.949   1
  11   6 -21   31.24 2638.07   1
 -21   6  11 -2723.0 2113.33   1
 -21   6  11  -49.23 2451.77   1
   6  11 -21 1226.99 2682.17   1
  21 -11  -8 -111.78 1363.69   1
 -21 -11   8   46.89 265.792   1
 -11  -8  21 -718.00 1869.69   1
 -11  -8  21 2774.77 2338.22   1
  21  -8 -11 -1020.0 1712.05   1
  21  -8 -11   90.74 1707.64   1
 -21  -8  11 -100.12 412.303   1
   8 -21  11  341.42 199.537   1
   8  21 -11  559.36 277.918   1
  11   8 -21 -3924.6 3338.11   1
  11   8 -21 -2187.2 2442.95   1
 -21   8  11 -366.33 1748.43   1
 -21   8  11  823.39 1507.00   1
  21   8 -11   55.03 482.857   1
   8  11 -21  555.73 1697.72   1
 -21 -11  10  679.20 318.377   1
 -11 -10  21  151.36 1607.32   1
  21 -10 -11 -132.95 1607.32   1
 -21 -10  11  281.01 415.720   1
 -11 -21  10  358.17 287.399   1
 -10 -11  21 -1750.6 1409.99   1
  10 -21  11  408.77 205.159   1
  10  21 -11  497.08 293.242   1
  11  10 -21 -1358.2 1728.58   1
  21  10 -11  700.47 390.144   1
  11  21 -10  493.88 318.377   1
  10  11 -21   -9.10 1236.91   1
  21 -12  -1 1175.17 1347.15   1
  21 -12  -1 7580.19 2689.89   1
  12  -1 -21  18179. 5463.56   1
 -21  12  -1  495.31 1387.94   1
  -1 -21  12  719.43 275.273   1
  -1  12 -21 -5070.0 4147.28   1
 -21  -1  12  251.13 637.526   1
  -1 -12  21 -2028.4 2084.66   1
  21 -12   1 -427.74 974.974   1
   1 -21  12  846.10 277.036   1
   1  21 -12  828.02 275.603   1
 -21   1  12 2875.09 1385.73   1
   1 -12  21 -1289.8 1784.81   1
  21   1 -12  166.02 720.978   1
  21 -12  -3  735.42 1779.29   1
  -3  21 -12  685.48 265.020   1
  -3 -21  12  832.98 291.699   1
 -12  -3  21 2768.16 2319.48   1
 -12  -3  21 1080.92 3068.02   1
  21  -3 -12 -413.85 1772.68   1
  21  -3 -12 -162.39 2028.44   1
 -21  -3  12  458.82 482.085   1
  -3 -12  21 2295.22 2205.93   1
  -3 -12  21 -4216.7 3019.51   1
 -21  12   3 -1625.0 1598.50   1
  21 -12   3 -100.04 387.388   1
   3 -21  12  619.45 233.601   1
   3  21 -12  417.59 226.546   1
 -21   3  12 -217.95 1809.06   1
 -21   3  12 1699.92 1955.68   1
   3 -12  21 1666.85 1672.36   1
   3 -12  21 -712.82 2313.97   1
  21   3 -12 1670.16 726.049   1
   3  12 -21 1393.45 3410.87   1
   3  12 -21  287.51 1990.96   1
  21 -12  -5  798.59 1335.02   1
  -5  21 -12  416.38 227.318   1
 -21 -12   5  689.45 306.912   1
  -5 -21  12  558.04 257.524   1
 -12  -5  21  352.77 1881.82   1
 -12  -5  21 -1178.5 2603.90   1
  21  -5 -12 1649.21 1780.40   1
  21  -5 -12   89.28 1956.78   1
  -5 -12  21  790.10 1877.41   1
  21 -12   5 1144.30 356.741   1
   5 -21  12  529.93 215.963   1
  21  12  -5  478.78 315.621   1
   5  21 -12  449.89 238.452   1
  12   5 -21 -2196.0 2923.60   1
  12   5 -21 -1521.3 2633.67   1
 -21   5  12  861.21 1723.07   1
 -21   5  12 -3714.0 2237.90   1
  21   5 -12  854.15 554.955   1
 -21  12  -7  196.67 136.148   1
 -21 -12   7  202.40 265.020   1
  -7 -21  12  485.28 264.689   1
 -12  -7  21 -480.65 1834.42   1
 -12  -7  21 -1713.2 2148.60   1
  21  -7 -12  758.24 1900.56   1
  21  -7 -12  -29.59 1777.09   1
  -7  12 -21 1263.37 1373.61   1
  -7 -12  21 -1182.9 1469.52   1
  21 -12   7  165.36 117.848   1
  21  12  -7  480.21 287.179   1
   7  21 -12  249.59 235.586   1
  12   7 -21 2104.51 2771.47   1
  12   7 -21 -358.17 2622.64   1
 -21   7  12  295.12 1923.71   1
 -21   7  12  -40.91 1568.73   1
   7  12 -21   85.59 1175.17   1
 -21 -12   9 3770.25 886.891   1
  -9 -21  12 2733.98 670.929   1
  21  -9 -12  394.66 1667.95   1
 -21  -9  12 4334.69 1075.40   1
  -9 -12  21  569.18 1176.27   1
   9 -21  12 2931.32 675.228   1
  21  12  -9 2971.00 728.475   1
   9  21 -12 3210.23 764.083   1
  12   9 -21 -1432.0 2320.58   1
 -21   9  12 -890.42 1912.69   1
  21   9 -12 5329.07 1296.44   1
 -21 -12  11  -71.99 291.147   1
 -11 -21  12  419.14 299.305   1
 -12 -11  21  719.55 1012.24   1
  11 -21  12 -107.71 181.457   1
  11  21 -12  311.10 280.123   1
  12 -21  11  -51.31 167.677   1
  21  11 -12 -318.38 346.929   1
  12  21 -11  434.57 304.487   1
  11  12 -21 2050.49 3365.67   1
  11  12 -21  121.27 1029.87   1
 -21  13   0 3150.70 2127.66   1
  21 -13   0  14210. 7118.28   1
   0  21 -13 1316.28 410.098   1
  21   0 -13 -672.25 1070.55   1
   0  13 -21 -3037.1 3749.31   1
 -21  13  -2 4979.60 2700.91   1
  -2  21 -13 8527.17 1896.15   1
 -13  -2  21 6185.64 3548.67   1
  -2  13 -21  11851. 6565.97   1
 -21  -2  13 7845.87 1869.69   1
  -2 -13  21 1855.36 2183.88   1
  -2 -13  21 4384.30 2118.84   1
  21 -13   2 3287.40 1876.31   1
   2 -21  13 6552.74 1462.90   1
   2  21 -13 6519.67 1459.59   1
  13   2 -21 2759.34 3729.46   1
  13   2 -21 -348.80 2535.55   1
 -21   2  13 3890.42 2646.89   1
 -21   2  13 4394.22 1775.99   1
   2 -13  21 1833.31 1945.76   1
   2 -13  21 -834.42 2037.26   1
  21   2 -13 6914.34 1732.99   1
   2  13 -21 5942.01 4483.51   1
  -4  21 -13  241.76 236.578   1
 -13  -4  21 -1483.8 1866.39   1
 -13  -4  21 -1287.6 2318.38   1
 -21  -4  13   83.93 493.330   1
  21 -13   4  648.44 445.816   1
   4 -21  13   88.81 178.370   1
   4  21 -13  364.68 236.247   1
  13   4 -21  265.24 2609.41   1
  13   4 -21 1661.34 2287.51   1
 -21   4  13   59.11 1598.50   1
 -21   4  13  517.36 1874.10   1
   4 -13  21 -831.88 1520.23   1
  21   4 -13   72.36 645.683   1
   4  13 -21 -902.55 1249.03   1
 -21  13  -6 -112.89 262.926   1
 -21 -13   6   94.43 251.571   1
 -13  -6  21 2910.37 2574.13   1
  -6  13 -21 -2078.0 2687.68   1
  -6  13 -21  622.20 1618.34   1
  -6 -13  21  111.67 1115.64   1
  21 -13   6  669.94 260.610   1
   6 -21  13  254.77 188.513   1
  21  13  -6 -241.65 270.091   1
   6  21 -13   48.30 228.420   1
  13   6 -21 -1082.0 2752.73   1
  13   6 -21 -541.06 2268.77   1
 -21   6  13 -1240.2 1854.26   1
 -21   6  13 -1112.3 1635.98   1
   6 -13  21  766.51 1465.11   1
  21   6 -13  206.37 542.277   1
   6  13 -21 -1121.2 882.151   1
 -21 -13   8  739.17 321.353   1
 -13  -8  21 -2706.4 2275.38   1
  -8  13 -21 8534.88 2562.01   1
   8 -21  13  505.68 226.436   1
  21  13  -8  322.90 288.943   1
   8  21 -13  591.89 288.722   1
 -21   8  13 5876.96 2660.12   1
   8 -13  21 6430.38 2265.46   1
  21   8 -13  993.27 644.360   1
   8  13 -21  -68.03 1005.95   1
 -10  21 -13  122.48 219.380   1
 -21 -13  10  361.81 322.235   1
 -13 -10  21 1030.43 1437.55   1
 -21 -10  13  275.38 501.488   1
 -13 -21  10  265.46 299.305   1
 -10 -13  21 3366.77 2500.27   1
 -10 -13  21  244.07 986.109   1
  10 -21  13  644.69 243.303   1
  21  13 -10   99.57 305.038   1
  10  21 -13  662.33 338.110   1
  21  10 -13  541.84 541.395   1
  13  21 -10  414.51 327.527   1
  10  13 -21 -380.44 1061.18   1
 -12  21 -13  219.93 191.599   1
 -21 -13  12  342.08 311.542   1
 -12 -21  13  459.49 369.529   1
 -13 -12  21 -774.11 1769.37   1
 -13 -12  21  755.15 897.034   1
 -13  21 -12  313.64 187.741   1
 -13 -21  12  348.91 315.180   1
 -12 -13  21 -499.61 847.646   1
  12 -21  13  326.76 201.411   1
  21  13 -12  673.35 346.047   1
  12  21 -13  946.86 379.010   1
  13  12 -21  994.82 1017.97   1
  13 -21  12  391.91 183.772   1
  21  12 -13  125.34 406.019   1
  13  21 -12  151.80 294.344   1
  12  13 -21  807.63 957.887   1
  14  -1 -21 -809.83 1836.62   1
 -14  -1  21  12468. 6438.09   1
 -14  -1  21 -331.05 2183.88   1
  -1  14 -21  59519.  29434.   1
  -1  14 -21 2715.24 1846.54   1
 -21  -1  14 6183.44 3516.70   1
  -1 -14  21 9521.54 5108.58   1
 -14   1  21  824.94 1735.20   1
  21 -14   1 -956.12 1022.49   1
  14   1 -21 9353.98 5895.71   1
  14   1 -21 1490.46 2445.15   1
 -21   1  14  13604. 6950.71   1
 -21   1  14  10466. 2750.52   1
   1 -14  21 6801.89 3784.58   1
   1 -14  21 3072.43 2286.40   1
   1  14 -21  283.43 1544.48   1
 -21  14  -3 -649.10 977.730   1
 -21  14  -3 -177.82 878.403   1
  -3  21 -14  253.67 231.837   1
  -3 -21  14   70.89 229.412   1
 -14  -3  21 -506.78 2100.10   1
 -21  -3  14  -41.22 638.848   1
  -3 -14  21 -274.06 1375.81   1
  21 -14   3 -970.34 938.264   1
  21 -14   3 -1210.4 912.357   1
   3 -21  14  -99.10 214.419   1
   3  21 -14  386.73 242.090   1
  14   3 -21 1904.97 2897.14   1
  14   3 -21 1448.57 2204.83   1
   3 -14  21 -2262.2 1886.23   1
  21   3 -14  510.09 805.313   1
   3  14 -21 -406.57 1019.29   1
 -21  14  -5  429.83 913.680   1
  -5  21 -14  412.19 217.947   1
  -5 -21  14  160.18 237.791   1
  21  -5 -14  194.69 1730.79   1
  -5  14 -21  289.82 1747.32   1
  -5  14 -21 -441.85 2447.36   1
 -21  -5  14  328.52 531.584   1
  -5 -14  21 -449.45 912.467   1
  -5 -14  21 1121.15 1715.35   1
   5  21 -14  407.78 256.421   1
  14   5 -21 -1176.3 2349.24   1
   5 -14  21   10.49 1405.58   1
  21   5 -14 -210.56 659.133   1
 -21  14  -7 1031.97 332.598   1
  -7  21 -14  849.41 294.455   1
  -7 -21  14  718.22 285.635   1
 -14  -7  21 -2126.6 2170.65   1
 -14  -7  21 -1411.1 2316.17   1
  21  -7 -14 -1091.3 1961.19   1
  21  -7 -14 -931.65 2911.47   1
  -7  14 -21 -500.28 2538.86   1
  -7 -14  21 -570.61 871.017   1
  21 -14   7 1142.10 297.762   1
  21  14  -7  740.27 305.920   1
   7  21 -14  624.63 282.548   1
  14   7 -21 -1220.4 2764.85   1
   7 -14  21 -1833.3 1621.65   1
   7 -14  21  180.47 2191.60   1
  21   7 -14 1418.81 668.283   1
   7  14 -21 5174.73 4056.88   1
   7  14 -21 -995.92 859.552   1
 -21 -14   9 3395.43 831.881   1
  -9 -21  14 3929.00 918.310   1
 -14  -9  21 1223.68 2005.29   1
  21  -9 -14 -229.74 2939.03   1
  -9 -14  21  -23.77 981.809   1
   9 -21  14 3124.24 727.042   1
  21  14  -9 2491.45 640.061   1
   9  21 -14 2280.89 580.641   1
   9 -14  21 3031.64 2646.89   1
  21   9 -14 2132.07 768.051   1
   9  14 -21   -4.89 1036.16   1
 -11  21 -14  676.55 267.225   1
 -21 -14  11  771.91 362.363   1
 -11 -21  14 1518.02 452.210   1
 -14 -11  21 -340.65 838.385   1
 -21 -11  14  554.18 501.047   1
 -11 -14  21 -336.90 838.275   1
  11 -21  14  790.21 296.108   1
  21  14 -11 1499.28 460.147   1
  11  21 -14  554.62 327.196   1
  14  11 -21 2186.09 3234.48   1
  14  11 -21 -786.35 961.084   1
  21  11 -14  432.59 512.402   1
  14  21 -11  679.64 327.747   1
 -13  21 -14 -177.71 205.269   1
 -21 -14  13  108.59 344.725   1
 -13 -21  14 -249.48 335.795   1
 -14 -13  21  664.42 641.164   1
 -14  21 -13   13.30 166.575   1
 -21 -13  14 -128.87 380.773   1
 -14 -21  13  137.58 354.205   1
  13 -21  14 -198.54 285.966   1
  21  14 -13  481.98 347.701   1
  14 -21  13  -22.37 196.009   1
  14  21 -13   89.02 333.811   1
  13  14 -21 -534.45 773.563   1
 -15   0  21   19.04 1796.93   1
 -15   0  21 -667.84 2211.44   1
   0 -21  15 2721.86 641.825   1
  15   0 -21  274.06 3298.42   1
  15   0 -21 -464.67 2417.59   1
  21   0 -15 -415.61 2182.78   1
  21   0 -15 -507.55 1814.57   1
   0  15 -21  762.10 1290.93   1
  15  -2 -21 1080.70 1953.48   1
  -2  21 -15  188.84 242.862   1
  -2 -21  15  -28.21 241.869   1
  21  -2 -15 3460.47 2639.18   1
  21  -2 -15   49.48 2268.77   1
  -2  15 -21 1199.43 3146.29   1
 -21  -2  15  702.35 812.479   1
  -2 -15  21  -64.08 1004.41   1
 -15   2  21  559.81 1882.92   1
   2 -21  15 -124.68 218.829   1
  15   2 -21 -1545.6 2516.81   1
   2 -15  21 -574.69 1600.70   1
   2 -15  21  -39.55 1667.95   1
   2  15 -21 1481.64 959.430   1
  -4  21 -15  239.77 219.601   1
 -15  -4  21 -1836.6 2005.29   1
 -15  -4  21 -1873.0 2791.31   1
 -21  -4  15  270.42 642.927   1
  21 -15   4  157.20 868.812   1
  21 -15   4  341.97 1105.72   1
   4 -21  15  -58.12 214.309   1
   4  21 -15  238.01 244.405   1
 -21   4  15 1612.83 2758.24   1
 -21   4  15 3966.48 2524.53   1
   4 -15  21 3809.94 2638.07   1
  21   4 -15  913.46 821.629   1
   4  15 -21 1445.26 970.344   1
 -21  15  -6 -195.24 795.942   1
  -6  21 -15  136.92 228.530   1
 -21 -15   6  109.75 275.383   1
 -15  -6  21 -2425.3 2213.65   1
 -15  -6  21 1283.21 3199.20   1
  -6  15 -21 -1948.0 2532.24   1
  -6  15 -21 1725.28 3493.55   1
 -21  -6  15   10.83 564.215   1
  -6 -15  21 2458.38 1997.57   1
  -6 -15  21   29.62 806.856   1
   6 -21  15  231.18 263.477   1
  21  15  -6 -234.59 249.586   1
   6  21 -15  -33.16 254.657   1
  15   6 -21 -607.10 2993.05   1
  15   6 -21 -1171.9 2699.81   1
 -21   6  15 2788.00 3603.79   1
 -21   6  15  428.62 1644.80   1
   6 -15  21  320.25 1338.33   1
   6 -15  21  295.01 2775.88   1
  21   6 -15  -32.93 748.979   1
   6  15 -21  204.39 792.745   1
 -21  15  -8 1081.25 329.842   1
  -8  21 -15 1165.25 344.945   1
 -21 -15   8  829.57 319.920   1
  -8 -21  15 1908.28 530.812   1
 -15  -8  21 -908.50 1919.30   1
  21  -8 -15 -203.62 2660.12   1
  -8 -15  21 1138.79 910.924   1
  21 -15   8 1423.22 326.094   1
   8  21 -15 1285.41 388.711   1
  15   8 -21 -673.02 2040.57   1
 -21   8  15 1013.56 3073.53   1
   8 -15  21 2177.27 1652.52   1
   8 -15  21 -1080.6 2804.54   1
  21   8 -15  485.72 629.368   1
 -10 -21  15  468.64 306.471   1
 -15 -21  10 -104.91 306.030   1
  10 -21  15  512.51 339.654   1
  21  15 -10  413.29 294.014   1
  10  21 -15  521.11 320.471   1
  15  10 -21  213.87 990.077   1
  21  10 -15  569.51 544.482   1
  15  21 -10  918.20 378.899   1
  10  15 -21  395.55 738.286   1
 -12  21 -15  312.42 308.896   1
 -21 -15  12   88.50 290.486   1
 -12 -21  15  840.92 376.254   1
 -15 -12  21 1516.92 793.627   1
 -15  21 -12  302.28 171.315   1
 -12  15 -21  939.26 1161.94   1
 -21 -12  15  658.36 488.700   1
 -15 -21  12   44.01 327.747   1
 -12 -15  21  404.03 654.062   1
  12 -21  15   62.52 369.749   1
  21  15 -12  -56.22 300.187   1
  12  21 -15  519.57 351.560   1
  15  12 -21 -1181.8 852.717   1
  15 -21  12  186.86 158.747   1
  21  12 -15 -114.87 497.740   1
  15  21 -12 -402.27 307.243   1
  12  15 -21 -335.80 759.122   1
 -14  21 -15   64.89 314.849   1
 -21 -15  14  240.99 357.292   1
 -14 -21  15  -76.52 383.970   1
 -15 -14  21  339.87 676.220   1
 -21 -14  15 -247.27 387.939   1
 -15 -21  14  959.76 404.586   1
 -14 -15  21 -820.64 717.451   1
  21  15 -14   96.01 329.070   1
  14  21 -15  171.76 325.653   1
  15  14 -21 -965.93 728.695   1
  14  15 -21  -70.50 702.678   1
  16  -1 -21  441.96 3029.43   1
  16  -1 -21 -3015.1 3494.65   1
  -1 -21  16 -275.71 272.296   1
 -16  -1  21 -771.69 3323.78   1
  21  -1 -16 -1113.4 2194.90   1
  21  -1 -16 -1860.9 3043.76   1
  -1  16 -21 -123.58 997.463   1
  -1 -16  21 -1138.8 888.986   1
   1  21 -16  513.50 272.406   1
 -21   1  16 1685.59 1921.51   1
 -21   1  16  549.77 2612.72   1
   1 -16  21  140.34 1422.11   1
  21   1 -16 -660.12 1899.46   1
  16  -3 -21 4051.37 3083.45   1
  -3  21 -16  467.75 318.487   1
  -3 -21  16 -357.73 280.785   1
 -16  -3  21 -356.96 1869.69   1
 -16  -3  21  875.10 4026.01   1
  21  -3 -16 -1378.0 2134.27   1
  21  -3 -16 -1203.8 3915.77   1
 -21  -3  16 1055.45 837.724   1
  -3 -16  21 -228.31 794.178   1
 -16   3  21 1354.87 3163.93   1
   3 -21  16  485.50 331.716   1
   3  21 -16  113.88 242.972   1
  16   3 -21 -1523.5 2839.82   1
  16   3 -21 -971.01 3983.02   1
 -21   3  16 -1504.8 1960.09   1
 -21   3  16  285.86 3871.68   1
   3 -16  21 -223.90 1608.42   1
  21   3 -16 -444.16 1078.38   1
   3  16 -21 -1101.0 910.483   1
  -5 -21  16  587.26 299.415   1
 -16  -5  21 -238.89 1978.83   1
 -16  -5  21 7036.70 3647.89   1
  21  -5 -16 -2065.9 2546.57   1
  21  -5 -16 -3063.6 4117.51   1
  -5  16 -21 -812.15 2545.47   1
  -5  16 -21  12160. 3824.27   1
 -21  -5  16  737.51 749.200   1
  -5 -16  21  190.50 828.133   1
   5 -21  16  678.76 339.764   1
   5  21 -16 1015.10 342.850   1
  16   5 -21 4024.91 3178.26   1
  16   5 -21  660.01 3653.40   1
 -21   5  16 -1834.4 4065.70   1
 -21   5  16 -1181.8 1708.74   1
   5 -16  21  251.02 1699.92   1
  21   5 -16  339.76 798.919   1
   5  16 -21 1100.10 978.392   1
  -7  21 -16  630.47 344.835   1
 -21 -16   7 -107.17 267.666   1
  -7 -21  16   90.41 270.753   1
  -7  16 -21  -62.08 2182.78   1
 -21  -7  16  355.31 579.318   1
  -7 -16  21  433.14 711.277   1
  21 -16   7  562.78 543.710   1
  21 -16   7 -341.97 1059.42   1
   7 -21  16  186.42 362.253   1
  21  16  -7  -99.74 282.769   1
   7  21 -16  319.04 267.004   1
  16   7 -21 -1448.6 2092.38   1
 -21   7  16 -1294.2 2451.77   1
   7 -16  21 -122.26 1364.79   1
   7 -16  21 1965.60 2568.62   1
  21   7 -16 1406.68 776.209   1
   7  16 -21  256.86 731.561   1
  -9  21 -16  618.89 366.222   1
 -21 -16   9  987.98 369.970   1
  -9 -21  16  859.66 344.504   1
 -16  -9  21 -550.99 736.302   1
  -9  16 -21 -105.77 1364.79   1
 -16 -21   9  114.65 313.967   1
  -9 -16  21 -355.09 611.288   1
  21  16  -9  835.52 327.417   1
   9 -16  21 2597.29 1809.06   1
  21   9 -16  329.18 543.379   1
   9  16 -21  -59.14 644.581   1
 -21 -16  11 -268.77 282.328   1
 -11 -21  16 -296.44 338.220   1
 -16 -11  21 -664.64 716.899   1
 -11  16 -21 -1936.9 2188.29   1
 -21 -11  16  323.12 397.640   1
 -11 -16  21   56.31 655.936   1
  11 -21  16  378.35 364.899   1
  16  11 -21 -378.79 861.205   1
  16  21 -11  242.42 296.108   1
  11  16 -21  597.29 743.688   1
 -13  21 -16  297.10 446.257   1
 -13 -21  16  -30.88 450.336   1
 -16  21 -13  559.03 206.923   1
 -13  16 -21  397.42 497.188   1
 -21 -13  16 -675.56 506.559   1
 -16 -21  13  874.76 402.601   1
 -13 -16  21 -870.36 767.721   1
  13 -21  16  606.55 409.106   1
  21  16 -13  832.54 377.246   1
  13  21 -16  661.89 379.230   1
  16  13 -21  528.94 722.191   1
  16 -21  13  523.65 209.128   1
  21  13 -16  779.52 544.923   1
  16  21 -13 2513.50 654.172   1
 -15  21 -16   -7.52 339.433   1
 -21 -16  15 -550.55 386.175   1
 -16 -15  21  365.01 576.231   1
 -21 -15  16   49.45 416.161   1
 -16 -21  15  439.75 422.114   1
 -15 -16  21  373.28 595.193   1
  21  16 -15  439.20 372.175   1
  15  21 -16 -221.47 332.819   1
  16 -21  15 -297.87 277.477   1
  16  21 -15 -340.54 349.685   1
  15  16 -21 -247.49 494.653   1
 -17   0  21 -1899.5 1947.96   1
 -17   0  21  792.08 3983.02   1
   0 -21  17  -98.35 343.843   1
   0  21 -17  430.05 362.363   1
 -21   0  17 -1630.5 1947.96   1
 -21   0  17  -61.97 2558.70   1
  21   0 -17 -2936.8 2621.54   1
  21   0 -17 -1325.1 3081.24   1
   0  17 -21 -2851.9 3189.28   1
   0  17 -21 -1411.1 911.365   1
  -2 -21  17  188.07 349.796   1
 -17  -2  21 2070.33 2071.43   1
 -17  -2  21  930.11 3852.93   1
  21  -2 -17 -4261.9 2991.95   1
 -21  -2  17  632.01 1716.46   1
 -21  -2  17  929.67 1360.38   1
  -2 -17  21 -332.49 831.440   1
   2 -21  17  202.18 367.875   1
  17   2 -21 -472.83 3994.04   1
  17   2 -21 -1602.9 2598.39   1
 -21   2  17 -365.23 1826.70   1
 -21   2  17 1649.21 3721.75   1
   2 -17  21 -387.06 871.458   1
  21   2 -17 -523.87 2096.79   1
   2  17 -21  862.64 947.193   1
  17  -4 -21  104.08 2918.09   1
  -4  21 -17  413.29 410.539   1
 -17  -4  21 -452.54 1876.31   1
 -17  -4  21 9858.88 3820.96   1
  -4  17 -21 8064.15 2431.92   1
  -4 -17  21  -35.35 683.717   1
   4  21 -17  873.55 346.929   1
  17   4 -21 1842.13 2663.43   1
  17   4 -21 1919.30 3205.82   1
 -21   4  17 4804.32 3462.68   1
 -21   4  17 -2834.3 2087.97   1
  21   4 -17 -430.93 925.035   1
  -6  21 -17  148.50 406.901   1
  -6 -21  17  498.51 378.238   1
 -17  -6  21 2252.23 2060.41   1
  21  -6 -17  572.37 1874.10   1
  -6  17 -21 -1760.6 2425.31   1
 -21  -6  17 -232.50 657.810   1
  -6 -17  21  157.87 600.264   1
   6  21 -17   69.20 315.070   1
   6 -17  21   55.45 1483.85   1
   6 -17  21 1555.51 1547.79   1
   6  17 -21  215.08 772.351   1
 -21 -17   8 -154.12 283.320   1
  -8 -21  17   87.63 314.518   1
 -17  -8  21  461.80 871.347   1
  -8  17 -21 1050.05 1338.33   1
 -21  -8  17  384.52 503.803   1
  -8 -17  21 -258.30 552.860   1
  21  17  -8 -452.10 304.597   1
   8  21 -17  496.64 337.338   1
  17   8 -21 -151.80 785.580   1
   8 -17  21  449.01 1266.67   1
  21   8 -17 -608.86 690.331   1
   8  17 -21  113.99 600.705   1
 -21 -17  10  -64.62 292.691   1
 -10 -21  17  529.93 402.712   1
 -17 -10  21 2241.21 1856.46   1
 -17 -10  21  156.32 682.394   1
 -10  17 -21 -612.39 1889.54   1
 -10  17 -21  769.37 1113.44   1
 -17 -21  10  536.76 340.976   1
 -10 -17  21 -138.02 630.250   1
  10 -21  17   70.97 410.649   1
  21  17 -10  -96.67 283.982   1
  10  21 -17  170.76 325.543   1
  17  10 -21 -143.86 843.677   1
  21  10 -17 -255.98 531.143   1
  17  21 -10  477.90 328.740   1
 -12  21 -17  377.25 577.995   1
 -21 -17  12  828.13 363.907   1
 -12 -21  17  222.91 432.366   1
 -17 -12  21 -793.19 662.109   1
 -17  21 -12  686.47 210.340   1
 -12  17 -21 -1132.2 2010.80   1
 -21 -12  17  569.73 473.156   1
 -17 -21  12  770.59 395.215   1
 -12 -17  21 -1329.5 836.180   1
  12 -21  17  -38.96 443.721   1
  21  17 -12  921.51 393.010   1
  12  21 -17 -559.92 385.624   1
  17  12 -21 -467.86 747.767   1
  17 -21  12  733.77 215.522   1
  12 -17  21    4.72 535.552   1
  17  21 -12  390.81 313.416   1
  12  17 -21  -27.77 614.485   1
 -14  21 -17  505.02 412.523   1
 -14 -21  17  588.69 473.486   1
 -17 -14  21 -1321.8 600.264   1
 -17  21 -14  652.85 287.620   1
 -17 -21  14  852.83 407.672   1
 -14 -17  21 -300.52 623.304   1
  21  17 -14  893.62 399.515   1
  14  21 -17  794.29 414.177   1
  17  14 -21  -28.05 610.296   1
  21  14 -17  203.28 531.143   1
  14  17 -21  458.38 534.891   1
  18  -1 -21 -1429.8 2620.44   1
  18  -1 -21 2089.07 2366.88   1
  -1  21 -18  568.07 415.940   1
  -1 -21  18  454.30 425.421   1
 -18  -1  21 1052.47 1698.82   1
 -18  -1  21 -2652.4 2485.94   1
  -1  18 -21  540.29 777.201   1
 -21  -1  18  -16.60 1483.85   1
 -21  -1  18 1122.26 1728.58   1
  -1 -18  21 -1125.6 729.357   1
 -18   1  21 1762.76 2222.46   1
 -18   1  21 -194.36 1639.29   1
   1  21 -18  186.31 364.899   1
  18   1 -21  841.03 2466.10   1
  18   1 -21  383.97 2285.30   1
 -21   1  18  38706.  19094.   1
   1 -18  21 -798.37 1723.07   1
   1 -18  21  155.66 625.730   1
  21   1 -18 -2651.3 2539.96   1
  21   1 -18  175.39 1931.43   1
  -3 -21  18  877.74 467.533   1
  21  -3 -18 -2570.8 2402.16   1
  21  -3 -18 -551.76 2048.28   1
 -21  -3  18  112.67 1233.60   1
 -18   3  21 3408.66 1713.15   1
   3  21 -18  255.43 377.797   1
  18   3 -21  796.49 2280.89   1
  18   3 -21 -171.43 1982.14   1
  21   3 -18 -1663.5 1293.13   1
  18  -5 -21  374.82 1635.98   1
  -5 -21  18 1419.91 509.425   1
 -18  -5  21 -5136.1 3062.50   1
 -18  -5  21 -726.38 1339.43   1
  21  -5 -18 -768.16 2220.26   1
  21  -5 -18  896.37 1824.49   1
  -5  18 -21 1223.68 884.246   1
  -5 -18  21 -306.69 517.142   1
   5 -21  18  932.20 415.940   1
   5  21 -18 1510.31 526.513   1
  18   5 -21  441.74 2367.98   1
 -21   5  18  516.81 1623.85   1
 -21   5  18   75.01 1505.90   1
   5 -18  21 2435.23 1069.01   1
  21   5 -18 -2540.0 2879.50   1
  21   5 -18 -225.22 766.728   1
   5  18 -21 -151.91 751.846   1
  -7  21 -18  361.59 485.282   1
 -21 -18   7  685.48 307.684   1
  -7 -21  18 1203.84 470.289   1
 -18  -7  21 -116.53 1101.97   1
  21  -7 -18 -780.62 1244.62   1
  -7  18 -21  635.76 1057.54   1
 -21  -7  18  534.01 630.029   1
  -7 -18  21 -362.03 549.222   1
   7 -21  18  705.76 460.368   1
  18   7 -21  607.21 957.997   1
 -21   7  18 -1131.1 1366.99   1
   7 -18  21  587.70 1309.67   1
  -9  21 -18   36.88 538.419   1
  -9  18 -21 1142.10 2067.02   1
  -9  18 -21  202.73 843.015   1
 -21  -9  18  255.43 516.150   1
 -18 -21   9   92.13 327.196   1
  -9 -18  21 -383.86 646.786   1
  21  18  -9  -12.29 296.990   1
   9  21 -18  541.95 405.027   1
  18   9 -21 -813.47 2738.39   1
  18   9 -21 -417.37 782.934   1
  21   9 -18 -355.53 682.614   1
   9  18 -21 -540.95 602.579   1
 -11  21 -18 -281.45 587.807   1
 -21 -18  11 1092.60 393.451   1
 -18 -11  21 -613.38 646.235   1
 -11  18 -21   16.19 1998.68   1
 -11 -18  21 -223.46 786.241   1
  21  18 -11   86.22 296.439   1
  11  21 -18 1601.81 542.277   1
  11 -18  21   18.74 482.196   1
  21  11 -18  312.75 549.663   1
  18  21 -11   47.98 289.824   1
  11  18 -21 -1262.3 616.029   1
 -21 -18  13 2531.14 681.732   1
 -13 -21  18 1104.62 629.588   1
 -18  21 -13 2158.52 506.890   1
 -21 -13  18  522.87 404.034   1
 -18 -21  13 2415.39 657.148   1
 -13 -18  21 -168.12 535.222   1
  13 -21  18  857.46 492.779   1
  21  18 -13 1935.84 566.530   1
  13  21 -18  974.20 475.361   1
  18 -21  13 2187.19 516.040   1
  13 -18  21  257.52 1267.78   1
  18  21 -13 1479.44 477.014   1
  19   0 -21 1671.26 2300.74   1
  19   0 -21 -383.09 1538.97   1
 -21   0  19 -278.03 2025.13   1
  21   0 -19  231.62 1693.31   1
   0  19 -21  122.26 620.438   1
  19  -2 -21 -2459.5 2890.53   1
  19  -2 -21 1427.62 1674.57   1
 -19  -2  21  998.35 1787.01   1
 -19  -2  21  582.18 1618.34   1
  21  -2 -19  607.10 2172.86   1
  21  -2 -19  967.04 1793.63   1
 -21  -2  19 3333.70 2330.50   1
 -21  -2  19  834.53 1289.82   1
  -2 -19  21 -512.73 571.160   1
 -19   2  21 2354.75 2007.49   1
 -19   2  21 1180.68 1579.76   1
   2 -21  19  511.74 394.884   1
   2  21 -19 -421.78 452.430   1
 -21   2  19 -1249.0 1590.78   1
 -21   2  19  634.22 1674.57   1
   2 -19  21  559.14 591.775   1
  21   2 -19 2855.25 2609.41   1
   2  19 -21 1833.31 784.918   1
  19  -4 -21  551.32 1285.41   1
  -4  21 -19 2849.74 847.976   1
 -19  -4  21 3741.59 2632.56   1
 -19  -4  21  380.22 1618.34   1
  21  -4 -19 -1412.2 2502.48   1
  21  -4 -19  890.42 1708.74   1
  -4  19 -21 -1145.4 2442.95   1
  -4  19 -21 1602.91 833.094   1
 -21  -4  19 1234.70 1209.35   1
  -4 -19  21 -624.63 592.327   1
 -19   4  21  645.68 1265.57   1
   4 -21  19 1332.82 572.924   1
   4  21 -19 3636.86 932.752   1
  19   4 -21 -2117.7 1692.20   1
  19   4 -21 1418.81 2543.27   1
 -21   4  19 1155.33 1518.02   1
 -21   4  19 1888.43 1842.13   1
   4 -19  21 1109.03 674.897   1
  21   4 -19  -89.76 938.595   1
   4  19 -21 1393.45 773.563   1
  -6  21 -19  816.56 626.391   1
  -6 -21  19  222.91 438.760   1
 -19  -6  21 -1462.9 972.880   1
  21  -6 -19  707.75 959.540   1
  -6 -19  21 -304.71 543.379   1
   6 -21  19  -49.44 423.988   1
   6  21 -19 -169.99 410.539   1
  19   6 -21 -1114.5 1203.84   1
 -21   6  19   53.50 926.688   1
   6 -19  21  272.19 532.906   1
  21   6 -19 1774.89 2677.76   1
  21   6 -19 -259.18 767.169   1
   6  19 -21  -85.13 665.968   1
  -8  21 -19  -40.08 595.744   1
 -21 -19   8  134.38 306.912   1
  -8 -21  19  449.12 476.353   1
  -8  19 -21 -792.75 617.572   1
 -21  -8  19 -545.47 594.642   1
   8 -21  19  142.32 442.619   1
  21  19  -8   -4.22 270.973   1
   8  21 -19  306.14 395.656   1
  19   8 -21   73.51 703.781   1
   8  19 -21 -555.40 487.487   1
 -10  21 -19  180.58 614.154   1
 -21 -19  10  259.40 291.809   1
 -10 -21  19  755.26 536.324   1
 -19 -10  21  485.06 578.105   1
 -10  19 -21  642.60 2095.69   1
 -21 -10  19  -67.57 499.173   1
 -19 -21  10 -509.43 345.717   1
 -10 -19  21  333.26 552.860   1
  10  21 -19    1.53 443.280   1
  19  10 -21 -262.04 739.940   1
  21  10 -19  577.33 687.024   1
  19  21 -10  187.63 316.172   1
  10  19 -21 -341.42 479.880   1
  20  -1 -21  732.44 1169.66   1
  -1  21 -20  652.85 560.357   1
  -1 -21  20   61.14 448.682   1
 -20  -1  21 -2102.3 2069.23   1
 -20  -1  21 1822.29 1211.55   1
  21  -1 -20 -2861.9 2776.98   1
  21  -1 -20 -350.46 1322.90   1
  -1  20 -21  862.09 721.750   1
  -1 -20  21  -76.22 562.120   1
   1 -21  20 -498.51 528.717   1
  20   1 -21 -1160.8 2479.33   1
 -21   1  20 -255.87 1885.13   1
 -21   1  20 -408.22 1077.06   1
   1 -20  21   19.16 483.298   1
  21   1 -20 1682.28 2439.64   1
  21   1 -20 -812.59 1185.09   1
   1  20 -21 1147.61 744.680   1
  20  -3 -21 -2650.2 2910.37   1
  20  -3 -21  156.21 939.146   1
 -20  -3  21 -835.85 1823.39   1
 -20  -3  21 -241.43 861.646   1
  21  -3 -20   15.96 928.452   1
  21  -3 -20 -1511.4 2780.29   1
 -21  -3  20 -935.51 864.512   1
 -21  -3  20 2811.15 2240.10   1
  -3 -20  21  235.25 515.709   1
 -20   3  21   49.33 801.013   1
 -20   3  21 -545.80 1677.87   1
   3 -21  20  -35.27 473.597   1
   3  21 -20 -1107.9 555.175   1
  20   3 -21   91.65 1049.94   1
  20   3 -21 -2430.8 2624.85   1
 -21   3  20 -2349.2 2047.18   1
 -21   3  20  283.65 828.243   1
   3  20 -21  -27.67 617.792   1
  20  -5 -21  313.20 608.422   1
  -5  21 -20 -421.12 637.085   1
 -21  -5  20  311.76 720.427   1
 -20   5  21  363.25 575.349   1
   5 -21  20 -116.08 452.430   1
  20   5 -21   64.69 867.820   1
 -21   5  20 -495.98 535.663   1
   5 -20  21  261.49 1609.52   1
   5 -20  21  179.47 499.393   1
  21   5 -20 1359.28 2614.92   1
  21   5 -20 -181.02 677.323   1
   5  20 -21  279.90 598.610   1
  -7  21 -20 1383.53 696.174   1
 -20  -7  21 -2932.4 2205.93   1
 -20  -7  21  297.21 540.293   1
  21  -7 -20 -224.67 592.768   1
  -7  20 -21 2205.93 834.306   1
 -21  -7  20  207.69 571.381   1
  -7 -20  21 -333.70 471.282   1
   7  21 -20   95.40 464.336   1
  21   7 -20 -386.18 2948.96   1
  21   7 -20  -12.57 744.680   1
   7  20 -21 -150.04 577.554   1
 -21 -20   9  537.43 331.496   1
  -9 -21  20  195.35 522.875   1
 -20  -9  21  192.81 538.529   1
 -21  -9  20  583.84 562.782   1
 -20 -21   9  349.13 327.747   1
  -9 -20  21 -1087.6 502.480   1
  21  20  -9  216.07 325.984   1
   9  21 -20  -40.89 453.533   1
  20   9 -21  215.85 711.277   1
  20  21  -9  324.44 298.864   1
 -21   0  21  11961. 6291.47   1
 -21   0  21  68526.  15059.   1
  21   0 -21  11851. 6599.05   1
   0  21 -21  82196.  18047.   1
 -21  -2  21 2978.72 2305.15   1
 -21  -2  21  -56.06 621.651   1
 -21   2  21 -517.36 1713.15   1
 -21   2  21 -141.66 560.687   1
   2 -21  21 -373.72 530.151   1
  21   2 -21 -251.35 706.757   1
  21   2 -21 -2070.3 2722.96   1
   2  21 -21  350.79 577.885   1
  21  -4 -21  840.92 2645.79   1
  21  -4 -21  233.38 700.804   1
  -4  21 -21  -90.73 662.330   1
 -21  -4  21  628.71 1970.01   1
  -4 -21  21 1460.70 559.805   1
   4  21 -21  102.90 555.065   1
  21  -6 -21   29.27 592.216   1
 -21  -6  21  137.14 590.122   1
  -6 -21  21 -103.05 394.113   1
 -21   6  21 -185.54 643.368   1
  21   6 -21 -165.80 650.534   1
   6  21 -21 -584.83 527.064   1
 -22   0   0 1037.37 369.419   1
  22   0   0 1540.07 433.910   1
  22  -1  -1   -1.06 253.996   1
 -22   1  -1  249.15 230.625   1
 -22  -1   1   22.49 264.028   1
 -22   1   1 -225.33 251.681   1
  22   1  -1  293.24 272.737   1
 -22  -2   0 2148.60 545.805   1
 -22   2   0 4655.49 1053.36   1
  22  -2   0 4507.77 1034.06   1
  22   2   0 2714.14 663.983   1
  22   0  -2 3421.89 806.746   1
  22  -2  -2 8915.21 1985.45   1
 -22   2  -2 5025.90 1126.67   1
  22  -2   2 7142.53 1588.58   1
  22   2  -2 6895.59 1552.20   1
  22  -3  -1  16470. 3625.84   1
 -22   3  -1  14331. 3157.31   1
 -22  -1   3  17043. 3758.13   1
 -22   3   1  15742. 3467.09   1
  22  -3   1  17738. 3902.54   1
  22   3  -1  12149. 2683.27   1
 -22   3  -3  -97.39 181.237   1
 -22  -3   3  149.27 279.131   1
 -22   4   0 9813.68 2169.55   1
  22  -4   0  12093. 2666.74   1
 -22   0   4 9664.86 2162.93   1
  22  -4  -2 2018.52 610.296   1
 -22   4  -2  246.17 213.978   1
 -22  -4   2  573.59 290.706   1
 -22  -2   4 1332.82 423.878   1
  22  -4   2  657.70 242.751   1
  22   2  -4 1791.42 518.796   1
 -22  -4   4  498.62 313.857   1
 -22   4   4  233.60 323.889   1
  22   4  -4   44.78 287.840   1
  22  -5  -1 2919.19 737.073   1
 -22   5  -1 2536.65 603.902   1
 -22  -5   1 1573.14 443.391   1
 -22  -1   5 3675.45 902.876   1
  22  -5   1 2916.99 693.749   1
  22   5  -1 1188.40 395.987   1
  22   1  -5 2591.77 734.648   1
 -22   5  -3  239.33 181.347   1
 -22  -5   3  210.67 293.352   1
 -22  -3   5  342.74 310.991   1
 -22   5   3  509.43 331.165   1
  22   5  -3  -26.76 270.091   1
  22   3  -5  357.40 281.336   1
  22  -5  -5  807.19 521.993   1
 -22  -5   5  559.47 317.715   1
  -5  -5  22 2628.15 3690.88   1
 -22   5   5  205.16 459.706   1
   5   5 -22 -2323.9 3631.35   1
  22  -6   0 6380.77 1438.65   1
 -22   6  -2 1315.18 366.111   1
 -22  -6   2  685.70 308.345   1
 -22  -2   6 1989.86 601.587   1
 -22   6   2  594.64 322.566   1
  22  -6   2  848.97 259.288   1
 -22   2   6  781.72 412.192   1
  22   2  -6 1725.28 556.388   1
   2   6 -22 1343.84 3097.78   1
  22  -6  -4 -223.35 434.571   1
 -22  -6   4  -44.65 253.445   1
  -6  -4  22 4739.27 4300.51   1
 -22  -4   6  365.01 316.393   1
  -4  -6  22 -519.02 3680.96   1
 -22   6   4  512.84 436.335   1
  22  -6   4  135.49 150.920   1
   6   4 -22 1134.38 3728.36   1
   4   6 -22 1870.80 3325.98   1
  22  -6  -6 -674.46 873.552   1
 -22  -6   6  914.78 349.575   1
  -6  -6  22 1274.39 5638.84   1
 -22   6   6 -619.89 972.769   1
  22   6  -6  380.22 316.062   1
   6   6 -22 3866.16 4240.98   1
   6   6 -22 -2451.8 5362.14   1
  -1  -7  22  999.67 3749.31   1
 -22   7   1  244.07 284.643   1
  22  -7   1  580.09 283.982   1
 -22   1   7  238.56 392.459   1
   1   7 -22 -1185.1 2806.74   1
  22  -7  -3  573.14 437.658   1
 -22   7  -3  964.61 285.415   1
  -7  -3  22  152.90 4157.20   1
 -22  -3   7 1688.90 549.443   1
  -3  -7  22 -1289.8 3664.42   1
 -22   7   3  352.11 410.759   1
  22  -7   3  935.62 258.516   1
  22   7  -3  880.17 346.047   1
   7   3 -22 2901.55 4338.00   1
 -22   3   7  676.00 484.400   1
  22  -7  -5  661.67 1009.15   1
 -22   7  -5 2320.58 540.623   1
  22  -5  -7 -156.32 756.586   1
 -22  -5   7 3259.84 795.612   1
  -5  -7  22 -345.28 1989.86   1
  -5  -7  22 -2019.6 5323.55   1
  22   7  -5 2628.15 648.880   1
   7   5 -22  14342. 8010.13   1
   7   5 -22 6392.89 5930.98   1
   5   7 -22 -4838.5 4406.35   1
   5   7 -22 5626.72 5692.86   1
  22  -7  -7 1889.54 1681.18   1
  22  -7  -7 -548.67 2135.37   1
 -22   7   7 2930.21 2244.51   1
 -22   7   7 2858.56 2211.44   1
  22   7  -7 2313.97 598.831   1
 -22   8   0   59.30 276.926   1
 -22   0   8  503.69 421.012   1
   0  -8  22  326.98 3696.39   1
   0   8 -22 -629.26 2671.15   1
  22  -8  -2 -125.45 393.672   1
 -22   8  -2  499.94 287.509   1
 -22  -2   8  488.04 489.582   1
 -22   8   2 1306.36 1583.07   1
  22  -8   2  143.64 236.027   1
   8   2 -22 1621.65 4680.85   1
 -22   2   8 -177.60 502.480   1
   2   8 -22 -2366.9 3704.11   1
 -22   8  -4 8164.47 1801.34   1
 -22  -8   4 4949.83 1124.46   1
  -8  -4  22 -694.19 3716.23   1
 -22  -4   8 9005.61 2036.16   1
  -4  -8  22 6844.88 3901.44   1
  -4  -8  22 -976.19 5572.70   1
  22  -8   4 6922.05 1532.35   1
 -22   4   8 7383.96 1814.57   1
  22   4  -8 9163.26 2080.25   1
   4   8 -22 5656.48 4507.77   1
  22  -8  -6 -778.97 1387.94   1
  22  -8  -6 7132.61 2850.84   1
 -22  -8   6 3711.83 871.017   1
  -8  -6  22 2001.98 2075.84   1
  -8  -6  22 -1554.4 4008.37   1
 -22  -6   8 6606.76 1518.02   1
  -6  -8  22 1427.62 4537.53   1
 -22   8   6 6106.27 3452.76   1
  22   6  -8 7256.08 1645.90   1
   6   8 -22 -1608.4 3215.74   1
   6   8 -22 -2741.7 3697.49   1
  22  -8  -8  -26.11 1304.15   1
  22  -8  -8 -309.34 1812.37   1
 -22  -8   8  451.77 301.841   1
  -8  -8  22 -402.16 1973.32   1
  -8  -8  22 -2015.2 2645.79   1
 -22   8   8 -2204.8 1998.68   1
 -22   8   8 -2439.6 2001.98   1
   8   8 -22 1233.60 2635.87   1
   8   8 -22 1835.52 2474.92   1
  22  -9  -1   79.91 394.664   1
 -22   9  -1 -161.83 262.926   1
  -1   9 -22  511.30 2466.10   1
 -22  -1   9 -312.98 436.997   1
  -1  -9  22 -942.01 4525.41   1
 -22   1   9  443.28 512.843   1
   1  -9  22 -653.07 3278.58   1
   1   9 -22  20869.  10891.   1
   1   9 -22 1065.70 3418.58   1
 -22   9  -3  805.31 299.746   1
 -22  -9   3  172.97 258.406   1
  -9  -3  22 2298.53 3391.02   1
 -22  -3   9 1507.00 549.884   1
  -3  -9  22 -1245.7 1946.86   1
  -3  -9  22 -3086.8 4571.71   1
 -22   9   3 4309.33 2776.98   1
  22  -9   3  350.35 240.877   1
  22   9  -3  100.29 268.548   1
 -22   3   9  -77.16 697.607   1
  22  -9  -5 -1261.2 1402.27   1
  22  -9  -5 -2078.0 2499.17   1
 -22   9  -5 5528.60 1233.60   1
 -22  -9   5 5535.22 1255.65   1
  -9  -5  22 -422.89 1870.80   1
  -9  -5  22 2709.73 3826.48   1
 -22  -5   9 4688.56 1146.51   1
  -5  -9  22  677.65 4055.78   1
  -5  -9  22 1762.76 1961.19   1
 -22   9   5 8862.30 3144.08   1
  22  -9   5 6950.71 1533.46   1
  22   9  -5 6035.71 1365.89   1
   9   5 -22 -1821.2 4028.22   1
   9   5 -22 -859.44 3458.27   1
 -22   5   9 3608.20 2474.92   1
 -22   5   9  719.88 1452.98   1
  22   5  -9 6790.87 1591.88   1
   5   9 -22 -5321.3 3870.57   1
   5   9 -22 -980.71 3101.09   1
  22  -9  -7 -404.03 1239.11   1
  22  -9  -7 -558.81 1650.31   1
 -22  -9   7  690.33 336.897   1
  -9  -7  22 -1122.3 1932.53   1
  -9  -7  22 -3148.5 2580.75   1
  -7  -9  22 -493.99 1843.23   1
  -7  -9  22 -2151.9 2492.56   1
 -22   9   7 -908.94 1631.57   1
  22   9  -7  493.11 323.117   1
   9   7 -22  -40.28 2459.48   1
   9   7 -22 -3112.1 3072.43   1
  22   7  -9 -180.69 350.678   1
   7   9 -22 -2376.8 2831.00   1
  22  -9  -9  310.33 1631.57   1
 -22  -9   9  383.09 315.841   1
  -9  -9  22 -3405.4 2516.81   1
  -9  -9  22 -282.77 2124.35   1
 -22   9   9 -487.82 1526.84   1
 -22   9   9  429.06 1661.34   1
  22   9  -9   63.55 363.796   1
   9   9 -22  451.22 2741.70   1
   9   9 -22  400.07 2283.10   1
 -22  10   0  692.76 550.545   1
 -22   0  10   -4.33 527.394   1
   0 -10  22 1297.54 1826.70   1
   0 -10  22 -1795.8 3594.97   1
   0  10 -22 2332.71 3731.67   1
   0  10 -22 -2917.0 2693.20   1
 -22  10  -2 -233.49 288.502   1
 -10  -2  22 1243.52 2625.95   1
  22  -2 -10 -1722.0 1988.75   1
  22  -2 -10 -221.14 649.652   1
 -22  -2  10  208.69 480.983   1
 -22  10   2 -520.45 1462.90   1
 -22  10   2 2352.55 1562.12   1
  10   2 -22 -365.56 3016.20   1
   2 -10  22 1355.97 2394.44   1
   2  10 -22 -1212.7 2434.13   1
 -22  10  -4 4300.51 981.478   1
 -22 -10   4 2035.05 534.340   1
 -10  -4  22 -2571.9 2266.56   1
 -10  -4  22 -401.94 3002.97   1
  22  -4 -10  805.09 1521.33   1
  -4  10 -22 1311.87 1744.02   1
 -22  -4  10 2948.96 796.383   1
  -4 -10  22 -1376.9 2069.23   1
  -4 -10  22 -5772.2 3362.36   1
 -22  10   4 1116.74 1954.58   1
 -22  10   4 5329.07 2988.64   1
  22 -10   4 2768.16 641.494   1
  10   4 -22 -1855.4 3664.42   1
  10   4 -22   19.92 3478.11   1
   4  10 -22  643.81 2788.00   1
   4  10 -22 -3279.7 2435.23   1
  22 -10  -6  423.55 1551.10   1
 -22  10  -6 1061.95 292.139   1
 -22 -10   6 1484.95 433.910   1
  -6 -22  10   65.69 252.894   1
 -10  -6  22 1297.54 1871.90   1
 -10  -6  22  144.64 2677.76   1
  22  -6 -10  855.80 1509.20   1
 -22  -6  10  313.31 454.966   1
  -6 -10  22  376.25 1888.43   1
 -22  10   6  509.76 1549.99   1
  22 -10   6 1878.51 438.209   1
  22  10  -6  507.99 317.385   1
  10   6 -22 -224.67 2527.83   1
  10   6 -22 -528.94 2501.38   1
  22   6 -10 1311.87 616.249   1
   6  10 -22 -946.31 1951.27   1
  22 -10  -8 -441.74 1501.49   1
  22 -10  -8 -359.28 1558.81   1
 -22 -10   8  346.82 280.344   1
  -8 -22  10   43.41 224.782   1
  -8 -10  22 1090.07 1997.57   1
  -8 -10  22  447.25 2270.97   1
 -22  10   8 1787.01 1769.37   1
  22  10  -8  211.11 288.943   1
  10   8 -22  418.04 2173.96   1
  10   8 -22 -3473.7 3030.53   1
  22   8 -10   26.66 433.359   1
   8  10 -22 -2558.7 3007.38   1
   8  10 -22  521.77 2215.85   1
 -22 -10  10  452.43 332.929   1
 -10 -22  10 -204.61 255.870   1
 -10 -10  22 -1266.7 2020.72   1
 -10 -10  22  858.23 2317.27   1
 -22  10  10 1060.30 2051.59   1
  22  10 -10  735.53 351.560   1
  22 -11  -1 2111.12 1464.00   1
  22 -11  -1 -2164.0 1338.33   1
  -1 -22  11 -169.11 215.632   1
 -11  -1  22 1028.55 2081.36   1
  -1  11 -22 5450.33 4396.42   1
  -1  11 -22  212.88 1735.20   1
 -22  -1  11 -150.48 588.909   1
  -1 -11  22  331.83 2610.51   1
 -22  11   1  384.19 1327.31   1
   1 -22  11   66.41 198.104   1
   1  22 -11  105.78 204.939   1
  11   1 -22 -1132.2 2123.25   1
   1 -11  22 1632.67 1742.92   1
   1 -11  22 -398.74 2221.36   1
   1  11 -22 1653.62 3277.47   1
   1  11 -22  281.67 1895.05   1
  22 -11  -3 -156.87 1104.62   1
  22 -11  -3 -199.65 1341.64   1
 -22  11  -3  847.31 377.797   1
  -3 -22  11  455.74 253.665   1
 -11  -3  22   39.58 1850.95   1
 -11  -3  22 1244.62 2709.73   1
  22  -3 -11  473.05 1308.56   1
 -22  -3  11 1113.44 547.238   1
  -3 -11  22  306.47 1798.04   1
  -3 -11  22  202.18 2415.39   1
 -22  11   3  406.13 1319.59   1
   3 -22  11  361.37 199.427   1
   3  22 -11  405.03 238.011   1
  11   3 -22 1271.08 3355.75   1
  11   3 -22  728.03 2789.11   1
   3  11 -22  639.95 3404.25   1
  22 -11  -5 -613.82 1499.28   1
  22 -11  -5 -588.91 1392.35   1
 -22  11  -5 3386.61 785.469   1
 -22 -11   5 1318.49 391.026   1
  -5 -22  11 1728.58 458.383   1
  22  -5 -11 1638.19 1772.68   1
  22  -5 -11  840.48 1718.66   1
 -22  -5  11 2384.52 698.158   1
  -5 -11  22 1379.12 2181.68   1
 -22  11   5 2751.62 1914.89   1
 -22  11   5   28.60 1510.31   1
  22 -11   5 2872.89 650.314   1
   5 -22  11 2280.89 533.127   1
  22  11  -5 1911.58 530.591   1
   5  22 -11 1861.98 475.581   1
  11   5 -22 -565.10 2957.77   1
  11   5 -22 -3093.4 2627.05   1
   5  11 -22 -382.32 2662.33   1
   5  11 -22 -2241.2 1870.80   1
 -22  11  -7  312.86 158.307   1
 -22 -11   7  770.70 319.810   1
  -7 -22  11 1122.26 354.867   1
 -11  -7  22 1018.85 1934.74   1
 -11  -7  22 -246.83 2568.62   1
  22  -7 -11 1717.56 1715.35   1
  22  -7 -11  837.94 1702.13   1
 -22  -7  11 2997.46 827.471   1
  -7 -11  22 -542.39 2005.29   1
  -7 -11  22 -3807.7 2707.53   1
 -22  11   7 -943.56 1264.47   1
  22  11  -7    4.47 286.627   1
   7  22 -11  523.76 272.627   1
  22   7 -11 1190.61 619.446   1
   7  11 -22 -1027.3 2824.38   1
  22 -11  -9  710.62 1714.25   1
 -22 -11   9 -249.48 297.982   1
  -9 -22  11  301.95 273.509   1
 -11  -9  22 1038.36 1989.86   1
 -11  -9  22 1338.33 2445.15   1
  22  -9 -11 -1207.1 1730.79   1
  22  -9 -11 -1083.6 2326.09   1
 -22  -9  11  345.28 394.554   1
 -22  11   9 2107.81 2286.40   1
  22  11  -9 -180.24 303.825   1
   9  22 -11   17.84 265.902   1
  11   9 -22 2456.18 2991.95   1
   9  11 -22 -2113.3 2219.16   1
 -22 -11  11 3770.25 907.727   1
 -11 -22  11 2711.94 675.669   1
 -11 -11  22  718.00 2207.03   1
  22  11 -11 2706.42 699.371   1
  11  22 -11 2988.64 732.113   1
  11  11 -22 -1041.3 1676.77   1
 -22  12   0 2247.82 1857.57   1
  22 -12   0 2962.18 1772.68   1
 -22   0  12 3874.98 2639.18   1
   0 -12  22 -4292.8 2803.44   1
   0  12 -22 -1417.7 3478.11   1
  22 -12  -2 -693.86 1174.07   1
  22 -12  -2 -1893.9 1348.25   1
  -2  22 -12 2199.31 535.883   1
  -2 -12  22 -1553.3 1922.61   1
 -22  12   2 -2872.9 1497.08   1
  22 -12   2 1134.38 563.884   1
   2  22 -12 1053.25 351.890   1
  12   2 -22 -9261.4 5643.25   1
  12   2 -22 -1429.8 2396.65   1
 -22   2  12 -1032.2 1150.92   1
   2 -12  22 -406.13 1675.67   1
   2 -12  22  927.13 1565.43   1
  22   2 -12 1236.91 690.331   1
   2  12 -22  444.16 1796.93   1
  22 -12  -4 -159.19 1300.85   1
  22 -12  -4 -1147.6 1376.91   1
 -22  12  -4   76.17 336.016   1
  -4  22 -12  139.57 194.135   1
 -22 -12   4 -355.75 282.438   1
  -4 -22  12  231.62 210.230   1
  22  -4 -12 4127.44 2620.44   1
  22  -4 -12 -147.83 1789.22   1
 -22  -4  12    6.00 471.502   1
  -4 -12  22 1002.20 2101.20   1
  -4 -12  22 2313.97 2110.02   1
 -22  12   4  145.30 1419.91   1
 -22   4  12 2517.91 2075.84   1
 -22   4  12 -420.68 1578.66   1
   4  12 -22 -1346.0 3348.03   1
   4  12 -22 -861.98 1685.59   1
  22 -12  -6  949.62 1315.18   1
 -22  12  -6  173.08 183.001   1
  -6  22 -12  112.89 193.474   1
  -6 -22  12  237.90 223.239   1
 -12  -6  22 -961.30 2031.75   1
 -12  -6  22 1070.66 2522.32   1
  22  -6 -12  716.02 1595.19   1
  22  -6 -12 1274.39 2063.72   1
  -6  12 -22 1597.40 1590.78   1
 -22  -6  12  392.90 474.038   1
  -6 -12  22 -2196.0 1920.40   1
  -6 -12  22 1993.16 2211.44   1
 -22  12   6  563.11 1502.59   1
  22 -12   6  326.31 154.669   1
  22  12  -6  191.93 274.391   1
  12   6 -22 4787.78 3609.30   1
 -22   6  12  377.36 1680.08   1
 -22   6  12 -2450.7 2139.78   1
   6 -12  22  -90.74 1436.44   1
  -8  22 -12  635.87 234.594   1
  -8 -22  12  309.67 248.594   1
 -12  -8  22 -2317.3 2209.24   1
 -12  -8  22 2059.31 3354.64   1
  22  -8 -12  592.77 1790.32   1
  22  -8 -12 -2430.8 2928.01   1
 -22  -8  12  162.50 516.150   1
  -8 -12  22  399.62 1950.17   1
  22  12  -8   31.41 279.352   1
  12   8 -22  896.92 3482.52   1
  12   8 -22 -143.64 2831.00   1
 -22   8  12 -272.74 3087.86   1
 -22   8  12 -1389.0 1750.63   1
  22   8 -12  178.92 594.311   1
   8  12 -22 -2771.5 1984.34   1
 -10  22 -12 5505.45 1226.99   1
 -22 -12  10 5508.76 1255.65   1
 -10 -22  12 3289.60 783.154   1
 -12 -10  22 6316.83 2860.76   1
  22 -10 -12 6185.64 3211.33   1
 -22 -10  12 5423.87 1278.80   1
 -12 -22  10 5029.21 1169.66   1
 -10 -12  22 -3694.2 1877.41   1
  10 -22  12 4640.06 1051.26   1
  22  12 -10 5713.81 1303.05   1
  12  10 -22 5153.78 3040.46   1
 -22  10  12  260.83 3561.90   1
  12  22 -10 3768.05 890.970   1
  10  12 -22 1450.78 3280.78   1
  10  12 -22 6116.19 1971.11   1
 -12  22 -12  -79.73 163.708   1
 -22 -12  12  -61.75 349.796   1
 -12 -22  12   50.17 277.257   1
  12 -22  12  183.77 211.553   1
  22  12 -12 -155.22 343.512   1
  12  12 -22 -619.78 937.823   1
  22 -13  -1 3392.13 2316.17   1
 -22  13  -1  26700.  13163.   1
  -1 -22  13  30614. 6718.11   1
  -1  13 -22  22258.  11520.   1
 -22  -1  13  22919. 5117.40   1
 -22  -1  13  18476. 9239.33   1
 -22  13   1 9204.05 4773.45   1
  22 -13   1  13879. 6922.05   1
   1 -22  13  26557. 5828.46   1
   1  22 -13  24992. 5485.61   1
  13   1 -22  15434. 4369.97   1
 -22   1  13  22324. 5141.65   1
   1 -13  22  14409. 7344.28   1
   1 -13  22  31044. 7240.65   1
  22   1 -13  18146. 4127.44   1
   1  13 -22 3873.88 4031.52   1
  22 -13  -3    8.93 1174.07   1
 -22  13  -3 -214.20 965.604   1
  -3  22 -13    6.45 203.395   1
  -3 -22  13  138.68 224.010   1
 -13  -3  22 3954.36 2605.00   1
 -13  -3  22  526.73 2375.70   1
  -3  13 -22  183.88 1516.92   1
  -3 -13  22  160.51 1801.34   1
  -3 -13  22 1602.91 1960.09   1
 -22  13   3  798.04 1325.10   1
   3 -22  13 -113.44 194.466   1
   3  22 -13  125.79 212.986   1
 -22   3  13 2567.52 2172.86   1
 -22   3  13 -871.02 1594.09   1
  22   3 -13  280.89 647.668   1
   3  13 -22 -2174.0 3624.73   1
   3  13 -22 -2369.1 1706.54   1
 -22  13  -5  216.29 345.607   1
  -5  22 -13  174.84 189.615   1
 -22 -13   5   33.19 261.603   1
  -5 -22  13 -218.17 222.908   1
 -13  -5  22   65.88 1863.08   1
 -13  -5  22 -554.40 2993.05   1
  22  -5 -13  419.03 1677.87   1
  22  -5 -13 1066.36 2381.21   1
  -5  13 -22 1562.12 2914.78   1
 -22  -5  13  506.12 509.535   1
   5 -22  13  120.71 197.552   1
  22  13  -5  179.36 259.508   1
   5  22 -13  187.63 217.616   1
  13   5 -22 2558.70 3020.61   1
  13   5 -22 -1314.1 2911.47   1
 -22   5  13 -372.51 2379.01   1
 -22   5  13 -962.63 1675.67   1
   5 -13  22  170.10 1540.07   1
   5 -13  22 -1379.1 1998.68   1
   5  13 -22  259.95 1573.14   1
 -22  13  -7  349.80 162.606   1
  -7  22 -13 1159.74 319.259   1
 -22 -13   7 -374.71 280.123   1
  -7 -22  13  411.75 260.831   1
 -13  -7  22 2892.73 2387.83   1
 -13  -7  22 3451.66 3705.21   1
  22  -7 -13 1572.04 3424.10   1
 -22  -7  13 1611.73 612.060   1
  -7 -13  22 -1059.5 1824.49   1
  22 -13   7  386.07 142.432   1
   7  22 -13 1149.82 356.520   1
  13   7 -22 3273.06 3103.29   1
  13   7 -22 -529.82 3917.98   1
 -22   7  13 -1579.8 3325.98   1
 -22   7  13 -961.41 1606.22   1
   7 -13  22  209.46 2075.84   1
   7  13 -22  459.60 1191.71   1
  -9  22 -13  33061. 7249.47   1
 -22 -13   9  29589. 6503.14   1
  -9 -22  13  29809. 6548.33   1
   9 -22  13  39092. 8573.47   1
   9  22 -13  32488. 7132.61   1
  22   9 -13  51516.  11322.   1
 -11  22 -13 1002.20 285.856   1
 -11 -22  13  637.64 335.795   1
 -13 -11  22  966.60 1641.49   1
 -13 -11  22  394.33 1014.11   1
 -22 -11  13  586.48 451.548   1
 -13 -22  11  349.02 319.590   1
 -11 -13  22 -148.61 866.276   1
  11 -22  13  760.22 299.636   1
  22  13 -11  149.05 304.927   1
  11  22 -13 1755.04 487.487   1
  13  22 -11  224.67 322.015   1
  11  13 -22 -1762.8 3082.35   1
  11  13 -22 -863.30 931.429   1
 -13  22 -13    6.29 163.378   1
 -22 -13  13  453.20 370.301   1
 -13 -22  13  376.36 323.779   1
 -13 -13  22 -107.95 774.004   1
  13 -22  13  304.38 216.624   1
  22  13 -13  324.88 359.938   1
  13  22 -13 -147.28 289.053   1
  13  13 -22   -5.74 820.195   1
 -22  14   0 5114.09 1836.62   1
 -14   0  22 4913.46 2616.03   1
  22 -14   0 8338.65 2492.56   1
   0 -14  22 151582.  74391.   1
  22   0 -14 149377.  73388.   1
   0  14 -22  73983.  36556.   1
   0  14 -22  19061. 4881.49   1
  14  -2 -22 3893.72 3086.76   1
 -22  14  -2  -21.54 1203.84   1
  -2 -22  14  -90.67 228.971   1
 -14  -2  22  359.28 1867.49   1
 -14  -2  22 4552.97 3246.61   1
  22  -2 -14   -7.44 2080.25   1
 -22  -2  14 2041.67 1906.07   1
 -22  -2  14  -15.33 708.521   1
  -2 -14  22 -191.82 2107.81   1
  -2 -14  22 -1120.1 1902.77   1
  22 -14   2  617.24 925.586   1
  22 -14   2 -2545.5 1522.43   1
   2 -22  14   34.19 203.285   1
  14   2 -22 -1236.9 3269.76   1
  14   2 -22  726.93 3558.59   1
 -22   2  14 -1313.0 1933.63   1
 -22   2  14 -317.61 1893.95   1
   2 -14  22 -588.36 1723.07   1
  22   2 -14 -505.79 844.779   1
 -22  14  -4 -392.35  999.89   1
  -4  22 -14  130.64 233.932   1
  -4 -22  14 -339.98 222.467   1
 -14  -4  22 -1570.9 1954.58   1
 -14  -4  22 2702.01 4320.36   1
  -4 -14  22  724.06 1660.23   1
   4 -22  14  102.97 189.174   1
  14   4 -22  425.97 2775.88   1
  14   4 -22  313.31 3651.19   1
 -22   4  14  842.24 1827.80   1
 -22   4  14 -3028.3 3232.28   1
   4 -14  22 -875.54 2367.98   1
  22   4 -14 -197.99 699.481   1
   4  14 -22 -145.74 1498.18   1
 -22  14  -6 -178.59 338.220   1
  -6  22 -14  327.86 208.356   1
 -22 -14   6 -190.28 283.320   1
  -6 -22  14  -82.87 226.105   1
  -6  14 -22 9182.00 5185.75   1
 -22  -6  14 -191.16 561.569   1
  -6 -14  22 -711.72 1214.86   1
   6 -22  14  672.69 241.869   1
  22  14  -6   34.42 272.296   1
  14   6 -22 -130.19 2585.16   1
  14   6 -22 -113.55 3701.90   1
 -22   6  14 2516.81 3665.52   1
   6 -14  22 -2412.1 1783.70   1
   6 -14  22 2773.67 3014.00   1
 -22  14  -8  14431. 3165.03   1
  -8  22 -14  13394. 2947.85   1
  -8 -22  14 9485.16 2115.53   1
 -14  -8  22 1011.91 2022.93   1
 -14  -8  22 2043.87 2788.00   1
 -22  -8  14 9385.95 2155.22   1
  22 -14   8  10841. 2379.01   1
   8  22 -14  12788. 2838.71   1
 -22 -14  10 3206.92 789.438   1
 -14 -10  22   28.61 1172.97   1
  22 -10 -14 -877.74 1540.07   1
 -10  14 -22  420.13 1279.90   1
 -14 -22  10 2300.74 628.045   1
 -10 -14  22 -806.08 1573.14   1
 -10 -14  22   89.35 851.835   1
  10 -22  14 4145.07 954.359   1
  10  22 -14 2392.24 634.880   1
  14  10 -22  782.60 2745.01   1
  14  10 -22  443.83 1046.52   1
  22  10 -14 2857.45 854.370   1
  14  22 -10 2361.37 608.532   1
 -12  22 -14   57.27 183.772   1
 -14 -12  22 2345.94 2129.86   1
 -14 -12  22 -149.71 758.460   1
 -22 -12  14 -763.42 458.604   1
 -14 -22  12 -214.86 295.998   1
 -12 -14  22  123.91 772.902   1
  12 -22  14    4.15 226.766   1
  22  14 -12  132.29 299.636   1
  12  22 -14   54.70 286.186   1
  14  12 -22 -662.66 834.196   1
  14 -22  12   71.46 185.426   1
  22  12 -14  302.28 446.257   1
  12  14 -22 -1056.9 824.274   1
 -14  22 -14  553.19 230.845   1
 -22 -14  14  -45.85 359.828   1
 -14 -14  22   19.58 642.486   1
  14 -22  14  114.43 196.450   1
  22  14 -14 -210.67 363.025   1
  14  22 -14  788.56 341.528   1
  14  14 -22  599.05 872.229   1
  15  -1 -22 -379.67 2913.68   1
  -1 -22  15  110.35 260.941   1
 -15  -1  22 -2059.3 2001.98   1
 -15  -1  22 -184.32 3849.63   1
  -1  15 -22 -1882.9 3474.81   1
  -1  15 -22 1033.51 2385.62   1
 -22  -1  15 -2267.7 1274.39   1
 -15   1  22 -1062.5 2829.89   1
   1  22 -15  300.41 236.578   1
  15   1 -22 -5647.7 4420.68   1
  15   1 -22   76.47 4200.19   1
 -22   1  15  402.71 1849.85   1
 -22   1  15 4407.45 2794.62   1
   1 -15  22 -268.99 2670.04   1
   1 -15  22 -992.72 1821.19   1
  22   1 -15 -1779.3 1192.81   1
   1  15 -22 -722.63 1476.13   1
 -22  15  -3 1115.64 1526.84   1
  -3  22 -15  218.61 232.609   1
  -3 -22  15  122.15 213.868   1
 -15  -3  22  625.84 4256.42   1
  22  -3 -15 1418.81 2254.43   1
  -3  15 -22 5996.03 3349.13   1
 -22  -3  15 3397.64 2705.32   1
 -22  -3  15  512.84 731.341   1
  -3 -15  22 2057.10 1590.78   1
  22 -15   3  902.44 1082.90   1
  22 -15   3 -1671.3 1990.96   1
   3  22 -15  459.71 254.657   1
  15   3 -22 -2305.1 2885.02   1
  15   3 -22 -830.89 4426.19   1
 -22   3  15 -1561.0 2156.32   1
   3 -15  22 -3251.0 2331.60   1
  22   3 -15  634.33 900.341   1
   3  15 -22 1310.77 1198.32   1
 -22  15  -5 -1403.4 1096.79   1
  -5  22 -15  423.00 257.744   1
  -5 -22  15  -85.81 231.727   1
 -15  -5  22  -83.44 1887.33   1
  -5  15 -22 -637.19 2538.86   1
  -5  15 -22 7791.86 3991.84   1
  -5 -15  22  319.37 931.760   1
  22 -15   5  168.45 703.450   1
   5 -22  15  -90.99 177.709   1
   5  22 -15    2.17 228.089   1
  15   5 -22 1371.40 3733.87   1
   5 -15  22 2528.94 3170.54   1
   5 -15  22 -250.03 1364.79   1
  22   5 -15   31.78 715.356   1
 -22  15  -7 -115.42 315.290   1
 -22 -15   7  -58.77 270.312   1
  -7 -22  15  833.20 320.582   1
 -15  -7  22 -708.96 1858.67   1
 -15  -7  22  263.26 2039.46   1
  22  -7 -15 -3327.1 2451.77   1
  22  -7 -15 -375.04 2639.18   1
 -22  -7  15   78.73 541.175   1
  -7 -15  22  462.68 827.692   1
   7 -22  15  595.19 269.871   1
  22  15  -7  651.53 332.378   1
   7  22 -15 1228.09 380.773   1
  15   7 -22 2879.50 2920.29   1
 -22   7  15 1067.91 1784.81   1
   7 -15  22 -478.12 1276.59   1
   7  15 -22 1063.61 3305.03   1
   7  15 -22 -207.69 806.525   1
  -9  22 -15 2499.17 599.823   1
 -22 -15   9 1241.32 414.397   1
  -9 -22  15 1893.95 511.961   1
 -15  -9  22  220.59 1294.23   1
  22  -9 -15  414.95 1181.79   1
  -9  15 -22  488.37 1402.27   1
 -22  -9  15 1493.77 567.963   1
  -9 -15  22   11.15 767.941   1
   9 -22  15 2953.36 697.497   1
  22  15  -9 1116.74 388.049   1
   9  22 -15 1849.85 515.709   1
  15   9 -22 -1350.5 1115.64   1
 -22   9  15 -1303.1 1469.52   1
   9  15 -22   56.00 775.327   1
 -11  22 -15  411.64 221.916   1
 -22 -15  11   -4.07 290.706   1
 -11 -22  15  299.19 339.764   1
 -11  15 -22 1386.84 993.274   1
 -15 -22  11  816.45 354.316   1
 -11 -15  22 -122.81 687.465   1
  11 -22  15  629.04 333.039   1
  22  15 -11   59.38 289.053   1
  11  22 -15  710.28 346.709   1
  15  11 -22 3919.08 3475.91   1
  15  11 -22  372.51 811.266   1
  22  11 -15 -161.61 526.953   1
  15  22 -11  403.04 314.629   1
 -13  22 -15   78.33 235.586   1
 -22 -15  13  110.68 325.212   1
 -13 -22  15  697.28 383.309   1
 -15 -13  22  251.57 656.487   1
 -15  22 -13  286.85 175.173   1
 -22 -13  15 -345.94 429.500   1
 -15 -22  13  135.60 337.008   1
  13 -22  15  464.12 311.211   1
  13  22 -15  -57.91 317.385   1
  15 -22  13  137.80 179.804   1
  22  13 -15  350.02 417.815   1
  15  22 -13  309.45 305.920   1
  13  15 -22 -546.03 769.264   1
 -15  22 -15  629.37 318.487   1
 -15 -22  15  311.98 430.713   1
 -15 -15  22 -1014.0 577.775   1
  15 -22  15  403.37 309.227   1
  22  15 -15  334.14 402.271   1
  15  22 -15 -274.50 351.780   1
  15  15 -22 -273.40 571.601   1
 -16   0  22 1483.85 1836.62   1
 -16   0  22 -581.30 3728.36   1
   0 -22  16  657.70 288.832   1
   0  22 -16  483.85 244.625   1
  16   0 -22 -5456.9 4232.16   1
  16   0 -22 -2164.0 3851.83   1
 -22   0  16  742.92 1759.45   1
   0 -16  22 1097.78 1610.63   1
   0  16 -22 -686.80 1232.50   1
  16  -2 -22 -580.31 2602.80   1
  -2  22 -16  163.82 248.484   1
  -2 -22  16  462.68 255.319   1
  22  -2 -16 -2160.7 2304.04   1
  22  -2 -16 1682.28 3257.63   1
 -22  -2  16 -1630.5 1696.61   1
 -22  -2  16  865.50 912.578   1
  -2 -16  22 -918.31 1042.77   1
 -16   2  22 -1295.3 2617.13   1
   2 -22  16  487.27 252.894   1
  16   2 -22 -3302.8 3387.72   1
  16   2 -22 -1450.8 3704.11   1
   2 -16  22 -903.65 1620.55   1
   2 -16  22 1381.32 2116.63   1
  -4  22 -16 1766.07 466.100   1
  -4 -22  16 1599.60 433.910   1
 -16  -4  22 1944.66 2173.96   1
 -16  -4  22 5221.03 3119.83   1
  22  -4 -16 -1720.9 2105.61   1
  22  -4 -16 -2556.5 3383.31   1
 -22  -4  16  153.57 731.451   1
   4 -22  16  915.77 323.558   1
 -22   4  16 1538.97 1726.38   1
 -22   4  16 4945.43 3159.52   1
   4 -16  22 5799.80 2609.41   1
  22   4 -16   -4.47 845.220   1
   4  16 -22 -7401.6 4737.07   1
   4  16 -22 4905.74 1473.93   1
 -22  16  -6 -949.40 862.638   1
 -22  16  -6 -495.20 568.184   1
  -6  22 -16 1137.69 358.395   1
 -22 -16   6  488.26 270.753   1
  -6 -22  16  957.00 357.402   1
 -16  -6  22 -421.89 1730.79   1
 -16  -6  22 -933.30 1825.60   1
  -6  16 -22 2132.07 2513.50   1
  -6 -16  22   53.28 677.433   1
  -6 -16  22 -1177.4 1779.29   1
  22 -16   6  480.32 704.773   1
  22 -16   6 -572.48 602.359   1
   6  22 -16  784.04 334.582   1
  16   6 -22  -28.28 1899.46   1
  16   6 -22 3863.96 3252.12   1
 -22   6  16  377.36 1750.63   1
 -22   6  16 -438.43 1521.33   1
   6 -16  22 -2904.9 2029.54   1
   6 -16  22 -1275.5 1300.85   1
  22   6 -16 -163.93 655.605   1
   6  16 -22 -141.77 878.844   1
  -8  22 -16  439.31 306.691   1
 -16  -8  22 -789.22 1241.32   1
  22  -8 -16 -748.43 1218.17   1
  -8  16 -22 -244.96 1166.35   1
 -22  -8  16  -75.39 510.197   1
  -8 -16  22 -555.29 709.182   1
  22  16  -8  -72.15 281.887   1
   8  22 -16  879.95 329.842   1
  16   8 -22 -184.21 1484.95   1
 -22   8  16  -55.98 1331.72   1
 -22 -16  10    2.72 285.745   1
 -16 -10  22 -1519.1 717.891   1
 -10  16 -22 -1223.7 2186.09   1
 -22 -10  16  319.81 449.785   1
 -16 -22  10  -53.65 324.661   1
  10 -22  16  314.74 347.922   1
  22  16 -10  463.56 311.983   1
  10  22 -16   31.19 304.597   1
  10 -16  22  321.79 833.314   1
  22  10 -16 -255.10 499.724   1
  16  22 -10  105.85 294.014   1
  10  16 -22  343.29 690.111   1
 -12  22 -16  302.17 320.912   1
 -22 -16  12  875.21 373.498   1
 -12 -22  16  349.46 385.293   1
 -16 -12  22 -921.84 677.212   1
 -16 -22  12  307.02 331.385   1
 -12 -16  22 -993.72 737.955   1
  22  16 -12  234.37 323.338   1
  12  22 -16  967.92 394.113   1
  16  12 -22 -359.06 793.958   1
  16 -22  12  607.54 212.986   1
  22  12 -16  337.56 549.553   1
  12  16 -22 -491.24 787.013   1
 -14  22 -16   96.40 359.056   1
 -22 -16  14  446.70 391.136   1
 -14 -22  16  789.22 445.595   1
 -16 -14  22 -468.31 590.342   1
 -16  22 -14 1002.53 311.211   1
 -22 -14  16  641.49 464.006   1
 -14 -16  22 -1040.3 594.421   1
  14 -22  16  -46.97 310.770   1
  14  22 -16  621.54 412.303   1
  16  14 -22 -485.17 569.396   1
  16 -22  14  298.31 225.333   1
  22  14 -16  422.67 465.329   1
  16  22 -14  410.76 351.229   1
  14  16 -22  228.31 584.830   1
  17  -1 -22  715.47 2651.30   1
  17  -1 -22  253.78 1945.76   1
  -1 -22  17 -406.46 341.969   1
 -17  -1  22  251.57 1824.49   1
  22  -1 -17 -5042.4 3210.23   1
  22  -1 -17  643.59 1834.42   1
  -1  17 -22  673.79 840.480   1
   1  22 -17  221.81 265.020   1
 -22   1  17  558.70 1598.50   1
 -22   1  17  460.70 1576.45   1
   1 -17  22 -428.73 929.996   1
  22   1 -17 1026.02 2116.63   1
  22   1 -17 -1137.7 1537.87   1
   1  17 -22 -275.93 757.137   1
  17  -3 -22  725.83 1486.05   1
  -3 -22  17  932.09 364.348   1
 -17  -3  22 -2272.1 2078.05   1
 -17  -3  22 1719.76 1831.11   1
  22  -3 -17 -4048.1 2810.05   1
  22  -3 -17 -2618.2 2007.49   1
 -22  -3  17 1511.41 1899.46   1
 -22  -3  17  359.72 722.852   1
  -3 -17  22 -829.35 683.055   1
  -3 -17  22  106.21 1994.27   1
 -17   3  22 -1403.4 1530.15   1
   3 -22  17  753.72 349.685   1
   3  22 -17  924.81 349.355   1
  17   3 -22 -2052.7 2564.21   1
  17   3 -22 -1073.2 1887.33   1
 -22   3  17 -876.42 1841.03   1
 -22   3  17  198.21 1779.29   1
   3 -17  22 -2527.8 1976.63   1
   3  17 -22  569.51 794.840   1
 -17  -5  22 -1004.8 1844.34   1
 -17  -5  22 2728.47 1665.75   1
  22  -5 -17  132.07 1720.87   1
  -5  17 -22 3840.81 3115.42   1
  -5  17 -22 1163.05 1427.62   1
 -22  -5  17  735.75 704.773   1
  -5 -17  22 1514.72 763.531   1
   5 -22  17 4291.69 1015.54   1
  17   5 -22 1655.82 2544.37   1
  17   5 -22 -200.97 1868.59   1
 -22   5  17  252.23 1570.94   1
 -22   5  17 2011.90 1864.18   1
   5 -17  22  359.17 1394.55   1
   5 -17  22  111.45 1281.00   1
  22   5 -17  329.29 778.083   1
   5  17 -22  887.66 845.771   1
  -7  22 -17 -114.87 331.055   1
 -22 -17   7  173.52 286.076   1
  -7 -22  17  457.39 304.266   1
  -7  17 -22 -199.32 1204.94   1
  22 -17   7 -918.64 678.756   1
   7 -22  17  113.99 388.049   1
  22  17  -7  274.28 260.941   1
   7  22 -17  476.90 295.336   1
  17   7 -22   26.90 1418.81   1
 -22   7  17 -520.89 1176.27   1
   7 -17  22 -3815.5 2276.48   1
  22   7 -17   74.51 609.965   1
   7  17 -22 -452.32 630.250   1
  -9  22 -17  564.10 368.426   1
 -22 -17   9   81.37 247.161   1
  -9 -22  17  455.63 337.779   1
 -17  -9  22 -617.79 1620.55   1
 -17  -9  22 -118.95 639.510   1
  -9  17 -22 -4437.2 2993.05   1
  -9  17 -22 -947.08 670.047   1
 -22  -9  17  -80.44 495.424   1
  -9 -17  22  463.79 622.643   1
   9  22 -17 -320.80 288.612   1
   9 -17  22  196.12 554.624   1
   9  17 -22 -362.58 688.457   1
 -11 -22  17  698.93 418.256   1
 -17 -11  22 -293.57 1685.59   1
 -17 -11  22  217.29 590.673   1
 -11  17 -22 -3169.4 2702.01   1
 -22 -11  17 -294.01 454.635   1
 -17 -22  11  617.13 350.678   1
 -11 -17  22 -668.28 705.103   1
  11 -22  17 -286.63 377.025   1
  22  17 -11 -403.37 316.062   1
  17  11 -22 -128.43 738.507   1
  22  11 -17 -412.74 550.214   1
  17  22 -11  264.69 310.219   1
  11  17 -22  264.58 722.081   1
 -18   0  22 -2759.3 2068.13   1
 -18   0  22  465.77 1480.54   1
   0 -22  18   45.00 361.812   1
   0  22 -18  436.34 328.960   1
 -22   0  18  304.27 1631.57   1
 -22   0  18 1183.99 1307.46   1
   0 -18  22 1107.93 698.379   1
  22   0 -18 -1459.6 2255.54   1
  22   0 -18   18.11 1542.28   1
   0  18 -22 -2516.8 2902.65   1
   0  18 -22 -915.33 721.309   1
  18  -2 -22 1133.28 1407.78   1
  -2 -22  18  609.63 390.034   1
 -18  -2  22 -4604.8 2844.23   1
 -18  -2  22  446.70 1595.19   1
  22  -2 -18 -1558.8 2222.46   1
  -2 -18  22 -368.10 674.236   1
   2 -22  18  583.95 381.435   1
  18   2 -22 -115.20 2255.54   1
  18   2 -22  310.99 1567.63   1
 -22   2  18  386.62 1423.22   1
 -22   2  18 -1403.4 1889.54   1
   2 -18  22 -276.26 638.518   1
  22   2 -18 -531.14 1292.03   1
   2  18 -22   80.15 738.617   1
  18  -4 -22 3376.69 1627.16   1
  -4  18 -22 7269.31 1931.43   1
 -18   4  22 2857.45 1546.69   1
  18   4 -22  212.32 2390.03   1
  18   4 -22 3808.84 1842.13   1
 -22   4  18 6689.44 2132.07   1
   4 -18  22 8915.21 2251.13   1
 -18  -6  22 1008.93 1879.61   1
 -18  -6  22 -351.56 916.657   1
  22  -6 -18 4969.68 3339.21   1
  22  -6 -18 -238.34 988.975   1
  -6  18 -22  -62.95 895.711   1
 -22  -6  18 -511.41 644.581   1
  -6 -18  22 -456.07 544.813   1
   6  22 -18 2020.72 566.751   1
   6 -18  22 2189.39 1841.03   1
  22   6 -18 -163.27 739.829   1
   6  18 -22 -1150.9 808.069   1
 -22 -18   8  -75.41 280.233   1
  -8 -22  18  189.17 391.246   1
 -18  -8  22  597.95 669.716   1
  -8  18 -22 -797.82 2118.84   1
  -8  18 -22  426.08 603.571   1
 -22  -8  18  422.67 586.925   1
  -8 -18  22 -598.06 592.878   1
  22  18  -8 -224.56 298.533   1
   8  22 -18  419.47 329.842   1
  18   8 -22 -2211.4 2805.64   1
  18   8 -22  257.41 677.653   1
 -22   8  18   49.73 613.493   1
  22   8 -18 -463.34 694.190   1
   8  18 -22   97.77 653.400   1
 -10  22 -18 -632.56 477.124   1
 -22 -18  10  296.00 282.108   1
 -10 -22  18 -208.47 391.467   1
 -18 -10  22  157.31 539.962   1
 -10  18 -22  546.03 2205.93   1
 -22 -10  18 -166.24 483.077   1
 -18 -22  10 -113.33 341.969   1
 -10 -18  22 -243.96 646.676   1
  10 -22  18  -14.36 406.129   1
  22  18 -10 -395.10 294.785   1
  10  22 -18   -8.12 338.000   1
  18  10 -22 1036.38 3126.44   1
  18  10 -22 -358.50 682.614   1
  10 -18  22 -2020.7 1708.74   1
  18  22 -10  -79.96 300.518   1
  19  -1 -22 -3097.8 3093.37   1
  19  -1 -22 -293.68 941.461   1
  -1  22 -19    0.37 376.695   1
  -1 -22  19 -234.48 447.249   1
 -19  -1  22 -1027.6 1747.32   1
 -19  -1  22   83.67 1043.54   1
  -1  19 -22 -810.16 731.451   1
 -22  -1  19  347.59 1717.56   1
 -22  -1  19  411.86 762.098   1
  -1 -19  22  397.86 634.990   1
 -19   1  22 -869.69 1762.76   1
 -19   1  22  368.32 952.705   1
   1  22 -19 -390.36 383.419   1
  19   1 -22  103.10 959.651   1
  19   1 -22  798.37 2446.25   1
 -22   1  19 -561.24 888.986   1
 -22   1  19 1020.50 1846.54   1
   1 -19  22 -398.08 609.524   1
   1 -19  22 1153.12 1546.69   1
  22   1 -19  967.70 2299.63   1
  22   1 -19 -370.63 1011.68   1
  22  -3 -19 -3902.5 2831.00   1
  22  -3 -19  317.16 824.274   1
 -19   3  22 -125.23 648.439   1
  19   3 -22 1134.38 2449.56   1
  19   3 -22  704.11 878.623   1
   3  19 -22 -145.96 738.837   1
  19  -5 -22  255.98 659.794   1
  -5 -22  19 1565.43 558.923   1
 -19  -5  22 6184.54 3672.14   1
 -19  -5  22   97.83 604.563   1
  22  -5 -19 1626.06 2532.24   1
  22  -5 -19  435.45 662.220   1
 -22  -5  19 -173.52 528.056   1
  -5 -19  22 -781.06 600.264   1
   5 -22  19  -84.40 365.009   1
   5  22 -19 1587.47 527.064   1
  19   5 -22  475.69 2413.18   1
 -22   5  19  235.25 632.454   1
 -22   5  19 -837.83 1650.31   1
   5 -19  22 -178.92 539.521   1
  22   5 -19 -816.23 680.740   1
   5  19 -22  571.16 745.231   1
  -7  22 -19  139.57 467.533   1
  -7 -22  19  866.17 433.689   1
 -19  -7  22  211.44 657.038   1
  22  -7 -19   48.73 515.378   1
  -7  19 -22  376.25 608.863   1
 -22  -7  19 -713.70 598.831   1
  -7 -19  22  478.78 555.506   1
   7 -22  19   93.19 428.949   1
  19   7 -22 -117.85 721.640   1
 -22   7  19   61.38 567.963   1
   7 -19  22 -488.37 1492.67   1
  22   7 -19  -13.31 767.721   1
   7  19 -22   23.22 725.388   1
  -9  22 -19 -174.29 459.817   1
 -22 -19   9  121.60 297.762   1
  -9 -22  19   51.39 420.350   1
  -9  19 -22  771.80 2301.84   1
 -22  -9  19  325.76 449.674   1
 -19 -22   9  736.96 339.102   1
  -9 -19  22 -576.78 572.483   1
  22  19  -9  523.32 333.590   1
  19   9 -22  135.38 663.102   1
  19   9 -22   66.83 3023.92   1
   9 -19  22 -907.29 1523.54   1
  22   9 -19  597.73 663.102   1
   9  19 -22 -282.66 523.095   1
  20   0 -22  438.54 2584.06   1
  20   0 -22  298.53 665.527   1
 -22   0  20  778.52 2211.44   1
  22   0 -20 -119.17 689.890   1
   0  20 -22 -373.72 675.118   1
  20  -2 -22 4269.65 3525.52   1
  20  -2 -22  536.54 724.726   1
 -20  -2  22 -2716.3 2359.16   1
 -20  -2  22 1426.52 707.088   1
  22  -2 -20 -3119.8 2850.84   1
  22  -2 -20 -126.12 705.434   1
 -22  -2  20 1032.96 722.191   1
 -22  -2  20  313.53 1911.58   1
  -2 -20  22 -980.05 668.393   1
 -20   2  22 3624.73 2592.88   1
 -20   2  22 1260.06 733.656   1
   2 -22  20  328.96 419.468   1
 -22   2  20 -2017.4 2020.72   1
 -22   2  20  325.54 603.902   1
   2 -20  22  839.05 662.440   1
  22   2 -20 -708.41 2476.02   1
   2  20 -22 1958.99 851.394   1
  -4  22 -20 1975.52 695.071   1
 -20  -4  22 1850.95 2172.86   1
 -20  -4  22  293.57 675.559   1
  22  -4 -20  481.64 2482.63   1
  22  -4 -20  407.34 641.274   1
  -4  20 -22 -719.10 715.797   1
 -22  -4  20  146.62 672.141   1
  -4 -20  22 -226.10 564.766   1
 -20   4  22  224.78 508.433   1
   4 -22  20  505.79 523.867   1
   4  22 -20 2705.32 746.223   1
  20   4 -22 -1810.2 2663.43   1
  20   4 -22  318.16 784.698   1
 -22   4  20 -337.34 601.256   1
 -22   4  20  866.72 1838.83   1
   4 -20  22 -147.50 526.072   1
  22   4 -20 -393.12 735.971   1
   4  20 -22   63.86 670.377   1
  20  -6 -22 -104.56 718.663   1
  -6  22 -20  112.23 536.655   1
  -6 -22  20 1017.64 497.188   1
  -6  20 -22  182.67 603.020   1
  -6 -20  22  281.67 470.730   1
   6 -22  20  157.65 391.246   1
   6  22 -20  879.17 470.841   1
  20   6 -22 -169.99 874.214   1
 -22   6  20  -84.78 578.877   1
  22   6 -20  807.96 3045.97   1
  22   6 -20 -641.16 685.260   1
   6  20 -22 -255.76 604.563   1
  21  -1 -22  12391. 6865.83   1
  21  -1 -22  13494. 3126.44   1
  -1  22 -21  10325. 2360.27   1
 -21  -1  22 -6367.5 3909.16   1
 -21  -1  22 9714.46 2369.09   1
  22  -1 -21 -7121.6 4575.01   1
  22  -1 -21 8500.71 2168.45   1
  21   1 -22 -3701.9 3729.46   1
 -22   1  21 -6412.7 3970.89   1
 -22   1  21 8835.84 2164.04   1
  22   1 -21 8203.06 4956.45   1
  22   1 -21  10042. 2433.03   1
   1  21 -22  16845. 3788.99   1
  21  -3 -22 -4772.3 3718.44   1
  21  -3 -22  204.39 937.933   1
  -3 -22  21  170.54 443.391   1
 -21  -3  22 1877.41 2349.24   1
 -21  -3  22 -419.91 787.674   1
 -22  -3  21 -1831.1 2222.46   1
 -22  -3  21 -1051.8 775.878   1
  -3 -21  22 -320.14 470.179   1
 -21   3  22  190.17 771.799   1
 -21   3  22 -541.84 1793.63   1
   3 -22  21  312.20 425.752   1
   3  22 -21 -188.95 422.886   1
  21   3 -22 1628.26 2916.99   1
  21   3 -22  745.01 905.191   1
 -22   3  21 -948.08 1982.14   1
 -22   3  21  128.65 771.469   1
   3  21 -22  360.16 509.646   1
  23  -1   0 1120.05 341.969   1
  23   1   0  485.28 276.706   1
 -23   0  -1  917.32 296.108   1
  23   0   1  957.89 316.172   1
 -23   2  -1 -198.10 217.175   1
 -23  -2   1  -20.04 239.224   1
  23  -1  -2  326.09 294.675   1
 -23   1  -2 -192.59 200.529   1
 -23  -1   2  453.20 284.312   1
 -23   2   1  -69.92 249.586   1
  23  -2   1  116.19 202.293   1
  23   2  -1 -473.71 274.611   1
 -23   1   2  287.29 286.186   1
  23  -1   2  -93.71 221.144   1
  23   1  -2  234.15 244.405   1
 -23  -3   0  19965. 4389.81   1
  23  -3   0  26392. 5792.08   1
  23   3   0  17220. 3791.20   1
 -23   0   3  25179. 5535.22   1
  23   0  -3  25807. 5667.51   1
  23  -3  -2 1204.94 445.265   1
 -23   3  -2 1738.51 432.146   1
 -23  -3   2 3248.81 774.445   1
  23  -2  -3 1841.03 535.001   1
 -23  -2   3 2837.61 694.300   1
 -23   3   2 2778.08 686.142   1
  23   3  -2 1587.47 441.406   1
 -23   2   3 1979.93 570.278   1
  23   2  -3 1699.92 466.872   1
 -23   4  -1 2455.07 581.523   1
 -23  -4   1 2150.81 545.254   1
  23  -1  -4 4709.51 1104.62   1
 -23   4   1 4412.96 1020.17   1
  23  -4   1 2969.90 689.780   1
 -23   1   4 3402.05 876.749   1
 -23  -4   3  872.12 360.599   1
 -23  -3   4  421.56 290.706   1
 -23   4   3  742.92 345.607   1
  23  -4   3  127.99 180.355   1
  23   4  -3  357.95 265.461   1
 -23   3   4  312.86 341.087   1
  23   3  -4  195.46 259.839   1
 -23   5   0 1895.05 510.197   1
  23  -5   0 1739.61 469.959   1
 -23   0   5 2469.41 674.897   1
  23   0  -5 2101.20 619.005   1
 -23   5  -2   90.94 184.434   1
 -23  -2   5 1375.81 455.958   1
 -23   5   2  138.24 288.281   1
  23   5  -2  322.90 249.366   1
  23   2  -5 1050.93 373.498   1
  23  -5  -4  273.73 419.248   1
 -23   5  -4 -287.84 175.284   1
 -23  -5   4  289.49 305.038   1
  23  -4  -5 -139.90 414.948   1
 -23   5   4 -309.56 343.181   1
 -23   4   5   51.65 367.324   1
  23   4  -5 -399.40 274.942   1
   4   5 -23 -2427.5 3504.57   1
 -23   6  -1 3632.45 854.260   1
 -23  -1   6 4723.84 1132.18   1
 -23   6   1 4056.88 944.217   1
  23  -6   1 3838.60 873.442   1
 -23   1   6 4712.82 1116.74   1
  23   1  -6 6181.23 1436.44   1
  23  -6  -3 -282.00 381.545   1
 -23  -6   3  144.97 235.145   1
  23  -3  -6  345.17 453.092   1
  -3  -6  23 -2254.4 3674.34   1
 -23   6   3  156.76 395.656   1
  23  -6   3  139.35 164.260   1
  23   3  -6  641.27 337.449   1
   3   6 -23 1293.13 2928.01   1
  23  -6  -5   83.44 516.701   1
 -23  -6   5  191.16 295.226   1
  -6  -5  23 -1118.9 2585.16   1
  23  -5  -6   63.01 526.623   1
 -23  -5   6  -10.09 280.454   1
  -5  -6  23 -2396.6 2698.71   1
 -23   6   5 -2502.5 2009.70   1
  23   6  -5  156.76 345.166   1
   6   5 -23 1163.05 2660.12   1
 -23   5   6   32.11 510.307   1
 -23   7   0  635.21 325.763   1
 -23   0   7  662.66 428.067   1
  23   0  -7  619.89 449.233   1
  23  -7  -2  380.00 394.884   1
 -23   7  -2 1056.88 320.692   1
 -23  -7   2  803.88 325.102   1
  23  -2  -7 1084.66 539.411   1
 -23  -2   7 1787.01 611.178   1
  -2  -7  23 -395.10 3205.82   1
  23  -7   2  863.19 276.265   1
 -23   2   7  482.09 440.194   1
  23   2  -7 1863.08 631.462   1
   2   7 -23 2327.19 2444.05   1
  23  -7  -4  456.40 512.071   1
 -23   7  -4 2342.63 547.017   1
 -23  -7   4 1529.05 452.871   1
  -7  -4  23  442.62 2514.60   1
  23  -4  -7 1287.62 631.132   1
 -23   7   4 4110.90 2555.39   1
  23  -7   4 1795.83 438.650   1
  23   7  -4 2621.54 657.038   1
   7   4 -23 2028.44 2577.44   1
 -23  -7   6 4665.41 1082.57   1
  -7  -6  23 1912.69 2050.49   1
  -7  -6  23 -1629.4 2643.59   1
 -23  -6   7 6834.96 1546.69   1
  -6  -7  23  120.60 1861.98   1
  -6  -7  23 -574.14 2560.91   1
  23   7  -6 5261.82 1207.14   1
   7   6 -23 3563.00 3683.16   1
  23   6  -7 7040.01 1600.70   1
   6   7 -23  863.08 3284.09   1
  23  -8  -1   74.49 368.978   1
 -23   8  -1  477.23 316.062   1
  23  -1  -8  -13.39 477.786   1
 -23  -1   8  398.96 462.242   1
  -1  -8  23 -1540.1 2404.36   1
 -23   1   8 -228.42 457.060   1
  23   1  -8  280.67 415.940   1
   1   8 -23  977.18 1962.30   1
  23  -8  -3  575.79 540.844   1
 -23   8  -3 2718.55 633.226   1
 -23  -8   3 2082.46 538.419   1
  -8  -3  23 3266.45 2660.12   1
  23  -3  -8  550.88 623.635   1
 -23   8   3 1120.05 601.807   1
  23  -8   3 2838.71 657.038   1
  23   8  -3 1161.94 399.735   1
   8   3 -23 3711.83 2623.74   1
 -23   3   8  383.97 585.381   1
   3   8 -23 2176.16 3377.79   1
   3   8 -23 2726.27 2482.63   1
  23  -8  -5  12292. 2947.85   1
 -23  -8   5  15566. 3437.32   1
  -8  -5  23 5508.76 3039.35   1
  -5  -8  23 3343.62 2501.38   1
  23  -8   5  13383. 2941.24   1
  23   8  -5  14100. 3116.52   1
   8   5 -23  11311. 6601.25   1
   5   8 -23 -1292.0 3482.52   1
  23  -8  -7 -2931.3 1984.34   1
  23  -8  -7 4200.19 1952.37   1
 -23  -8   7  317.83 281.777   1
  23  -7  -8  221.70 1373.61   1
  23  -7  -8 -1006.9 1610.63   1
 -23  -7   8 2115.53 575.129   1
  -7  -8  23 -3571.8 2582.95   1
 -23   8   7 3286.29 2601.70   1
  23   8  -7  307.13 281.997   1
   8   7 -23 -1531.3 2338.22   1
 -23   7   8  606.44 1471.72   1
 -23   7   8 -2224.7 2051.59   1
  23   7  -8 1638.19 483.408   1
   7   8 -23  376.03 3039.35   1
   7   8 -23  646.01 2160.73   1
  23  -9   0  123.25 334.472   1
 -23   0   9  522.10 507.882   1
   0  -9  23 -264.03 1821.19   1
  23   0  -9  261.60 560.357   1
 -23   9  -2  614.60 349.134   1
  -9  -2  23 -165.69 2356.96   1
  23  -2  -9 -386.18 598.941   1
  -2   9 -23 -535.99 1570.94   1
 -23  -2   9  247.93 502.149   1
  -2  -9  23 -1890.6 2611.62   1
 -23   9   2 -1412.2 641.384   1
  23  -9   2 -228.64 333.259   1
   9   2 -23 -1714.3 2334.91   1
 -23   2   9  973.32 630.580   1
   2   9 -23 1961.19 3859.55   1
   2   9 -23  645.57 1839.93   1
 -23   9  -4 1748.43 444.272   1
  23  -4  -9   82.28 703.229   1
  -4  -9  23 3016.20 2295.22   1
  -4  -9  23 -1706.5 2426.41   1
 -23   9   4 1025.02 1644.80   1
 -23   9   4 3129.75 1413.29   1
  23  -9   4 1903.87 451.769   1
  23   9  -4  621.43 341.197   1
   9   4 -23 1452.98 2552.09   1
 -23   4   9  802.78 956.784   1
  23  -9  -6 360048. 176607.   1
 -23   9  -6  535.44 215.852   1
 -23  -9   6 1188.40 418.366   1
  -9  -6  23  815.68 1791.42   1
  -9  -6  23 -1492.7 2264.36   1
  23  -6  -9 -535.33 1564.32   1
  23  -6  -9 -146.29 1374.71   1
 -23  -6   9 1234.70 477.676   1
  -6  -9  23 -3361.3 2663.43   1
  -6  -9  23 -536.65 1816.78   1
 -23   9   6  23669.  11818.   1
 -23   9   6 3036.05 1847.64   1
  23   9  -6 1605.11 473.927   1
 -23   6   9 2450.66 2290.81   1
   6   9 -23  870.02 2693.20   1
   6   9 -23 1003.42 1992.06   1
  23  -9  -8 2384.52 1740.71   1
  23  -9  -8  258.63 1925.92   1
 -23  -9   8 -266.78 271.083   1
  -9  -8  23  172.64 2033.95   1
  -9  -8  23  189.84 2982.03   1
  23  -8  -9  353.65 2065.92   1
  23  -8  -9  856.46 1434.24   1
 -23  -8   9   14.27 325.102   1
  -8  -9  23 -1216.0 2850.84   1
  -8  -9  23   91.20 1885.13   1
 -23   9   8 -1018.5 1639.29   1
  23   9  -8  224.56 307.463   1
   9   8 -23 2122.15 2751.62   1
   9   8 -23 -1976.6 2931.32   1
 -23   8   9 -1612.8 2146.40   1
  23   8  -9  407.78 322.566   1
   8   9 -23 -2670.0 3105.50   1
  23  -1 -10  426.19 625.289   1
 -23  -1  10  984.01 560.687   1
  -1 -10  23  527.28 1710.95   1
  -1 -10  23 -718.55 2287.51   1
  23 -10   1  -58.25 322.015   1
  10   1 -23 -2904.9 2307.35   1
 -23   1  10 -240.77 614.154   1
   1 -10  23 -147.83 1438.65   1
   1  10 -23 -953.15 3784.58   1
   1  10 -23 -1024.7 1623.85   1
  23 -10  -3  552.31 1234.70   1
  23 -10  -3 -2075.8 1271.08   1
 -23 -10   3 1158.64 364.017   1
 -10  -3  23  588.69 1719.76   1
  -3  10 -23  288.72 1343.84   1
 -23  -3  10 1666.85 624.186   1
 -23  10   3 -316.61 1494.87   1
 -23  10   3 -740.27 1275.49   1
 -23   3  10  467.53 794.619   1
  23   3 -10 2541.06 801.013   1
   3  10 -23   12.62 1491.57   1
 -10  -5  23  481.20 1921.51   1
 -10  -5  23 -3509.0 2613.82   1
  -5 -10  23 4104.28 2784.70   1
  -5 -10  23 -3448.3 2576.34   1
 -23  10   5  632.23 1708.74   1
 -23  10   5 5725.93 3202.51   1
  10   5 -23 -776.87 3426.30   1
  10   5 -23 -1120.1 2526.73   1
 -23   5  10  10932. 5663.10   1
 -23   5  10 2445.15 1435.34   1
   5  10 -23 1973.32 2934.62   1
   5  10 -23 -1634.9 1932.53   1
  23 -10  -7 -732.00 1369.20   1
  23 -10  -7 -2075.8 2071.43   1
 -10  -7  23 6432.58 3731.67   1
 -10  -7  23 -3848.5 3068.02   1
 -23  -7  10  864.07 445.816   1
  -7 -10  23 -100.40 1844.34   1
 -23  10   7 -682.72 1989.86   1
  23  10  -7  270.09 317.936   1
  10   7 -23 -2132.1 2964.39   1
  10   7 -23 1942.45 3037.15   1
 -23   7  10 -249.70 1800.24   1
   7  10 -23  541.40 2327.19   1
  23 -10  -9 -2067.0 1799.14   1
  23 -10  -9 -754.49 3033.84   1
 -10  -9  23 -2311.8 3946.64   1
  23  -9 -10 2146.40 3536.54   1
 -23  -9  10 -142.76 330.173   1
  -9 -10  23 -1419.9 1998.68   1
  -9 -10  23 1827.80 3895.93   1
 -23  10   9  781.28 3072.43   1
 -23  10   9 -2095.7 1802.45   1
  23  10  -9  168.01 293.132   1
  10   9 -23 -3141.9 3120.93   1
  10   9 -23 2754.93 3815.45   1
  23   9 -10  -55.34 318.597   1
   9  10 -23 3171.64 3148.49   1
   9  10 -23 1798.04 3515.60   1
  23 -11   0  355.53 550.104   1
   0 -23  11  290.38 194.245   1
 -23   0  11  253.56 606.438   1
   0 -11  23  351.34 1780.40   1
   0 -11  23 -101.25 2245.62   1
   0  11 -23 -1752.8 3835.30   1
  23 -11  -2 1167.46 1200.53   1
  23 -11  -2 1233.60 1359.28   1
 -23  11  -2  283.21 432.807   1
  -2 -23  11  551.10 233.822   1
 -11  -2  23  461.58 1889.54   1
  -2  11 -23 -1121.2 1532.35   1
 -23  -2  11  313.09 530.261   1
  -2 -11  23  230.29 2196.01   1
 -23  11   2 -1993.2 1770.48   1
  23 -11   2  740.38 366.111   1
  11   2 -23 -1403.4 1988.75   1
 -23   2  11 -452.32 744.239   1
  23   2 -11  317.27 662.661   1
   2  11 -23 2087.97 3458.27   1
   2  11 -23  341.42 1650.31   1
  23 -11  -4 -198.43 1106.82   1
  23 -11  -4 -1103.5 1518.02   1
 -23 -11   4 2054.90 537.206   1
  -4 -23  11 1966.71 495.204   1
 -11  -4  23 -171.09 1820.08   1
 -11  -4  23 -176.17 2590.67   1
  -4  11 -23  372.06 1407.78   1
 -23  -4  11 3678.75 973.541   1
  -4 -11  23  898.36 1927.02   1
  -4 -11  23 -2405.5 2580.75   1
 -23  11   4 2752.73 1966.71   1
  23 -11   4 4169.33 957.887   1
  23  11  -4 1911.58 520.780   1
  11   4 -23  523.54 3512.29   1
  11   4 -23 1133.28 2730.68   1
 -23   4  11 4038.14 2695.40   1
 -23   4  11 1879.61 1424.32   1
   4 -11  23 -342.08 1645.90   1
  23   4 -11 3852.93 1057.99   1
   4  11 -23 1199.43 3544.26   1
  23 -11  -6 -210.56 2243.41   1
 -23  11  -6   51.45 166.575   1
 -23 -11   6  227.32 246.500   1
  -6 -23  11   45.25 239.003   1
 -11  -6  23 1805.75 1940.25   1
 -11  -6  23 -704.22 3764.74   1
  23  -6 -11 1255.65 1687.79   1
  -6 -11  23  650.97 3529.93   1
 -23  11   6 -386.07 1391.25   1
 -23  11   6  489.47 2290.81   1
  23 -11   6  306.25 152.243   1
  23  11  -6  703.56 325.984   1
   6  23 -11   82.01 205.931   1
  11   6 -23 3172.75 3079.04   1
  11   6 -23 2462.79 3604.89   1
 -23   6  11 -1010.8 1970.01   1
 -23   6  11  185.10 2623.74   1
  23   6 -11 1423.22 695.292   1
   6  11 -23  816.34 2783.59   1
   6  11 -23   95.73 2371.29   1
  23 -11  -8 -2527.8 1909.38   1
  23 -11  -8  359.06 2771.47   1
 -23 -11   8  531.25 289.163   1
  -8 -23  11  243.08 236.798   1
  23  -8 -11 -697.61 3518.90   1
 -23  -8  11   16.61 438.650   1
  -8 -11  23 -1158.6 1977.73   1
  -8 -11  23  -42.74 3419.69   1
 -23  11   8   27.03 2710.83   1
   8  23 -11  548.45 269.430   1
  11   8 -23 -450.23 3971.99   1
 -23   8  11 -1168.6 3514.49   1
  23   8 -11   30.57 478.337   1
   8  11 -23 5330.17 3946.64   1
   8  11 -23 -439.97 2995.26   1
  23 -11 -10  -61.93 1913.79   1
 -10 -23  11  693.42 323.338   1
 -11 -10  23 2703.12 2293.02   1
 -11 -10  23 2186.09 2656.82   1
 -23 -10  11  251.57 336.457   1
 -10 -11  23 -2794.6 2315.07   1
 -23  11  10 -917.32 2229.08   1
  23  11 -10   50.78 311.652   1
  10  23 -11  264.25 284.533   1
  11  10 -23 2270.97 2975.41   1
  23  10 -11  584.72 385.955   1
  10  11 -23 -265.24 2417.59   1
  23 -12  -1  875.21 1157.53   1
  23 -12  -1   91.07 1859.77   1
  -1 -23  12  273.18 223.680   1
 -12  -1  23  532.02 2169.55   1
 -23  -1  12  497.74 707.749   1
  -1 -12  23 -1400.1 1892.84   1
  -1 -12  23 1843.23 2999.67   1
 -23  12   1  515.49 1638.19   1
 -23  12   1 -394.22 1809.06   1
   1 -23  12  588.36 237.680   1
   1  23 -12  510.09 257.193   1
  12   1 -23  747.55 2295.22   1
 -23   1  12 -578.44 805.644   1
   1 -12  23 -932.31 1617.24   1
   1 -12  23 -336.79 2356.96   1
   1  12 -23 1373.61 3579.54   1
   1  12 -23 4640.06 2451.77   1
  23 -12  -3 -1255.6 1289.82   1
  23 -12  -3  -67.93 1826.70   1
 -23  12  -3  387.06 422.004   1
  -3  23 -12  309.23 216.955   1
  -3 -23  12  373.50 255.650   1
 -12  -3  23 -1196.1 1856.46   1
 -12  -3  23 -229.85 3205.82   1
  23  -3 -12 1407.78 1694.41   1
  -3  12 -23  867.82 3138.57   1
  -3  12 -23 -2360.3 2092.38   1
 -23  -3  12  624.19 568.404   1
  -3 -12  23 -4917.9 3111.01   1
 -23  12   3  246.83 2114.43   1
   3 -23  12  548.89 210.671   1
   3  23 -12  379.12 243.964   1
  12   3 -23 1992.06 3631.35   1
  12   3 -23 -1766.1 3389.92   1
   3 -12  23  207.25 2248.92   1
  23   3 -12  -66.78 679.417   1
   3  12 -23  199.54 2522.32   1
  23 -12  -5 -1884.0 1641.49   1
  23 -12  -5  493.11 2598.39   1
  -5  23 -12  -94.22 192.040   1
 -23 -12   5  123.03 261.162   1
  -5 -23  12  186.97 241.759   1
  23  -5 -12 -1792.5 1803.55   1
  23  -5 -12 -1502.6 2954.47   1
 -23  -5  12  -11.05 499.393   1
  -5 -12  23 1034.06 1947.96   1
  -5 -12  23 -1785.9 3402.05   1
 -23  12   5 -4662.1 2759.34   1
  23 -12   5   53.73 220.593   1
   5 -23  12  206.04 180.686   1
  23  12  -5 -812.59 332.378   1
   5  23 -12  -36.13 219.270   1
  12   5 -23 -369.53 4302.72   1
  12   5 -23 -1790.3 3068.02   1
   5 -12  23 1747.32 2351.45   1
  23   5 -12 -195.57 602.469   1
   5  12 -23  848.20 2977.62   1
   5  12 -23 -1572.0 2858.56   1
  23 -12  -7 1112.33 2332.71   1
 -23  12  -7  430.16 174.402   1
  -7  23 -12  140.01 190.607   1
 -23 -12   7  975.86 349.355   1
 -12  -7  23 -771.80 1907.17   1
 -12  -7  23 2129.86 4690.77   1
  23  -7 -12 -1622.8 1785.91   1
  23  -7 -12 -1725.3 3686.47   1
 -23  -7  12  609.41 573.255   1
  -7 -12  23  886.12 2813.36   1
  -7 -12  23 -1744.0 2056.00   1
 -23  12   7 1165.25 2453.97   1
  23 -12   7  296.77 148.605   1
  23  12  -7  801.56 331.055   1
   7  23 -12  392.68 266.123   1
   7  12 -23 -312.20 2706.42   1
  23 -12  -9 1832.21 2004.19   1
 -23 -12   9 2149.71 580.641   1
 -12  -9  23 4188.07 2877.30   1
 -12  -9  23  165.03 2768.16   1
  23  -9 -12 -2160.7 1940.25   1
  23  -9 -12  396.21 2470.51   1
 -23  -9  12 1860.87 632.785   1
   9 -23  12 1422.11 378.128   1
  23  12  -9 1200.53 418.807   1
   9  23 -12 1613.93 453.423   1
  12   9 -23 -1217.1 2665.64   1
  12   9 -23  927.13 2848.64   1
  23   9 -12 1699.92 632.895   1
   9  12 -23  147.39 2000.88   1
 -23 -12  11  10439. 2327.19   1
 -12 -11  23 2608.31 1611.73   1
 -23 -11  12 9867.70 2224.67   1
 -12 -23  11 7972.65 1799.14   1
  11 -23  12 7340.97 1628.26   1
  11  23 -12 7704.77 1734.10   1
  23  11 -12  10258. 2297.43   1
  12  23 -11 7300.18 1653.62   1
 -23  13   0  47349.  23283.   1
 -13   0  23 -452.43 3162.82   1
  23 -13   0  44515.  21894.   1
  23 -13   0  15158. 4386.50   1
  13   0 -23 1001.43 2987.54   1
   0 -13  23  35707.  17650.   1
   0 -13  23 7630.90 4063.49   1
  23   0 -13  40977.  20328.   1
   0  13 -23  14618. 8070.77   1
  23 -13  -2 -2252.2 2816.67   1
 -23  13  -2 -463.67 1262.26   1
  -2 -23  13 1534.56 408.003   1
 -13  -2  23 3492.44 4062.39   1
  -2  13 -23  13163. 4160.51   1
 -23  -2  13  884.69 718.994   1
 -23  13   2 -304.71 1361.48   1
   2 -23  13 1308.56 356.741   1
   2  23 -13  263.15 271.304   1
  13   2 -23 4613.60 4403.04   1
  13   2 -23 1457.39 4425.09   1
   2  13 -23 6443.60 4612.50   1
   2  13 -23 8773.00 3604.89   1
  23 -13  -4  578.11 2699.81   1
 -23  13  -4  401.72 476.353   1
  -4 -23  13  326.53 222.687   1
  23  -4 -13 1477.23 1888.43   1
  23  -4 -13  141.99 2957.77   1
  -4  13 -23  299.75 2842.02   1
 -23  -4  13  872.89 627.824   1
  -4 -13  23 1402.27 2076.95   1
  -4 -13  23 1200.53 3311.65   1
 -23  13   4 1172.97 2286.40   1
   4 -23  13  381.99 197.332   1
   4  23 -13   83.03 214.309   1
 -23   4  13  491.68 1609.52   1
 -23   4  13  243.30 3006.28   1
   4 -13  23 2207.03 1904.97   1
   4 -13  23 -794.29 3173.85   1
  23   4 -13 -220.15 718.884   1
   4  13 -23 -5264.0 4389.81   1
   4  13 -23  644.58 2409.88   1
  23 -13  -6 -759.67 2127.66   1
 -23 -13   6  146.62 243.633   1
  -6 -23  13  624.08 260.721   1
 -13  -6  23 4178.15 2847.53   1
 -13  -6  23 1906.07 4431.70   1
  23  -6 -13 1172.97 1703.23   1
  23  -6 -13 -2477.1 3704.11   1
 -23  -6  13  935.29 554.183   1
  -6 -13  23 -2833.2 2371.29   1
  23 -13   6  217.73 187.410   1
   6 -23  13  484.51 207.033   1
  23  13  -6   -8.10 279.572   1
   6  23 -13  175.28 218.498   1
  13   6 -23 -4180.4 3339.21   1
 -23   6  13 1329.51 1729.69   1
 -23   6  13 -2575.2 3901.44   1
   6 -13  23  205.82 2265.46   1
  23   6 -13  154.78 636.533   1
   6  13 -23 -1192.8 2171.75   1
 -23 -13   8 2931.32 734.207   1
 -13  -8  23 3202.51 2407.67   1
 -13  -8  23 2738.39 2781.39   1
  23  -8 -13 -692.65 1696.61   1
  23  -8 -13 1106.82 2252.23   1
  -8  13 -23 -1348.3 1655.82   1
 -23  -8  13 2569.73 734.097   1
  -8 -13  23 -2494.8 1821.19   1
  23  13  -8 2550.98 655.385   1
   8  23 -13 4102.08 946.422   1
  13   8 -23 -590.23 2665.64   1
  13   8 -23 -1150.9 2806.74   1
 -23   8  13 1739.61 1739.61   1
 -23   8  13 -829.35 2327.19   1
 -10  23 -13  26623. 5844.99   1
 -23 -13  10  34230. 7517.36   1
 -10 -23  13  28442. 6251.79   1
 -23 -10  13  42355. 9310.98   1
 -13 -23  10  21277. 4694.08   1
  10 -23  13  31816. 6979.38   1
  23  13 -10  33723. 7408.22   1
  10  23 -13  22809. 5019.29   1
 -12  23 -13   21.99 191.489   1
 -23 -13  12   33.01 339.323   1
 -12 -23  13  295.23 335.244   1
 -13 -12  23 -327.20 707.419   1
  12 -23  13  215.30 192.702   1
  12  23 -13  205.71 273.398   1
  13 -23  12  -59.66 183.331   1
  23  12 -13  166.24 378.789   1
  13  23 -12  339.76 311.983   1
  12  13 -23  142.43 807.077   1
  23 -14  -1  10197. 5182.44   1
  23 -14  -1 -1024.3 2634.77   1
  14  -1 -23  918.53 3159.52   1
  -1  14 -23   31.66 3637.96   1
  -1 -14  23 7410.42 3802.22   1
 -23  14   1  535.11 2057.10   1
 -14   1  23 -2967.7 3338.11   1
  23 -14   1 9887.54 4964.17   1
  23 -14   1 -369.64 2284.20   1
  14   1 -23  213.98 3301.73   1
  14   1 -23 -893.73 4256.42   1
   1 -14  23 2316.17 3843.01   1
   1 -14  23 7407.11 4084.44   1
  23   1 -14  13505. 7184.43   1
   1  14 -23 3402.05 3995.15   1
   1  14 -23 -426.85 2855.25   1
  23 -14  -3 1070.22 1955.68   1
 -23  14  -3 -2104.5 1502.59   1
  -3  23 -14  -95.63 205.710   1
 -14  -3  23 2952.26 2329.40   1
 -14  -3  23 1581.96 4286.18   1
  -3  14 -23 -718.77 2988.64   1
  -3  14 -23 -1601.8 3006.28   1
 -23  -3  14 -1167.5 722.963   1
  -3 -14  23 -1139.9 2463.89   1
  -3 -14  23 -2291.9 2239.00   1
  23 -14   3 -549.66 1552.20   1
   3  23 -14 -170.76 229.081   1
 -23   3  14 -183.44 1730.79   1
 -23   3  14 1066.14 2889.42   1
   3 -14  23 -432.59 2918.09   1
   3  14 -23 -249.92 3398.74   1
 -23  14  -5  117.85 495.535   1
  -5  23 -14  194.47 204.718   1
 -23 -14   5  -12.99 223.900   1
  -5 -23  14  531.25 283.320   1
 -14  -5  23 1195.02 1906.07   1
 -14  -5  23 -1033.3 3591.66   1
  23  -5 -14  -66.34 1632.67   1
  23  -5 -14 -3119.8 3095.58   1
 -23  -5  14   -0.66 567.192   1
   5  23 -14 -255.65 236.578   1
  14   5 -23 -2183.9 2720.76   1
  14   5 -23 3483.63 3359.05   1
 -23   5  14 -2052.7 2932.42   1
 -23   5  14  -10.05 1698.82   1
   5 -14  23 -248.15 1396.76   1
   5 -14  23 1394.55 2438.54   1
  23   5 -14 1176.27 759.563   1
   5  14 -23  739.39 1561.02   1
  -7  23 -14   78.08 221.695   1
  -7 -23  14  548.67 289.053   1
 -14  -7  23  629.37 1675.67   1
 -14  -7  23 -289.60 1953.48   1
  -7  14 -23 -199.98 1457.39   1
 -23  -7  14  188.51 447.690   1
  -7 -14  23 -1300.8 1132.18   1
  23 -14   7   56.50 133.943   1
  23  14  -7  485.28 275.162   1
   7  23 -14  573.59 298.533   1
  14   7 -23 5282.76 3618.12   1
  14   7 -23   16.13 2130.96   1
 -23   7  14 -2898.2 2057.10   1
 -23   7  14 -1747.3 1748.43   1
  23   7 -14  832.21 602.138   1
   7  14 -23  330.72 863.961   1
  -9  23 -14  24507. 5380.88   1
 -23 -14   9  24970. 5498.84   1
  -9 -23  14  24275. 5338.99   1
 -14  -9  23 4376.58 2882.81   1
 -23  -9  14  16922. 3762.54   1
   9 -23  14  27836. 6108.47   1
  23  14  -9  20681. 4559.58   1
   9  23 -14  24661. 5424.98   1
 -11  23 -14  819.42 285.415   1
 -23 -14  11  -38.02 302.723   1
 -11 -23  14  411.97 307.904   1
 -14 -11  23  -29.34 851.173   1
 -23 -11  14 -1047.6 519.898   1
 -14 -23  11  405.58 375.041   1
 -11 -14  23 -515.16 743.026   1
  11 -23  14  845.88 279.903   1
  23  14 -11  111.78 309.999   1
  11  23 -14  293.02 326.866   1
  14  11 -23  101.64 799.911   1
  23  11 -14  202.07 487.267   1
  14  23 -11  465.66 326.755   1
  11  14 -23 1598.50 3328.19   1
  11  14 -23 -195.79 790.210   1
 -13  23 -14  151.14 222.136   1
 -23 -14  13  -19.37 343.622   1
 -13 -23  14 -219.49 351.339   1
 -14 -13  23 2652.41 2161.83   1
 -14 -13  23  200.09 692.867   1
 -14  23 -13  -83.35 186.198   1
 -14 -23  13  425.64 366.442   1
 -13 -14  23 -797.27 747.216   1
  13 -23  14  -32.14 192.812   1
  23  14 -13   21.53 322.897   1
  13  23 -14   47.79 323.889   1
  14  13 -23  262.71 725.167   1
  14 -23  13   82.93 165.803   1
  23  13 -14 -385.07 373.057   1
  14  23 -13   22.56 281.336   1
  13  14 -23  218.72 772.020   1
 -15   0  23 3931.21 2492.56   1
  23 -15   0 1584.17 1404.47   1
   0 -23  15 5042.44 1142.10   1
   0  23 -15 5494.43 1235.81   1
 -23   0  15 3072.43 1460.70   1
   0 -15  23 2823.28 2187.19   1
   0 -15  23  184.54 2416.49   1
  23   0 -15   16.75 1363.69   1
   0  15 -23 -2875.1 3548.67   1
   0  15 -23 2692.09 1936.94   1
  15  -2 -23  880.17 2259.95   1
 -23  15  -2  919.63 1112.33   1
  -2  23 -15 3171.64 746.885   1
  -2 -23  15 3365.67 783.044   1
 -15  -2  23 3129.75 2289.71   1
 -15  -2  23 -1399.0 2671.15   1
  23  -2 -15 3511.19 2620.44   1
  23  -2 -15 -992.39 2261.05   1
  -2 -15  23 1570.94 1914.89   1
  23 -15   2 -1523.5 1260.06   1
  23 -15   2  505.02 1501.49   1
   2 -23  15 3643.48 834.196   1
   2  23 -15 2785.80 662.771   1
  15   2 -23 -637.75 3146.29   1
  15   2 -23 -979.49 2630.36   1
 -23   2  15 -976.08 1680.08   1
 -23   2  15  -28.37 1785.91   1
   2 -15  23 1736.30 1842.13   1
  23   2 -15  703.45 924.814   1
   2  15 -23 -1006.7 1495.97   1
 -23  15  -4  795.39 1003.97   1
  -4  23 -15  120.71 221.254   1
  -4 -23  15  168.12 237.019   1
 -15  -4  23  702.02 1736.30   1
 -15  -4  23 -1089.4 2394.44   1
 -23  -4  15 -1120.1 590.232   1
  -4 -15  23 -436.11 1337.23   1
  23 -15   4 -1383.5 979.935   1
   4 -23  15  -42.71 178.701   1
   4  23 -15  -61.19 243.633   1
  15   4 -23 -1335.0 2280.89   1
  15   4 -23 1624.96 2515.71   1
 -23   4  15 1985.45 1953.48   1
 -23   4  15 -387.94 2086.87   1
   4 -15  23 -348.80 1361.48   1
   4 -15  23 1224.78 1749.53   1
   4  15 -23  906.29 1077.72   1
  -6  23 -15  230.51 215.632   1
 -23 -15   6 -142.10 279.903   1
  -6 -23  15   77.92 244.074   1
  23  -6 -15  507.00 1725.28   1
 -23  -6  15 -437.00 505.346   1
  -6 -15  23  747.11 816.557   1
  23 -15   6  102.22 252.232   1
   6 -23  15  232.17 227.538   1
  23  15  -6 -275.38 270.863   1
  15   6 -23 -1986.5 2539.96   1
  15   6 -23 -235.25 1663.54   1
 -23   6  15  648.22 1558.81   1
   6 -15  23 -3429.6 2103.40   1
  23   6 -15  -73.38 619.336   1
  -8  23 -15 1329.51 359.717   1
 -23 -15   8  866.39 353.213   1
  -8 -23  15 1695.51 468.526   1
 -15  -8  23 -2397.7 2137.58   1
 -15  -8  23 -1227.0 1462.90   1
  23  -8 -15 1426.52 2018.52   1
  23  -8 -15 -971.56 1390.14   1
  -8  15 -23 -192.92 2225.77   1
  -8  15 -23  -10.56 1234.70   1
 -23  -8  15  675.45 451.879   1
  23 -15   8 1935.84 439.312   1
  23   8 -15 1008.82 627.273   1
   8  15 -23 -4040.3 3741.59   1
   8  15 -23 -1056.2 800.462   1
 -10  23 -15  376.69 214.750   1
 -10 -23  15  409.11 325.984   1
 -15 -10  23   19.34 934.185   1
  23 -10 -15  705.32 703.340   1
 -10  15 -23  -90.14 507.992   1
 -15 -23  10  129.53 330.393   1
 -10 -15  23 -1238.0 1772.68   1
 -10 -15  23 -443.61 783.706   1
  10 -23  15  254.33 259.067   1
  23  15 -10   -1.89 286.407   1
  15  10 -23  127.66 727.042   1
  10 -15  23  -75.06 584.389   1
  10  15 -23  183.33 751.846   1
 -12  23 -15  413.85 240.326   1
 -23 -15  12  205.49 306.030   1
 -12 -23  15  343.73 350.457   1
 -23 -12  15 -642.93 457.060   1
 -12 -15  23 -557.60 779.186   1
  12 -23  15  276.15 230.294   1
  23  15 -12  492.01 338.772   1
  15  12 -23 -149.27 3047.07   1
  15  12 -23 -185.32 696.615   1
  23  12 -15  331.50 472.053   1
  15  23 -12   -0.86 305.258   1
 -16  -1  23 1039.69 1753.94   1
 -16  -1  23  107.68 1703.23   1
  23  -1 -16 -687.58 2113.33   1
  -1  16 -23 -2423.1 3205.82   1
 -23  -1  16  272.63 892.955   1
  -1 -16  23 -508.43 1348.25   1
 -16   1  23  187.19 1394.55   1
   1 -23  16  343.51 244.736   1
   1  23 -16  -33.06 232.168   1
  16   1 -23  214.64 1671.26   1
  16   1 -23 -1017.4 2991.95   1
 -23   1  16 -1864.2 1846.54   1
 -23   1  16 -535.77 1202.73   1
   1 -16  23 2813.36 2098.99   1
   1 -16  23 -181.79 1290.93   1
  23   1 -16 -408.22 2183.88   1
  23   1 -16  393.89 878.403   1
   1  16 -23  -93.64 1004.74   1
  16  -3 -23 -581.52 1513.61   1
 -16  -3  23 -685.04 1815.67   1
 -16  -3  23 -698.82 1565.43   1
  -3  16 -23  130.75 1325.10   1
 -23  -3  16 1644.80 1755.04   1
 -23  -3  16  116.08 585.822   1
  -3 -16  23   63.73 878.182   1
  23 -16   3 -365.12 741.593   1
   3  23 -16 2072.54 524.969   1
  16   3 -23  -57.33 1637.08   1
  16   3 -23 1835.52 2664.53   1
 -23   3  16 2275.38 2141.99   1
   3 -16  23 1157.53 1306.36   1
  23   3 -16 -463.79 812.038   1
   3  16 -23 2952.26 3317.16   1
   3  16 -23 -503.14 812.148   1
 -23  16  -5 -552.09 871.017   1
  -5 -23  16  947.52 342.299   1
 -16  -5  23 -3170.5 2319.48   1
  -5  16 -23 1103.52 2558.70   1
 -23  -5  16   51.55 536.875   1
  23 -16   5 -616.80 676.661   1
  23 -16   5  288.06 676.771   1
   5 -23  16  669.05 281.997   1
   5  23 -16 1489.36 423.106   1
   5 -16  23 1107.93 1620.55   1
   5 -16  23  512.73 1167.46   1
  23   5 -16    9.80 714.694   1
   5  16 -23  811.16 843.787   1
  -7  23 -16 -188.51 216.073   1
 -23 -16   7   53.56 291.037   1
  -7 -23  16  210.01 241.649   1
 -16  -7  23 -2530.0 2150.81   1
 -16  -7  23 -1046.0 1204.94   1
  23  -7 -16 -507.88 1992.06   1
  -7  16 -23 -686.69 917.759   1
 -23  -7  16 1196.12 630.360   1
  -7 -16  23 -536.76 722.963   1
  -7 -16  23 1023.04 1942.45   1
  23 -16   7  422.55 252.563   1
   7 -23  16  -70.34 229.192   1
  23  16  -7 -264.47 283.871   1
   7  23 -16 -179.03 275.934   1
  16   7 -23 -2369.1 2676.66   1
 -23   7  16   39.04 1499.28   1
 -23   7  16  -62.95 1099.66   1
   7  16 -23  376.69 683.937   1
 -23  16  -9   77.86 110.793   1
  -9  23 -16  348.80 234.594   1
 -23 -16   9  360.60 317.826   1
  -9 -23  16  257.96 305.258   1
 -16  -9  23  172.75 738.396   1
  23  -9 -16 -352.99 548.230   1
  -9  16 -23  769.48 2275.38   1
 -23  -9  16  511.08 433.138   1
  -9 -16  23  254.99 719.766   1
  23 -16   9  -31.26  87.521   1
   9 -23  16 -264.58 293.903   1
  23  16  -9 -281.78 285.635   1
   9  23 -16  301.18 299.415   1
  16   9 -23 -448.02 833.094   1
 -23   9  16 -153.57 615.808   1
   9 -16  23 -296.22 516.370   1
  23   9 -16  -16.30 552.309   1
   9  16 -23 -383.64 702.347   1
 -11  23 -16  308.90 241.208   1
 -23 -16  11 -313.42 308.896   1
 -11 -23  16  178.81 333.149   1
 -16 -23  11  335.02 348.473   1
 -11 -16  23  265.46 669.826   1
  11 -23  16  150.37 340.425   1
  11  23 -16  562.12 350.898   1
  16  11 -23  328.96 644.360   1
  16  23 -11  504.02 328.850   1
 -17   0  23 3816.55 2520.12   1
 -17   0  23 -839.16 1559.91   1
   0 -23  17  123.58 254.106   1
   0  23 -17  -58.31 223.569   1
  17   0 -23 -131.85 3203.61   1
  17   0 -23 1271.08 1611.73   1
 -23   0  17   -3.89 1672.36   1
 -23   0  17 -708.19 972.549   1
   0 -17  23 -1380.2 1124.46   1
   0  17 -23 -257.85 761.768   1
  17  -2 -23 -255.87 1166.35   1
  -2 -23  17    4.63 266.564   1
  23  -2 -17 1622.75 2166.24   1
  23  -2 -17  -999.3 1441.96   1
  -2  17 -23  915.00 1018.96   1
 -23  -2  17 -435.12 765.185   1
  -2 -17  23   37.15 757.799   1
 -17   2  23  257.41 1144.30   1
   2 -23  17    8.02 251.681   1
   2  23 -17  -57.78 223.459   1
  17   2 -23 1596.29 2739.50   1
  17   2 -23  998.79 1508.10   1
   2 -17  23 -1669.1 1699.92   1
  23   2 -17 -430.16 827.802   1
 -17  -4  23 1558.81 2026.24   1
 -17  -4  23 1591.88 1364.79   1
  23  -4 -17 2855.25 2483.74   1
  23  -4 -17  -21.70 1387.94   1
 -23  -4  17 3734.98 2372.39   1
 -23  -4  17 2738.39 908.168   1
  -4 -17  23 3226.76 1019.62   1
 -23   4  17 1054.57 1312.97   1
 -23   4  17 2989.74 2207.03   1
   4 -17  23 2578.54 1921.51   1
   4 -17  23 2915.88 1351.56   1
  23   4 -17 -492.89 824.054   1
   4  17 -23 1011.79 3084.55   1
   4  17 -23 1769.37 967.257   1
  -6  23 -17  568.73 292.911   1
  -6 -23  17  809.83 318.377   1
 -17  -6  23 -2676.7 2251.13   1
 -17  -6  23 -418.92 875.096   1
  -6  17 -23   30.11 676.441   1
 -23  -6  17 -367.88 529.489   1
  -6 -17  23  197.66 640.833   1
  23 -17   6  278.91 624.738   1
  23 -17   6   56.65 276.926   1
   6 -23  17  554.18 346.819   1
  17   6 -23 -3848.5 3094.47   1
  17   6 -23    5.31 990.518   1
 -23   6  17 -312.75 1667.95   1
 -23   6  17  153.13 771.028   1
   6 -17  23 1103.52 1574.25   1
  23   6 -17  -63.06 642.045   1
   6  17 -23 -176.72 840.039   1
 -23 -17   8  198.43 284.533   1
  -8 -23  17  164.70 264.800   1
  -8  17 -23  208.47 2229.08   1
  -8  17 -23  246.28 478.558   1
  -8 -17  23  325.43 707.419   1
  23 -17   8  -41.34 184.875   1
  23  17  -8 -159.96 299.305   1
  17   8 -23 -430.49 836.511   1
 -23   8  17  -82.05 510.638   1
   8 -17  23  -66.57 426.524   1
  23   8 -17 4123.03 1157.53   1
 -10  23 -17  202.18 304.266   1
 -23 -17  10 -430.38 316.723   1
 -17 -10  23 1275.49 1869.69   1
 -17 -10  23 -484.73 581.082   1
 -23 -10  17  -60.13 392.569   1
 -17 -23  10  215.74 319.590   1
  10 -23  17 -168.12 354.316   1
  23  17 -10  349.80 295.777   1
  10  23 -17  -98.65 303.935   1
  10 -17  23 1079.48 1441.96   1
  10 -17  23  237.46 530.481   1
  23  10 -17 -389.15 529.820   1
  10  17 -23  506.12 662.330   1
  18  -1 -23 1513.61 2953.36   1
  18  -1 -23  388.71 779.406   1
  23  -1 -18  313.64 2115.53   1
  23  -1 -18  377.47 889.537   1
 -23  -1  18 -1356.0 2122.15   1
 -18   1  23  -79.91 739.058   1
   1 -23  18  279.02 327.968   1
   1  23 -18 -148.50 263.807   1
 -23   1  18 -609.30 1672.36   1
   1 -18  23  -39.29 585.602   1
  23   1 -18  705.88 955.572   1
   1  18 -23 -572.15 666.740   1
  18  -3 -23  257.85 628.265   1
  -3 -23  18  793.08 431.815   1
 -18  -3  23 -612.06 1911.58   1
 -18  -3  23   11.42 694.631   1
  23  -3 -18 -903.98 2276.48   1
  23  -3 -18 -594.42 780.178   1
 -23  -3  18 -414.29 544.151   1
  -3 -18  23   88.17 1633.78   1
  -3 -18  23 -747.55 628.816   1
 -18   3  23 -685.26 636.423   1
   3 -23  18  847.98 391.136   1
   3  23 -18 1475.03 451.879   1
  18   3 -23 1371.40 2652.41   1
  18   3 -23 -482.09 736.743   1
 -23   3  18 -540.51 1907.17   1
 -23   3  18 -838.39 712.820   1
  23   3 -18  531.58 706.096   1
   3  18 -23  371.29 755.925   1
 -18  -5  23 -1195.0 1952.37   1
 -18  -5  23 -331.72 610.075   1
  -5  18 -23  110.22 2607.21   1
 -23  -5  18 -2779.2 2199.31   1
 -23  -5  18  515.16 626.612   1
  -5 -18  23 -668.61 691.434   1
  18   5 -23 -192.15 748.208   1
  18   5 -23  985.67 2591.77   1
 -23   5  18 -565.43 1723.07   1
 -23   5  18 -524.31 608.312   1
   5 -18  23  685.26 1612.83   1
   5 -18  23 -191.16 559.364   1
  23   5 -18 -120.60 729.136   1
  -7  23 -18   74.03 332.157   1
 -23 -18   7 -269.21 279.131   1
  -7 -23  18   75.33 320.802   1
 -18  -7  23 -683.28 2090.18   1
  -7  18 -23 -2258.8 2641.38   1
  -7  18 -23  439.53 595.193   1
   7  23 -18    7.71 278.800   1
  18   7 -23 -1201.6 917.428   1
 -23   7  18 -114.76 531.253   1
  23   7 -18 -380.88 592.768   1
   7  18 -23 -504.24 587.586   1
  -9  23 -18  203.62 339.654   1
  -9 -23  18 -345.06 353.434   1
 -18  -9  23  334.14 577.554   1
  -9  18 -23 -2004.2 2582.95   1
 -23  -9  18  -24.77 426.193   1
  -9 -18  23 -352.00 526.402   1
  23  18  -9   86.52 308.014   1
   9  23 -18  225.00 304.376   1
  18   9 -23 -276.26 565.648   1
   9 -18  23 -837.39 1482.75   1
   9 -18  23   -0.08 586.815   1
  23   9 -18 -363.13 592.106   1
   9  18 -23  437.00 558.262   1
 -19   0  23 -698.16 1782.60   1
 -19   0  23  384.41 614.485   1
   0 -23  19  -81.45 384.632   1
   0  23 -19  -48.20 311.542   1
 -23   0  19 1499.28 2040.57   1
 -23   0  19 -188.62 533.347   1
   0 -19  23  105.85 570.389   1
  23   0 -19  -10.36 729.467   1
  23   0 -19  124.46 2280.89   1
   0  19 -23  166.13 637.966   1
  19  -2 -23 1999.78 3179.36   1
  19  -2 -23  -40.57 653.841   1
  -2 -23  19  208.03 385.404   1
 -19  -2  23 -2980.9 2423.10   1
 -19  -2  23  449.56 618.233   1
  23  -2 -19 -285.97 2275.38   1
  -2  19 -23  476.24 591.555   1
  -2 -19  23 -1060.9 685.150   1
   2 -23  19 -694.52 418.366   1
   2  23 -19  115.97 377.136   1
  19   2 -23 -345.17 2681.07   1
  19   2 -23 -187.30 664.865   1
 -23   2  19 2304.04 2277.59   1
 -23   2  19  118.29 553.081   1
  23   2 -19   17.19 809.833   1
   2  19 -23  487.60 670.598   1
  19  -4 -23   55.29 562.341   1
  23  -4 -19 -311.87 757.799   1
 -23  -4  19 5716.01 3360.16   1
 -23  -4  19 1321.79 649.983   1
 -19   4  23  470.07 586.594   1
  19   4 -23 1122.26 2736.19   1
  19   4 -23  644.03 747.105   1
 -23   4  19  -94.96 621.210   1
   4 -19  23  564.77 678.315   1
   4  19 -23 1404.47 809.502   1
 -19  -6  23 2167.34 2444.05   1
 -19  -6  23 -102.20 685.370   1
  23  -6 -19 -1134.4 2545.47   1
  23  -6 -19  -51.90 792.745   1
  -6  19 -23  250.91 637.636   1
 -23  -6  19  345.50 535.552   1
  -6 -19  23  506.56 498.401   1
   6  23 -19  278.14 329.842   1
   6 -19  23 -2273.2 1962.30   1
  23   6 -19  168.89 642.376   1
   6  19 -23    6.46 629.257   1
  20  -1 -23 1186.20 3214.64   1
  20  -1 -23 -347.26 778.414   1
  -1  23 -20  218.72 353.434   1
 -20  -1  23 -1710.9 2143.09   1
 -20  -1  23  121.38 843.787   1
  -1  20 -23   79.02 577.995   1
 -23  -1  20 -571.71 2168.45   1
 -23  -1  20 -483.30 679.307   1
  -1 -20  23 -466.98 542.497   1
 -20   1  23 -204.83 1903.87   1
 -20   1  23  712.82 805.203   1
   1  23 -20 -416.93 361.702   1
  20   1 -23  362.91 811.266   1
  20   1 -23 3967.58 3450.55   1
 -23   1  20 -3220.1 2537.76   1
 -23   1  20 -362.25 721.860   1
   1 -20  23 -774.34 548.671   1
   1 -20  23 1282.11 1898.36   1
  23   1 -20 -592.66 2570.83   1
  23   1 -20  -75.36 859.662   1
  20  -3 -23  701.36 872.560   1
  -3 -23  20 1620.55 573.145   1
  23  -3 -20 -1949.1 2498.07   1
  23  -3 -20 -483.63 859.331   1
   3  23 -20 1236.91 473.486   1
  20   3 -23 -429.61 885.128   1
  23   3 -20   47.57 894.608   1
   3  20 -23 -726.38 560.136   1
 -24   0   0 2719.65 664.645   1
  24   0   0 2625.95 635.541   1
  24   1   1 -214.97 243.413   1
  24  -1  -1 -179.80 242.200   1
 -24   1  -1  -91.83 242.862   1
 -24  -1  -1    3.58 234.042   1
 -24   1   1   54.71 254.547   1
  24   1  -1  208.80 255.209   1
 -24  -2   0 7585.71 1696.61   1
 -24   2   0  13042. 2875.09   1
  24  -2   0  12402. 2742.80   1
  24   2   0 9756.36 2164.04   1
  24   0  -2  12501. 2760.44   1
  24  -2  -2  592.99 303.715   1
 -24   2  -2 -220.15 216.624   1
 -24   2   2  271.30 279.903   1
  24  -2   2 -119.50 217.065   1
  24   2  -2    9.92 229.853   1
 -24   3  -1 -152.46 258.957   1
  24  -1  -3 1744.02 483.959   1
  24  -3   1  155.88 235.916   1
  24   3  -1  450.34 258.957   1
  24   1  -3  289.27 273.839   1
  24  -3  -3 -151.36 387.939   1
 -24   3  -3  202.29 196.450   1
 -24  -3   3   42.24 274.060   1
  24  -3   3  -40.11 202.624   1
 -24   4   0  22974. 5045.75   1
  24  -4   0  27637. 6069.89   1
  24   0  -4  22225. 4894.71   1
  24  -4  -2 1658.03 532.025   1
 -24   4  -2 1350.46 373.498   1
 -24  -4   2 1536.76 432.477   1
  24  -2  -4 2095.69 626.060   1
 -24  -2   4 1309.67 422.334   1
 -24   4   2 1585.27 521.772   1
  24  -4   2 1240.21 347.811   1
  24  -4  -4  250.69 404.365   1
 -24  -4   4  394.88 304.376   1
  24   4  -4   14.82 258.847   1
  24  -5  -1 6499.83 1477.23   1
 -24  -5   1 3815.45 891.191   1
  24  -1  -5 6252.89 1458.49   1
 -24   5   1 6943.00 1569.84   1
  24  -5   1 5722.63 1288.72   1
  24   5  -1 3823.17 892.955   1
  24  -5  -3  220.92 398.853   1
 -24   5  -3  530.70 230.735   1
 -24  -5   3  849.30 341.858   1
  24  -3  -5 -290.38 416.271   1
 -24  -3   5  -59.74 301.730   1
  24   5  -3  125.12 276.926   1
  24   3  -5 -117.41 304.266   1
  24  -5  -5  529.49 506.890   1
 -24  -5   5  177.93 295.888   1
  -5  -5  24 1033.18 2294.12   1
   5   5 -24 -949.51 1968.91   1
 -24   6   0  112.34 318.377   1
  24  -6   0  160.51 338.772   1
 -24   0   6 1251.24 568.845   1
  24   0  -6  728.58 550.214   1
  24  -6  -2  444.71 379.340   1
 -24  -6   2  428.95 279.792   1
  24  -2  -6  644.25 462.903   1
 -24  -2   6  364.46 409.987   1
  24  -6   2  288.83 203.395   1
  24   6  -2   -4.89 272.627   1
  24  -6  -4  402.16 432.697   1
 -24  -6   4  889.43 340.756   1
  24  -4  -6  358.61 495.865   1
 -24  -4   6  954.14 389.372   1
  -4  -6  24 -464.23 1981.04   1
  24  -6   4  219.82 182.449   1
   6   4 -24   80.95 2090.18   1
   4   6 -24 -571.71 1607.32   1
  24  -6  -6  206.48 565.317   1
 -24  -6   6  917.65 351.780   1
  -6  -6  24   96.05 1835.52   1
  24   6  -6  610.85 330.173   1
  24  -7  -1  472.60 369.749   1
 -24   7  -1  508.98 313.085   1
  24  -1  -7  133.50 444.713   1
 -24  -1   7  372.73 481.424   1
 -24   7   1 1033.18 457.171   1
  24  -7   1  346.16 324.661   1
 -24   7  -3  118.51 188.954   1
  24  -3  -7  150.26 502.700   1
 -24  -3   7  676.33 441.296   1
  -3  -7  24  922.61 1895.05   1
 -24   7   3 -176.17 468.415   1
  24  -7   3   63.75 189.615   1
   3   7 -24 -276.49 1479.44   1
  24  -7  -5 -170.10 1385.73   1
 -24   7  -5 1180.68 326.976   1
  -7  -5  24  499.28 1847.64   1
  24  -5  -7  628.82 628.375   1
 -24  -5   7 2682.17 691.103   1
 -24   7   5 1464.00 671.039   1
  24   7  -5 1275.49 402.932   1
  24   5  -7 1662.44 510.307   1
   5   7 -24  168.34 2101.20   1
  24  -7  -7 -294.23 1260.06   1
  -7  -7  24 2495.86 2219.16   1
  -7  -7  24  439.97 3040.46   1
  24   7  -7  -76.52 309.778   1
   7   7 -24 3970.89 4153.89   1
   7   7 -24 1656.93 2860.76   1
 -24   8   0  620.55 410.539   1
  24  -8   0  291.04 345.166   1
  24   0  -8  463.67 480.321   1
   0   8 -24 1383.53 1586.37   1
 -24   8  -2  278.80 285.745   1
 -24  -8   2  -89.57 225.333   1
  24  -2  -8 -348.80 536.985   1
 -24  -2   8  625.07 483.629   1
  -2  -8  24 -1150.9 1775.99   1
 -24   8   2  512.84 439.312   1
  24  -8   2 -312.31 277.257   1
   2   8 -24  429.61 1433.14   1
 -24   8  -4 1794.73 443.280   1
 -24  -8   4 1504.79 428.728   1
  -8  -4  24  111.01 1927.02   1
  24  -4  -8  939.26 665.858   1
 -24  -4   8 2995.26 813.250   1
  -4  -8  24 -880.72 2382.31   1
 -24   8   4  305.04 683.606   1
  24  -8   4 1495.97 385.293   1
   8   4 -24 -428.18 2074.74   1
 -24   4   8   42.17 1493.77   1
   4   8 -24 1587.47 3528.82   1
   4   8 -24  413.74 2107.81   1
 -24  -8   6  426.96 310.991   1
  -8  -6  24 -2503.6 2149.71   1
  -8  -6  24 -237.13 3043.76   1
 -24  -6   8  490.35 360.930   1
  -6  -8  24 -3735.0 2610.51   1
  -6  -8  24 -992.50 3172.75   1
 -24   8   6 1476.13 1925.92   1
 -24   8   6 1817.88 1395.66   1
   8   6 -24 -2416.5 3672.14   1
   8   6 -24 -2220.3 2983.13   1
  24   6  -8  187.96 350.126   1
   6   8 -24 -4228.9 4199.09   1
  24  -8  -8 1138.79 1456.29   1
  24  -8  -8 -1319.6 2685.48   1
  -8  -8  24 -1740.7 4789.99   1
  24   8  -8 -421.78 314.078   1
   8   8 -24 1771.58 3112.11   1
   8   8 -24 -2545.5 4362.25   1
 -24   9  -1  333.26 367.545   1
  24  -1  -9  280.56 570.609   1
  -1   9 -24 -380.44 1535.66   1
  -1  -9  24 -209.13 1737.40   1
 -24   9   1   50.16 419.137   1
  24  -9   1 -326.76 350.567   1
 -24   1   9  933.85 665.747   1
   1  -9  24 1029.98 1966.71   1
  24   1  -9 -294.45 521.441   1
  24  -9  -3 5432.69 1411.09   1
 -24  -9   3 3848.52 900.782   1
  -9  -3  24  668.50 2100.10   1
  24  -3  -9 4103.18 1144.30   1
  -3  -9  24   11.19 1834.42   1
  -3  -9  24 -2011.9 2519.01   1
  24  -9   3 6139.34 1368.09   1
  24   9  -3 4188.07 973.541   1
   9   3 -24 -265.13 2111.12   1
 -24   3   9 1921.51 2096.79   1
 -24   3   9 4618.01 1221.47   1
   3   9 -24 -1362.6 3665.52   1
   3   9 -24 -1376.9 2065.92   1
 -24   9  -5  13582. 2989.74   1
 -24  -9   5  10155. 2256.64   1
  24  -5  -9 9113.65 2361.37   1
  -5  -9  24 2584.06 2274.28   1
 -24   9   5  10338. 5341.19   1
 -24   9   5 7872.33 2498.07   1
  24  -9   5  11509. 2533.35   1
  24   9  -5  11840. 2622.64   1
   9   5 -24 2871.79 3981.92   1
   9   5 -24 -1461.8 3674.34   1
 -24   5   9  11000. 2786.90   1
  24  -9  -7 -440.74 1392.35   1
 -24  -9   7 1012.02 368.978   1
  24  -7  -9   91.37 1402.27   1
  24  -7  -9  -34.83 2698.71   1
 -24  -7   9 -107.38 344.063   1
  -7  -9  24 -1820.1 5323.55   1
  -7  -9  24 3429.61 2487.04   1
 -24   9   7 113769.  55848.   1
 -24   9   7 -1252.3 2999.67   1
  24   9  -7  437.22 342.850   1
   9   7 -24 -4439.4 4614.70   1
  24   7  -9  938.59 411.972   1
   7   9 -24  792.52 2943.44   1
   7   9 -24 -421.67 3900.34   1
  24  -9  -9 -337.67 1308.56   1
  24  -9  -9 2919.19 3281.88   1
 -24  -9   9  576.78 327.637   1
  -9  -9  24 1342.74 1961.19   1
  -9  -9  24 -3996.2 4471.39   1
 -24   9   9 -1516.9 1742.92   1
   9   9 -24 -1027.9 2736.19   1
 -24  10   0  420.13 447.470   1
 -24   0  10  918.97 587.145   1
  24   0 -10  771.91 615.808   1
   0  10 -24   63.60 2042.77   1
  24 -10  -2 -442.29 699.261   1
 -24  10  -2  741.59 387.719   1
 -10  -2  24 3249.91 2941.24   1
  24  -2 -10 -387.94 678.205   1
  -2  10 -24 -228.20 1555.51   1
  -2 -10  24 -348.25 1888.43   1
  -2 -10  24 1771.58 2939.03   1
  24 -10   2  522.32 360.379   1
  10   2 -24 -5182.4 2813.36   1
 -24   2  10  249.70 680.850   1
   2 -10  24 -632.79 2222.46   1
   2  10 -24 -1223.7 4081.13   1
   2  10 -24 -1923.7 2098.99   1
  24 -10  -4 1478.34 1386.84   1
  24 -10  -4  629.92 1874.10   1
 -24 -10   4 3808.84 888.214   1
  24  -4 -10  638.19 991.400   1
 -24  10   4 5964.06 3332.59   1
  24 -10   4 5163.70 1152.02   1
  24  10  -4 2650.20 672.252   1
  10   4 -24   39.94 4067.90   1
  10   4 -24 6860.32 4749.20   1
 -24   4  10 3722.85 1522.43   1
   4  10 -24 1062.06 3145.18   1
 -24  10  -6 1045.20 297.541   1
 -24 -10   6 1125.56 384.191   1
 -10  -6  24 2145.30 2117.74   1
 -10  -6  24 -2828.8 4673.13   1
  24  -6 -10 -737.40 1479.44   1
  24  -6 -10  716.68 2446.25   1
 -24  -6  10  130.08 482.416   1
  -6 -10  24 2272.07 2222.46   1
  -6 -10  24 -4026.0 4923.38   1
 -24  10   6 -861.76 1632.67   1
 -24  10   6 -2872.9 3238.89   1
  24 -10   6  110.90 156.873   1
  24  10  -6  566.42 315.731   1
 -24   6  10  494.43 1718.66   1
 -24   6  10 -1492.7 2676.66   1
  24   6 -10  279.35 509.535   1
   6  10 -24 -3080.1 3198.10   1
   6  10 -24 -1918.2 3572.92   1
  24 -10  -8 -212.10 1163.05   1
  24 -10  -8 2617.13 3148.49   1
 -24 -10   8  -54.77 286.738   1
 -10  -8  24 -1450.8 4539.74   1
 -10  -8  24 -1499.3 1977.73   1
  24  -8 -10 -303.38 3258.73   1
  24  -8 -10  -999.7 1394.55   1
  -8 -10  24 -2191.6 2184.98   1
 -24  10   8 -2264.4 3245.50   1
  24  10  -8  132.62 309.999   1
  10   8 -24 3976.40 4066.80   1
  10   8 -24  893.73 2671.15   1
  24   8 -10    5.48 362.473   1
   8  10 -24  565.10 3351.34   1
  24 -10 -10 -287.73 1440.85   1
  24 -10 -10  796.71 1559.91   1
 -24 -10  10 -113.77 319.369   1
 -10 -10  24 -2348.1 2121.04   1
 -10 -10  24 1637.08 2218.06   1
 -24  10  10 1430.93 1666.85   1
 -24  10  10 -809.39 1604.01   1
  24  10 -10  308.01 377.246   1
  10  10 -24  415.17 2666.74   1
  10  10 -24  462.57 2128.76   1
  24  -1 -11  628.49 739.168   1
  -1  11 -24  954.36 3409.76   1
  -1  11 -24 -750.41 2621.54   1
 -24  -1  11  645.79 584.389   1
  -1 -11  24 -3452.8 3784.58   1
  -1 -11  24  778.08 1836.62   1
  11   1 -24 -380.88 3188.18   1
 -24   1  11  683.17 742.916   1
  24 -11  -3  223.79 1161.94   1
  24 -11  -3  304.60 2450.66   1
  24  -3 -11   41.27 924.594   1
  -3  11 -24 1800.24 2299.63   1
  -3 -11  24 -1080.8 4146.18   1
 -24  11   3  647.45 1662.44   1
  24 -11   3  171.54 349.465   1
 -24   3  11 -1242.4 1210.45   1
   3 -11  24 -316.39 2539.96   1
  24   3 -11  234.59 616.800   1
   3  11 -24 -4514.4 4156.10   1
   3  11 -24 -827.14 3411.97   1
  24 -11  -5 -555.95 1159.74   1
  24 -11  -5 1069.01 2868.48   1
 -24  11  -5 1057.54 315.621   1
 -24 -11   5   37.90 275.493   1
 -11  -5  24 -517.03 1910.48   1
 -11  -5  24 -2695.4 4842.90   1
  24  -5 -11 1081.25 1734.10   1
  -5 -11  24 -2220.3 4505.56   1
  -5 -11  24 3170.54 2438.54   1
 -24  11   5 -1035.6 1530.15   1
  24 -11   5 1315.18 338.331   1
  24  11  -5  276.60 308.896   1
  11   5 -24  376.47 3508.98   1
 -24   5  11 2962.18 2272.07   1
 -24   5  11 1297.54 2342.63   1
   5  11 -24 -608.53 2846.43   1
 -24  11  -7  157.31 158.417   1
 -24 -11   7 -171.65 255.870   1
  -7 -24  11  -91.95 209.789   1
 -11  -7  24  968.80 1965.60   1
 -11  -7  24 -1046.4 3922.39   1
 -24  -7  11  441.85 461.029   1
 -24  11   7 -315.29 1408.88   1
 -24  11   7 -1587.5 2619.33   1
  24  11  -7 -443.17 311.542   1
  11   7 -24 1466.21 2767.06   1
  11   7 -24 1721.97 3747.10   1
 -24   7  11  440.86 1660.23   1
 -24   7  11 1476.13 3214.64   1
  24   7 -11  725.83 536.875   1
   7  11 -24  513.95 2751.62   1
   7  11 -24 -509.20 2823.28   1
  24 -11  -9 1257.85 1518.02   1
  24 -11  -9 -954.47 1412.19   1
 -24 -11   9  618.12 317.164   1
  -9 -24  11  258.52 257.965   1
 -11  -9  24 -605.67 2098.99   1
  -9 -11  24  565.65 1907.17   1
  -9 -11  24  429.94 2167.34   1
  24  11  -9  203.17 319.369   1
  11   9 -24  381.77 1859.77   1
  11   9 -24 -4288.4 3289.60   1
  24   9 -11   52.96 394.554   1
   9  11 -24 -2364.7 2968.80   1
   9  11 -24  512.07 1800.24   1
 -24 -11  11 -305.48 338.331   1
 -11 -24  11  360.49 312.865   1
 -11 -11  24 -557.60 1846.54   1
 -11 -11  24 -223.46 1533.46   1
 -24  11  11  -63.91 1127.77   1
  24  11 -11  302.83 336.457   1
  11  24 -11   78.57 308.565   1
   0 -24  12  395.99 221.365   1
   0  24 -12  587.59 235.034   1
  12   0 -24  161.61 3545.36   1
 -24   0  12  452.65 740.601   1
   0 -12  24 -103.86 1719.76   1
  24 -12  -2  344.39 1156.43   1
  24 -12  -2 -153.01 2791.31   1
  -2 -24  12  244.40 228.971   1
 -12  -2  24 3386.61 3589.46   1
  -2  12 -24 2211.44 3636.86   1
  -2  12 -24 -939.81 3008.49   1
 -24  -2  12  860.76 614.595   1
  -2 -12  24 -5601.4 4738.17   1
  -2 -12  24  942.12 1837.72   1
 -24  12   2  953.26 1604.01   1
 -24  12   2 3880.49 3080.14   1
  24 -12   2 -149.49 437.768   1
   2 -24  12  313.86 200.639   1
   2  24 -12  -26.81 217.396   1
 -24   2  12  321.46 1057.21   1
   2 -12  24 -1274.4 3413.07   1
   2 -12  24   -4.00 1628.26   1
  24   2 -12  658.47 769.925   1
   2  12 -24 1924.81 3586.15   1
   2  12 -24 2135.37 3512.29   1
  24 -12  -4  890.75 1218.17   1
  24 -12  -4 -463.79 2565.32   1
 -24 -12   4   21.66 235.145   1
  -4 -24  12  448.46 253.114   1
 -12  -4  24 -1572.0 1942.45   1
 -12  -4  24  357.07 4334.69   1
  -4 -12  24 1351.56 2074.74   1
  -4 -12  24 1293.13 4420.68   1
 -24  12   4 -186.42 3156.21   1
  24 -12   4 1028.77 416.161   1
   4 -24  12  406.68 202.844   1
   4  24 -12  533.35 252.673   1
  12   4 -24 3647.89 3878.29   1
  12   4 -24 -317.72 4594.86   1
 -24   4  12 -631.13 1665.75   1
 -24   4  12 -758.35 1853.16   1
   4 -12  24 -1531.3 2478.22   1
  24   4 -12  376.25 662.771   1
  24 -12  -6    9.01 1339.43   1
  24 -12  -6  663.87 2025.13   1
 -24  12  -6  269.76 185.646   1
 -24 -12   6  396.54 290.265   1
  -6 -24  12   98.31 210.340   1
 -12  -6  24 -576.89 1620.55   1
 -12  -6  24 3163.93 3577.33   1
  -6 -12  24 1084.44 1837.72   1
  -6 -12  24 1350.46 2750.52   1
 -24  12   6  716.79 1425.42   1
  24 -12   6   50.42 133.723   1
   6 -24  12 -235.92 166.464   1
  24  12  -6   70.48 288.391   1
   6  24 -12   66.11 227.097   1
  12   6 -24  164.59 3137.47   1
  12   6 -24 2119.94 2844.23   1
 -24   6  12 3785.69 2533.35   1
 -24   6  12 2522.32 2747.21   1
   6  12 -24 1724.17 2964.39   1
   6  12 -24  745.67 2502.48   1
  -8 -24  12  114.32 255.980   1
  24  -8 -12 -989.42 1437.55   1
  24  -8 -12  -61.27 1549.99   1
 -24  -8  12 -300.41 475.361   1
  -8 -12  24  871.35 1879.61   1
  -8 -12  24 -619.12 1641.49   1
 -24  12   8 -187.41 1111.23   1
  24  12  -8  385.18 307.573   1
   8  24 -12  383.75 270.973   1
  12   8 -24 -458.82 1650.31   1
 -24   8  12  -92.11 1626.06   1
  24   8 -12  925.37 574.357   1
   8  12 -24 3656.70 3311.65   1
  24 -12 -10  765.96 984.786   1
 -24 -12  10  520.12 318.928   1
 -10 -24  12  246.50 280.454   1
 -12 -10  24 -3460.5 2588.47   1
 -12 -10  24 -941.68 1515.82   1
  24 -10 -12 -1483.8 1784.81   1
  24 -10 -12 -203.73 1263.37   1
 -24 -10  12  914.12 508.874   1
 -24  12  10   76.76 1195.02   1
  24  12 -10  595.52 329.842   1
  10  24 -12   77.06 294.455   1
  12  10 -24 7511.84 4576.12   1
  24  10 -12  746.77 511.630   1
  10  12 -24  -66.98 1464.00   1
  24 -12 -12 -129.86 601.036   1
 -24 -12  12 1036.05 439.642   1
 -12 -24  12 1558.81 499.283   1
 -12 -12  24 -686.91 965.052   1
  24  12 -12 1490.46 500.937   1
  12  24 -12 1071.77 413.736   1
  12  12 -24 -467.64 748.318   1
  24 -13  -1   62.66 1210.45   1
 -24  13  -1 5038.03 2783.59   1
 -13  -1  24 -2045.0 2664.53   1
  -1  13 -24  157.09 2444.05   1
 -24  -1  13 6011.46 1574.25   1
  -1 -13  24 -1104.6 3448.35   1
  -1 -13  24 2850.84 2362.47   1
 -24  13   1 -2063.7 1703.23   1
  24 -13   1 -655.72 1466.21   1
  13   1 -24 -568.40 2717.45   1
 -24   1  13 2500.27 1154.23   1
   1  13 -24 6946.31 4814.24   1
   1  13 -24 -4284.0 3198.10   1
  24 -13  -3 1469.52 2315.07   1
 -24  13  -3 1372.50 697.166   1
  -3  24 -13    4.56 197.552   1
 -13  -3  24 -1417.7 1962.30   1
 -13  -3  24  128.76 3295.11   1
  24  -3 -13 -134.60 2004.19   1
  -3  13 -24 -9467.5 5719.32   1
  -3  13 -24 -163.38 2176.16   1
 -24  -3  13 -1137.7 635.321   1
 -24  13   3 -797.15 1346.05   1
 -24  13   3 2699.81 2338.22   1
  24 -13   3  305.81 398.412   1
   3  24 -13  224.56 222.136   1
  13   3 -24 2397.75 3416.38   1
  13   3 -24 6741.26 4939.91   1
 -24   3  13 -1507.0 2102.30   1
   3 -13  24 -3063.6 2069.23   1
   3 -13  24 1361.48 2479.33   1
  24   3 -13  328.85 756.255   1
   3  13 -24 -133.72 3414.17   1
   3  13 -24 -497.85 2446.25   1
  24 -13  -5 1634.88 1661.34   1
  24 -13  -5  159.52 1457.39   1
  -5  24 -13   20.73 196.560   1
 -24 -13   5 -496.09 282.108   1
  24  -5 -13 1569.84 1698.82   1
  24  -5 -13   16.02 1785.91   1
  -5 -13  24 -2782.5 2186.09   1
  -5 -13  24 1601.81 2061.51   1
 -24  13   5  135.93 1296.44   1
  24 -13   5 -628.16 326.204   1
  24  13  -5 -175.28 274.391   1
   5  24 -13  211.33 250.799   1
  13   5 -24 4214.53 3591.66   1
  13   5 -24 -936.61 2229.08   1
  24   5 -13   -9.58 590.012   1
   5  13 -24 3156.21 3213.53   1
   5  13 -24  -66.12 1687.79   1
  24 -13  -7 1271.08 1013.12   1
 -24  13  -7  269.21 181.126   1
  -7  24 -13  368.87 217.837   1
 -24 -13   7  351.78 285.635   1
  -7 -24  13  483.63 258.847   1
 -13  -7  24 2078.05 2043.87   1
 -13  -7  24 -1978.8 1863.08   1
  24  -7 -13  988.20 1484.95   1
  24  -7 -13  844.01 1433.14   1
  -7  13 -24 1147.61 1171.87   1
  -7 -13  24 1337.23 1887.33   1
  -7 -13  24  175.17 1656.93   1
 -24  13   7 -519.35 1197.22   1
  24 -13   7  236.80 147.393   1
   7  24 -13  289.71 307.794   1
  24   7 -13 -250.14 542.497   1
  -9  24 -13 1006.61 309.227   1
 -24 -13   9 1767.17 553.742   1
  -9 -24  13  979.16 346.488   1
 -13  -9  24 -2224.7 2090.18   1
 -13  -9  24 -350.68 1738.51   1
  24  -9 -13 -123.03 1616.14   1
  24  -9 -13 -691.21 1265.57   1
 -24  -9  13 2347.04 715.356   1
  -9 -13  24  322.68 1374.71   1
   9 -24  13  912.91 323.338   1
  13   9 -24 2461.69 2951.16   1
  13   9 -24 -126.67 1568.73   1
 -24   9  13  403.48 1546.69   1
  24   9 -13 3052.58 882.812   1
   9  13 -24 -1288.7 1258.96   1
 -11  24 -13 2602.80 612.831   1
 -11 -24  13 2365.78 621.651   1
 -13 -11  24  -74.59 863.410   1
 -24 -11  13 3382.20 876.859   1
 -13 -24  11 2106.71 613.824   1
 -11 -13  24 -158.86 887.112   1
  11 -24  13 2221.36 560.467   1
  24  13 -11 2891.63 726.711   1
  13  24 -11 1406.68 449.344   1
  11  13 -24 -2822.2 3362.36   1
 -24 -13  13  516.92 391.687   1
 -13 -24  13  499.94 350.237   1
 -13 -13  24 -301.07 674.346   1
  13 -24  13   39.96 219.601   1
  24  13 -13  206.26 372.505   1
  13  13 -24    6.80 692.536   1
 -14   0  24 -277.48 1573.14   1
  24 -14   0 -846.54 1032.74   1
  24 -14   0  100.95 1185.09   1
   0 -24  14 3571.82 828.904   1
   0  24 -14 2377.91 581.743   1
  14   0 -24  935.84 1660.23   1
 -24   0  14  167.13 791.753   1
   0 -14  24 -2966.6 2199.31   1
   0 -14  24  -53.81 1946.86   1
   0  14 -24 1893.95 3438.43   1
  24 -14  -2 -1848.7 1494.87   1
  24 -14  -2    1.09 1241.32   1
 -24  14  -2 2998.56 1897.25   1
 -14  -2  24 -1984.3 2035.05   1
  -2  14 -24 -1414.4 3062.50   1
  -2  14 -24 -329.40 1391.25   1
 -24  -2  14 3417.48 1025.02   1
  -2 -14  24 -2059.3 1859.77   1
 -24  14   2 -644.03 1256.75   1
  24 -14   2 -582.40 1027.56   1
  24 -14   2 2599.49 1610.63   1
  14   2 -24 -565.98 2039.46   1
  14   2 -24 1993.16 3350.23   1
   2 -14  24 1179.58 1454.08   1
  24   2 -14 1234.70 808.179   1
   2  14 -24 -1555.5 3337.00   1
   2  14 -24 -2999.7 1692.20   1
  24 -14  -4  532.58 953.918   1
  -4  24 -14   36.47 198.324   1
  -4 -24  14 -286.30 238.452   1
  24  -4 -14 -1858.7 1888.43   1
  24  -4 -14 -1457.4 1730.79   1
 -24  -4  14   83.04 502.590   1
  -4 -14  24  220.59 1843.23   1
  -4 -14  24 -941.13 1389.04   1
 -24  14   4  787.78 1172.97   1
  24 -14   4 -364.68 339.102   1
   4 -24  14 -356.63 197.001   1
   4  24 -14  124.46 216.624   1
  14   4 -24  671.48 1818.98   1
 -24   4  14 -1195.0 1670.16   1
   4 -14  24 -1640.4 1616.14   1
   4 -14  24 -776.98 1369.20   1
  24   4 -14 -716.68 656.267   1
   4  14 -24 2515.71 3755.92   1
  -6  24 -14  199.87 190.277   1
 -24 -14   6  247.93 274.611   1
  -6 -24  14  155.44 239.554   1
 -14  -6  24 1505.90 1911.58   1
 -14  -6  24  528.39 1710.95   1
  24  -6 -14 2535.55 1955.68   1
  24  -6 -14   84.57 1516.92   1
  24 -14   6  277.70 257.303   1
   6 -24  14  -71.93 188.513   1
  24  14  -6 -251.68 287.399   1
   6  24 -14  266.12 236.357   1
  14   6 -24 -1924.8 2662.33   1
 -24   6  14 -784.48 1607.32   1
 -24   6  14 -796.93 1527.94   1
  24   6 -14  -56.44 575.680   1
   6  14 -24  695.51 1223.68   1
 -24  14  -8  604.34 192.481   1
  -8  24 -14  623.08 233.601   1
 -24 -14   8 2272.07 603.571   1
  -8 -24  14 1134.38 372.726   1
 -14  -8  24 3550.87 2495.86   1
 -14  -8  24  471.17 1316.28   1
  24  -8 -14 -2957.8 2208.13   1
  24  -8 -14 -139.35 1143.20   1
  -8  14 -24  411.97 798.919   1
 -24  -8  14 -279.13 479.109   1
  -8 -14  24 -498.18 1212.65   1
  24 -14   8  954.80 249.145   1
  24  14  -8 2230.18 599.713   1
   8  24 -14 1028.44 353.764   1
  14   8 -24 -2745.0 2855.25   1
  14   8 -24 -1011.6 1402.27   1
 -24   8  14 -656.16 1058.98   1
 -24   8  14 1282.11 1676.77   1
   8 -14  24  438.10 831.330   1
  24   8 -14  796.38 579.208   1
   8  14 -24 -1109.0 838.606   1
 -10  24 -14  747.00 256.421   1
 -24 -14  10  777.86 360.489   1
 -10 -24  14 1461.80 468.195   1
  24 -10 -14 -115.53 464.226   1
 -24 -10  14   26.60 479.660   1
 -10 -14  24 3609.30 2463.89   1
 -10 -14  24 -1109.0 785.690   1
  10 -24  14  770.04 312.093   1
  10  24 -14 1229.19 412.303   1
  14  10 -24 -1120.1 895.270   1
  14  10 -24  558.59 2550.98   1
 -24  10  14   45.01 532.245   1
  24  10 -14  625.29 571.822   1
 -12  24 -14  376.80 220.262   1
 -12 -24  14    8.50 359.607   1
 -14 -12  24 2294.12 2162.93   1
 -14 -12  24  594.75 666.188   1
 -24 -12  14  452.98 404.034   1
 -14 -24  12  710.62 388.711   1
  12 -24  14  597.84 275.714   1
  24  14 -12  113.66 326.755   1
  12  24 -14  576.89 341.638   1
  14  24 -12   67.31 319.149   1
  12  14 -24 -1264.5 3402.05   1
  12  14 -24 -225.77 697.938   1
  24 -15  -1 -518.35 876.970   1
  15  -1 -24 -697.17 1296.44   1
 -24  15  -1  498.73 1003.31   1
 -24  15  -1  455.63 803.659   1
  -1 -24  15 -374.82 244.405   1
  24  -1 -15 1057.99 1309.67   1
  -1  15 -24 -156.87 1155.33   1
 -24  -1  15  138.90 727.593   1
  -1 -15  24 -3857.3 2523.42   1
  -1 -15  24 -739.39 1522.43   1
 -24  15   1 -638.63 962.627   1
 -15   1  24 -1460.7 1380.22   1
  24 -15   1 1619.44 1366.99   1
  24 -15   1  475.47 962.958   1
   1 -24  15  -89.99 215.632   1
   1  24 -15 -303.16 265.130   1
  15   1 -24 -2638.1 3294.01   1
  15   1 -24 -1462.9 1607.32   1
   1 -15  24  869.36 1570.94   1
  24   1 -15   89.55 765.295   1
   1  15 -24  758.24 3114.32   1
   1  15 -24 -801.45 1131.08   1
 -24  15  -3 -332.60 1025.57   1
  -3 -24  15  906.85 368.647   1
 -15  -3  24  808.73 1764.96   1
 -15  -3  24  236.36 1530.15   1
  -3  15 -24 -607.87 1137.69   1
  -3  15 -24 2558.70 3066.91   1
 -24  -3  15 -102.92 565.097   1
  -3 -15  24 2014.11 2079.15   1
  -3 -15  24 -2309.6 1475.03   1
  24 -15   3  240.88 887.002   1
  24 -15   3 1428.73 1027.34   1
   3 -24  15 1117.85 324.991   1
   3  24 -15  760.00 303.164   1
 -24   3  15 -762.65 1605.11   1
 -24   3  15 -1327.3 1341.64   1
   3 -15  24 -2278.7 1393.45   1
   3 -15  24  168.34 1448.57   1
  24   3 -15  184.43 709.623   1
 -15  -5  24 -472.71 1795.83   1
 -15  -5  24  -46.20 1489.36   1
  24  -5 -15 -1075.5 1793.63   1
 -24  -5  15  185.87 518.465   1
  -5 -15  24  -23.76 1089.51   1
  24 -15   5 -573.59 349.355   1
   5 -24  15  142.10 201.852   1
   5  24 -15  -96.46 264.689   1
  15   5 -24 -459.27 1414.40   1
  15   5 -24 -1487.2 2548.78   1
 -24   5  15 -195.57 1289.82   1
 -24   5  15 1826.70 1908.28   1
   5 -15  24  76320.  37493.   1
  24   5 -15  288.83 662.109   1
   5  15 -24  555.51 1046.74   1
 -24 -15   7 -179.47 263.807   1
 -15  -7  24 -2349.2 2155.22   1
 -15  -7  24 -505.02 889.206   1
  -7  15 -24  525.96 2574.13   1
  -7  15 -24  294.68 638.628   1
  -7 -15  24  330.06 763.531   1
  24 -15   7  -35.96 204.939   1
   7 -24  15   11.51 202.403   1
  24  15  -7 -237.79 282.548   1
   7  24 -15  286.30 270.312   1
  15   7 -24 -211.22 938.264   1
  15   7 -24 -3187.1 2907.06   1
 -24   7  15  116.41 1438.65   1
 -24   7  15  170.65 772.351   1
   7 -15  24 -518.58 636.864   1
  24   7 -15 -352.55 524.308   1
 -24  15  -9  513.83 168.118   1
  -9  24 -15  235.14 257.413   1
 -24 -15   9  230.51 310.329   1
 -15  -9  24   71.99 1918.20   1
 -15  -9  24  325.43 680.409   1
 -24  -9  15 -570.83 465.218   1
   9 -24  15  223.79 236.137   1
  24  15  -9  235.03 312.644   1
   9  24 -15  328.74 296.990   1
 -24   9  15  181.68 479.880   1
   9 -15  24  171.43 422.775   1
  24   9 -15   88.72 539.741   1
   9  15 -24  114.76 680.299   1
 -11  24 -15  240.77 242.972   1
 -24 -15  11  125.56 334.252   1
 -15 -11  24  238.01 696.064   1
  24 -11 -15  132.18 640.723   1
 -24 -11  15 -199.98 453.753   1
 -15 -24  11 -206.81 349.685   1
 -11 -15  24 -2520.1 2470.51   1
 -11 -15  24 -411.20 682.173   1
  11 -24  15  473.93 251.350   1
  24  15 -11 -379.56 334.913   1
  11  24 -15  348.80 324.440   1
  15  11 -24  282.66 2994.15   1
  15  11 -24  629.59 636.864   1
  24  11 -15 -176.06 507.331   1
  15  24 -11  -95.63 297.982   1
  11  15 -24  -14.90 709.182   1
   0 -24  16 1473.93 399.294   1
   0  24 -16 1748.43 454.194   1
  16   0 -24  578.33 1295.34   1
 -24   0  16 1071.44 822.180   1
   0 -16  24 -253.33 1747.32   1
   0 -16  24 -510.09 1179.58   1
  24   0 -16 -741.04 1148.71   1
   0  16 -24 -3254.3 3569.61   1
  16  -2 -24 -224.01 1007.05   1
  -2 -24  16  160.29 252.894   1
 -16  -2  24 -178.59 1721.97   1
 -16  -2  24 -364.13 1157.53   1
  24  -2 -16 -219.16 1922.61   1
  24  -2 -16  510.53 1189.50   1
  -2  16 -24  775.22 2907.06   1
  -2  16 -24  549.66 1008.71   1
 -16   2  24  476.46 1048.84   1
  24 -16   2  -27.64 1036.38   1
  24 -16   2  419.47 649.542   1
   2 -24  16 -191.71 230.956   1
   2  24 -16  -53.90 224.782   1
 -24   2  16  983.02 1036.27   1
 -24   2  16 -2236.8 2035.05   1
   2 -16  24  272.41 1048.95   1
  24   2 -16 -349.24 2347.04   1
  24   2 -16  233.49 779.847   1
   2  16 -24   55.00 861.426   1
 -24  16  -4 -1553.3 1290.93   1
 -16  -4  24 -2375.7 2128.76   1
 -16  -4  24 1023.92 990.959   1
 -24  -4  16 -724.51 618.123   1
  -4 -16  24 -160.29 863.961   1
  24 -16   4  -28.11 405.137   1
  24 -16   4  327.97 776.430   1
  16   4 -24 -2599.5 2756.03   1
  16   4 -24 -366.22 928.122   1
 -24   4  16 -737.07 895.711   1
 -24   4  16  765.85 1777.09   1
   4 -16  24  756.03 1631.57   1
   4 -16  24 -100.76 673.464   1
   4  16 -24 -628.38 725.719   1
  -6  24 -16  132.95 205.710   1
 -24 -16   6  580.64 307.684   1
  -6 -24  16   96.95 260.169   1
  -6  16 -24  109.76 471.171   1
 -24  -6  16  368.87 525.410   1
  -6 -16  24  194.47 515.599   1
   6  24 -16  342.30 276.044   1
 -24   6  16  728.14 716.789   1
  24   6 -16 -493.44 651.195   1
  -8  24 -16  -62.86 208.246   1
  -8 -24  16  397.31 296.439   1
 -16  -8  24 -771.47 1947.96   1
 -16  -8  24  268.66 624.738   1
  24  -8 -16  568.73 1994.27   1
  24  -8 -16  280.01 647.227   1
  -8  16 -24 -2986.4 2942.34   1
  -8 -16  24  394.11 659.684   1
  24 -16   8  403.04 178.370   1
  24  16  -8  -92.18 270.753   1
   8  24 -16  758.35 322.897   1
  16   8 -24  739.72 2674.45   1
   8 -16  24 -306.69 474.148   1
   8 -16  24 -558.04 1427.62   1
  24   8 -16  726.71 565.538   1
   8  16 -24  769.26 3410.87   1
   8  16 -24 -635.43 685.701   1
 -10  24 -16  174.84 252.894   1
 -24 -16  10  117.41 317.605   1
 -10 -24  16  115.42 341.638   1
 -16 -10  24  873.00 806.195   1
  24 -10 -16  328.74 641.604   1
 -24 -10  16  454.41 374.159   1
 -10 -16  24 -2686.6 2527.83   1
 -10 -16  24 -166.35 664.865   1
  10 -24  16  209.57 252.783   1
  24  16 -10  -36.27 327.196   1
  10  24 -16  417.92 325.322   1
  16  10 -24 -518.13 664.645   1
  10 -16  24  215.85 518.134   1
  10  16 -24  654.50 688.126   1
  -1 -24  17 -187.85 238.011   1
 -17  -1  24 -221.81 1716.46   1
 -17  -1  24  -25.92 651.526   1
  24  -1 -17 -951.71 2101.20   1
  -1  17 -24  296.11 703.891   1
 -24  -1  17 -1078.7 586.594   1
  -1 -17  24 -220.59 732.113   1
 -17   1  24  -61.39 546.246   1
   1 -24  17   -7.55 221.916   1
   1  24 -17 -137.58 267.776   1
  17   1 -24 1739.61 3270.86   1
  17   1 -24 -142.98 697.276   1
 -24   1  17  -61.46 559.695   1
 -24   1  17 -1101.5 1891.74   1
   1 -17  24 -742.25 1802.45   1
  24   1 -17 -917.10 711.938   1
   1  17 -24  349.02 615.808   1
  17  -3 -24  -88.09 587.476   1
  -3  24 -17  543.27 302.612   1
 -17  -3  24  167.24 1779.29   1
 -17  -3  24  539.08 591.334   1
  -3  17 -24  747.22 3148.49   1
  -3  17 -24  396.43 550.104   1
  -3 -17  24  252.56 566.530   1
   3 -24  17  300.52 254.878   1
   3  24 -17  994.05 332.708   1
  17   3 -24 -1855.4 2656.82   1
  17   3 -24 -416.49 634.329   1
 -24   3  17 -103.83 1708.74   1
 -24   3  17 -279.35 636.313   1
   3 -17  24 4572.81 2817.77   1
   3 -17  24 -441.08 645.683   1
  24   3 -17 -4207.9 3349.13   1
  24   3 -17 -250.25 699.812   1
 -17  -5  24 -2326.1 2189.39   1
  24  -5 -17 -1368.1 2119.94   1
  24  -5 -17 -413.52 620.328   1
 -24  -5  17  -12.53 551.868   1
  24 -17   5 -1327.3 966.596   1
  24 -17   5   -2.60 253.996   1
   5 -17  24 2038.36 1903.87   1
   5  17 -24 -778.74 707.970   1
 -24  17  -7   37.02 810.274   1
  -7  24 -17  161.72 230.404   1
 -24 -17   7  327.09 304.266   1
 -17  -7  24 -1620.5 2135.37   1
 -17  -7  24 -686.58 723.844   1
  -7  17 -24  270.86 2720.76   1
  -7  17 -24  732.33 539.962   1
 -24  -7  17  570.39 522.875   1
  -7 -17  24   75.50 600.705   1
  -7 -17  24 -4354.5 2757.14   1
   7 -24  17  109.54 267.335   1
  24  17  -7  421.45 305.258   1
   7  24 -17 -451.77 285.745   1
  17   7 -24  -42.80 832.322   1
  17   7 -24 -876.75 2781.39   1
 -24   7  17  -62.93 1651.41   1
 -24   7  17 -106.70 678.866   1
   7 -17  24  707.20 506.669   1
  24   7 -17 -528.83 668.062   1
   7  17 -24 -298.09 622.092   1
 -18   0  24 -1344.9 1952.37   1
 -18   0  24  -57.80 661.227   1
   0 -24  18  -58.63 269.099   1
   0  24 -18  505.02 272.737   1
  18   0 -24 -5857.1 4351.22   1
  18   0 -24   87.20 660.566   1
 -24   0  18 2032.85 2254.43   1
 -24   0  18 -249.15 480.211   1
   0 -18  24 -416.49 663.542   1
   0  18 -24  -74.20 546.797   1
  -2 -24  18 1065.59 391.467   1
  24  -2 -18 -1583.1 2312.86   1
  24  -2 -18 -476.13 684.158   1
  -2  18 -24  573.14 618.674   1
 -24  -2  18   34.89 562.341   1
 -18   2  24 -212.88 535.993   1
   2 -24  18  650.31 380.222   1
   2  24 -18 1005.18 344.945   1
  18   2 -24  551.87 2876.20   1
  18   2 -24  -94.02 665.417   1
  24   2 -18 -378.79 634.769   1
  24   2 -18 -435.78 2635.87   1
   2  18 -24  188.40 646.124   1
  18  -4 -24  -29.75 699.922   1
 -18  -4  24 1515.82 2199.31   1
 -18  -4  24 -468.97 683.937   1
  24  -4 -18 -2261.0 2509.09   1
  24  -4 -18 -375.48 704.332   1
  -4 -18  24  511.85 603.130   1
 -24   4  18 2815.56 2287.51   1
 -24   4  18  892.07 694.961   1
   4 -18  24 4083.34 2664.53   1
   4 -18  24  420.24 629.919   1
  24   4 -18 -281.78 710.726   1
   4  18 -24   68.03 669.385   1
  -6 -24  18  750.08 351.780   1
 -18  -6  24 1908.28 2250.03   1
 -18  -6  24 -395.22 812.809   1
  24  -6 -18  481.20 2685.48   1
  24  -6 -18  336.57 829.566   1
  -6  18 -24  704.22 699.591   1
  -6  18 -24 4766.83 3594.97   1
 -24  -6  18  443.83 512.181   1
  -6 -18  24 -352.44 540.072   1
   6 -24  18  111.78 293.242   1
  18   6 -24 -673.79 2783.59   1
  18   6 -24  613.71 976.297   1
 -24   6  18 2467.20 2136.48   1
 -24   6  18   40.83 778.414   1
   6  18 -24   61.74 651.857   1
  19  -1 -24 4505.56 3826.48   1
  19  -1 -24 -107.60 853.819   1
  -1 -24  19 -106.33 389.262   1
  24  -1 -19 1690.00 2559.80   1
  24  -1 -19 -1512.5 973.210   1
 -24  -1  19  292.25 1876.31   1
 -24  -1  19 -316.06 589.901   1
 -19   1  24  251.35 859.111   1
 -19   1  24 -1318.5 2041.67   1
   1 -24  19  164.15 326.755   1
   1  24 -19 -208.03 287.730   1
  19   1 -24 -166.68 872.229   1
 -24   1  19 -2386.7 2415.39   1
   1 -19  24   35.95 542.167   1
   1  19 -24 -5355.5 4100.98   1
   1  19 -24  622.75 552.089   1
  25  -1   0  13471. 2973.21   1
  25   1   0  12953. 2868.48   1
 -25   0  -1  11245. 2490.35   1
 -25   0   1  19744. 4351.22   1
  25   0   1  12942. 2858.56   1
  25   0  -1  16713. 3686.47   1
  25  -2  -1  258.74 239.003   1
 -25   2  -1 -288.06 258.957   1
 -25  -2   1   29.07 265.241   1
 -25   1  -2 -204.28 221.916   1
 -25  -1   2  233.93 306.912   1
  25  -2   1  -11.85 221.916   1
  25   2  -1  345.50 289.494   1
 -25   1   2  260.83 292.801   1
  25  -1   2 -193.47 231.286   1
  25   1  -2   25.59 289.273   1
 -25  -3   0 4810.93 1101.75   1
 -25   3   0 9301.06 2067.02   1
  25   3   0 4961.96 1132.18   1
 -25   3  -2  -41.59 206.262   1
 -25  -3   2   84.39 291.478   1
 -25  -2   3   54.07 283.651   1
 -25   3   2  292.47 362.694   1
  25   3  -2   33.26 262.595   1
 -25   2   3  455.30 376.805   1
  25   2  -3   30.60 269.760   1
  25  -4  -1  563.44 293.793   1
 -25   4  -1  142.87 235.255   1
 -25  -4   1 -102.44 248.374   1
  25  -1  -4  216.29 418.145   1
 -25  -1   4   11.71 321.905   1
  25  -4   1  446.15 245.618   1
  25   4  -1  438.87 284.864   1
  25   1  -4   16.53 272.517   1
 -25  -4   3 2815.56 706.316   1
 -25  -3   4 2847.53 703.340   1
  25  -4   3 1915.99 475.802   1
  25   4  -3 2191.60 569.507   1
  25   3  -4 2523.42 625.730   1
 -25   5   0 2126.55 575.901   1
  25  -5   0 1964.50 507.220   1
 -25   0   5 2442.95 698.158   1
  25   0  -5 2329.40 654.723   1
 -25   5  -2 1853.16 466.321   1
 -25  -2   5 2176.16 593.870   1
  25   5  -2 1086.21 354.316   1
  25   2  -5 1873.00 511.409   1
 -25   5  -4  -21.67 203.064   1
 -25   5   4 -361.81 434.902   1
  25  -5   4  341.09 211.333   1
  25   5  -4   59.49 300.518   1
 -25   4   5   78.22 450.887   1
  25   4  -5  -32.86 287.509   1
  25  -6  -1  955.02 478.117   1
 -25   6  -1  832.54 309.447   1
 -25  -6   1  572.15 273.178   1
 -25  -1   6  938.15 498.401   1
  25  -6   1  814.90 282.108   1
  25   1  -6  703.23 438.540   1
 -25  -6   3   49.58 260.280   1
 -25  -3   6  -29.15 311.101   1
 -25   6   3 -124.24 395.987   1
  25  -6   3  -84.80 191.489   1
  25   3  -6 -320.91 322.566   1
 -25  -6   5 1671.26 483.849   1
  -6  -5  25 -1214.9 3079.04   1
  -5  -6  25 -166.13 2894.94   1
 -25   6   5 1887.33 697.607   1
   6   5 -25  -53.61 2599.49   1
 -25   5   6 1426.52 639.069   1
   5   6 -25 -1709.8 2547.68   1
  25  -7   0 3109.91 793.627   1
 -25   0   7 1555.51 626.281   1
 -25   7  -2 -345.50 239.995   1
 -25  -7   2 -225.44 259.067   1
 -25  -2   7 -200.97 471.943   1
 -25   7   2 -147.72 401.830   1
  25  -7   2   73.10 226.987   1
 -25   2   7 -967.26 509.094   1
  25   2  -7 -172.42 424.980   1
   2   7 -25 -1403.4 2144.19   1
 -25   7  -4 1066.36 308.014   1
 -25  -7   4 1288.72 411.641   1
  -7  -4  25 1465.11 3656.70   1
  -4  -7  25 -2280.9 2857.45   1
 -25   7   4  494.65 528.607   1
  25  -7   4 1660.23 419.909   1
  25   7  -4 1172.97 404.034   1
   7   4 -25  348.14 3154.00   1
   4   7 -25 -299.75 2341.53   1
 -25  -7   6  138.35 302.282   1
 -25  -6   7  237.24 312.424   1
 -25   7   6  -25.44 852.717   1
  25   7  -6  708.08 326.976   1
   7   6 -25  116.64 3904.75   1
 -25   6   7   16.67 737.404   1
   6   7 -25 -127.66 3373.38   1
   6   7 -25 -2070.3 4174.84   1
 -25  -1   8  328.41 476.683   1
  -1  -8  25 -113.66 3005.18   1
 -25   8   1  130.31 390.144   1
  25  -8   1  356.52 361.040   1
 -25   1   8  181.13 541.946   1
   1   8 -25 4810.93 2592.88   1
  25  -8  -3 -911.59 584.940   1
 -25   8  -3 -312.86 232.278   1
 -25  -8   3   90.65 266.233   1
 -25  -3   8  405.47 488.810   1
  -3  -8  25 -786.02 2968.80   1
 -25   8   3 -851.06 588.027   1
  25  -8   3  214.64 204.608   1
  25   8  -3   29.49 287.950   1
   8   3 -25 4071.21 3711.83   1
 -25   3   8  497.08 611.839   1
  25  -8  -5  -77.78 752.948   1
 -25   8  -5  370.96 225.113   1
 -25  -8   5 1458.49 450.446   1
  -8  -5  25 -3266.5 3460.47   1
  25  -5  -8 2141.99 1908.28   1
  25  -5  -8  106.23 735.861   1
  -5  -8  25  807.96 4834.08   1
 -25   8   5  924.04 1076.51   1
  25  -8   5  131.41 181.678   1
  25   8  -5  837.17 356.631   1
  25   5  -8 1600.70 519.347   1
   5   8 -25 -1882.9 3835.30   1
   5   8 -25 -1100.5 3925.69   1
 -25  -8   7  443.17 318.818   1
  -8  -7  25 -1967.8 2026.24   1
  -8  -7  25 2915.88 4845.11   1
 -25  -7   8  459.27 339.543   1
  -7  -8  25  292.91 1855.36   1
  -7  -8  25 -631.46 4947.63   1
 -25   8   7 -1036.0 1938.04   1
 -25   8   7 -1143.2 1699.92   1
  25   8  -7  721.42 351.449   1
   8   7 -25 -4944.3 4309.33   1
   8   7 -25 3479.22 4333.59   1
 -25   7   8 -181.13 1993.16   1
  25   7  -8  488.70 367.324   1
 -25   9   0 1007.72 478.447   1
 -25   0   9 1806.86 734.979   1
   0  -9  25 -2267.7 3600.48   1
  25  -9  -2 5301.50 1309.67   1
 -25  -2   9 8907.50 2042.77   1
  -2  -9  25 -1437.5 3242.20   1
 -25   9   2 4535.33 1178.48   1
 -25   2   9 5013.77 1337.23   1
  25  -9  -4 -118.51 850.181   1
 -25   9  -4  439.31 248.594   1
  -9  -4  25  280.01 3461.58   1
  25  -4  -9 -1435.3 1978.83   1
  25  -4  -9   48.38 724.285   1
 -25  -4   9  297.43 505.346   1
  -4  -9  25  811.93 1909.38   1
  -4  -9  25   54.37 4435.01   1
  25  -9   4  678.98 231.617   1
  25   9  -4   12.32 293.903   1
   9   4 -25 2090.18 3303.93   1
  25   4  -9 -574.14 557.931   1
   4   9 -25    6.98 3751.51   1
   4   9 -25 -1210.4 3780.17   1
  25  -9  -6 2334.91 1742.92   1
 -25   9  -6  728.47 250.579   1
 -25  -9   6 1766.07 504.023   1
  -9  -6  25 -2729.6 2261.05   1
  -9  -6  25 2363.57 4380.99   1
  25  -6  -9  456.29 1542.28   1
  -6  -9  25 -1046.5 2008.60   1
 -25   9   6 3738.28 2415.39   1
 -25   9   6 1504.79 2129.86   1
  25   9  -6 1707.64 498.291   1
   9   6 -25 -7902.1 5318.04   1
   9   6 -25 -5954.1 4411.86   1
  25   6  -9 1675.67 609.634   1
  25  -9  -8 2076.95 1687.79   1
 -25  -9   8  404.14 301.730   1
  -9  -8  25 -2826.6 2706.42   1
  25  -8  -9  177.05 1277.70   1
  25  -8  -9  175.61 1933.63   1
 -25  -8   9 1281.00 430.823   1
  -8  -9  25  493.11 3056.99   1
  -8  -9  25 1761.66 1954.58   1
 -25   9   8 -877.30 1752.84   1
 -25   9   8 -3443.9 1929.22   1
  25   9  -8  325.10 330.173   1
   9   8 -25 -6108.5 4197.99   1
   9   8 -25 3555.28 2562.01   1
  25   8  -9 1903.87 540.293   1
   8   9 -25 4269.65 3534.34   1
   8   9 -25  785.58 2290.81   1
  25 -10  -1  808.51 541.946   1
 -25  10  -1  657.04 437.327   1
  25  -1 -10  842.46 717.010   1
  -1  10 -25  801.67 2563.11   1
 -25  -1  10  834.09 647.888   1
   1 -10  25 -2371.3 3052.58   1
   1  10 -25 -773.34 3222.35   1
  25 -10  -3  314.52 1057.66   1
 -25  10  -3  -82.71 368.647   1
 -25 -10   3   -3.65 253.776   1
 -10  -3  25 1243.52 3288.50   1
  25  -3 -10 -112.56 783.375   1
 -25  -3  10  708.63 562.120   1
  -3 -10  25 -1090.2 1895.05   1
  -3 -10  25 -719.32 4372.17   1
  25 -10   3  990.19 375.261   1
  10   3 -25  -50.06 3327.08   1
   3  10 -25 4120.82 4350.12   1
   3  10 -25 -2051.6 3060.30   1
  25 -10  -5 -320.80 1131.08   1
  25 -10  -5  385.18 1984.34   1
 -25  10  -5 2078.05 503.582   1
 -25 -10   5  564.33 287.179   1
 -10  -5  25  425.31 1813.47   1
 -10  -5  25  774.89 3801.12   1
 -25  -5  10 2182.78 735.199   1
 -25  10   5 1393.45 1642.60   1
  25 -10   5 1348.25 357.954   1
  10   5 -25 2435.23 3654.50   1
  10   5 -25 2253.33 3706.31   1
  25   5 -10 3209.12 923.492   1
   5  10 -25 -2135.4 2976.52   1
  25  -7 -10 2345.94 1756.14   1
  25  -7 -10 -461.80 1584.17   1
 -25  -7  10  547.57 437.548   1
  -7 -10  25 -1141.0 1902.77   1
  -7 -10  25  499.06 2458.38   1
 -25  10   7 -2310.7 1952.37   1
 -25  10   7  309.78 1556.61   1
  25  10  -7  233.71 277.367   1
  10   7 -25 -402.82 2149.71   1
   7  10 -25  799.14 2801.23   1
   7  10 -25  827.47 1811.26   1
  25 -10  -9  125.23 1141.00   1
  25 -10  -9  333.04 1314.08   1
 -25 -10   9  669.94 345.607   1
 -10  -9  25 -4220.0 2732.88   1
 -10  -9  25 -527.06 1976.63   1
  25  -9 -10 1144.30 1336.12   1
  25  -9 -10  405.25 1351.56   1
 -25  -9  10  355.75 345.166   1
  -9 -10  25 2117.74 2085.77   1
  25  10  -9  277.15 316.944   1
  10   9 -25 1900.56 2676.66   1
 -25   9  10 -319.26 1558.81   1
  25   9 -10  443.28 353.764   1
   9  10 -25  147.50 1527.94   1
  25 -11   0 -891.41 529.269   1
   0 -11  25 -2345.9 3330.39   1
   0  11 -25 -636.31 3750.41   1
   0  11 -25  187.41 2462.79   1
 -25  11  -2 -120.16 349.906   1
 -11  -2  25 2808.95 3119.83   1
  25  -2 -11 -551.43 782.493   1
 -25  -2  11 -426.63 546.356   1
  -2 -11  25 -1163.0 1856.46   1
  -2 -11  25 -120.27 3318.26   1
  11   2 -25 -646.12 2700.91   1
 -25   2  11 -1160.8 1541.17   1
   2 -11  25 -731.89 2300.74   1
  25 -11  -4 -729.47 1132.18   1
  25 -11  -4 -1356.0 1771.58   1
 -25  11  -4 3316.06 803.880   1
 -25 -11   4 1039.47 363.576   1
  25  -4 -11 -299.53 1121.15   1
  -4  11 -25 -678.54 1548.89   1
 -25  -4  11 2800.13 821.077   1
  -4 -11  25 -1768.3 2866.27   1
 -25  11   4 1157.53 1825.60   1
  25 -11   4 2398.85 598.831   1
  25  11  -4 1325.10 434.682   1
  11   4 -25 1098.89 3343.62   1
  11   4 -25 -759.34 2847.53   1
 -25   4  11  943.78 1100.43   1
   4  11 -25 3249.91 3481.42   1
   4  11 -25 1249.03 2189.39   1
  25 -11  -6  599.38 1120.05   1
  25 -11  -6 -532.80 1335.02   1
 -25  11  -6  243.96 196.230   1
 -25 -11   6   79.46 257.854   1
 -11  -6  25  959.32 1780.40   1
 -11  -6  25  797.27 2071.43   1
  25  -6 -11 1404.47 1565.43   1
  25  -6 -11    8.47 1437.55   1
 -25  -6  11  120.49 516.701   1
  -6 -11  25 1286.52 2048.28   1
  -6 -11  25 -1588.6 1950.17   1
 -25  11   6 -1240.2 1521.33   1
  25 -11   6  220.70 161.283   1
  25  11  -6  -46.30 289.604   1
 -25   6  11  -84.93 1627.16   1
 -25   6  11  351.12 1315.18   1
  25   6 -11   97.78 559.144   1
   6  11 -25 3634.66 3407.56   1
 -25 -11   8  115.86 278.911   1
 -11  -8  25 -2134.3 2057.10   1
 -11  -8  25 -1158.6 1878.51   1
  25  -8 -11  391.58 1324.00   1
  25  -8 -11 -176.61 1402.27   1
 -25  -8  11 -384.52 397.640   1
 -25  11   8 -1348.3 1549.99   1
 -25  11   8 -104.72 1198.32   1
  11   8 -25 -4567.3 3372.28   1
  11   8 -25 -657.92 1607.32   1
   8  11 -25 -2780.3 2924.70   1
   8  11 -25 -599.82 1492.67   1
  25 -11 -10 -1341.6 1579.76   1
  25 -11 -10  155.44 739.940   1
 -11 -10  25  730.02 1714.25   1
 -11 -10  25  353.76 1136.59   1
  25 -10 -11 -1695.5 1779.29   1
  25 -10 -11  267.11 814.353   1
 -25 -10  11 -177.16 347.922   1
 -10 -11  25 -145.41 1232.50   1
 -10 -11  25 -1965.6 2054.90   1
 -25  11  10 1875.20 1914.89   1
  25  11 -10  -29.89 303.164   1
  11  10 -25 1063.39 2871.79   1
  11  10 -25   18.94 1177.38   1
 -25  10  11  746.88 1634.88   1
 -25  10  11 -135.16 827.692   1
  25  10 -11  496.20 361.371   1
  10  11 -25 -5743.6 3986.33   1
  10  11 -25   48.75 1141.00   1
 -25  12  -1 -1209.3 602.028   1
  -1 -25  12  569.84 236.798   1
 -12  -1  25  567.52 2061.51   1
  -1  12 -25 -5632.2 4629.03   1
  -1  12 -25  345.06 1416.60   1
  -1 -12  25  484.51 1727.48   1
 -25  12   1  185.87 1080.36   1
 -25  12   1 3056.99 2049.39   1
  25 -12   1 -154.01 459.045   1
   1 -25  12  502.92 221.365   1
  12   1 -25  725.72 1854.26   1
 -25   1  12  293.35 635.651   1
 -25   1  12 1469.52 1639.29   1
   1 -12  25 -863.63 1520.23   1
   1 -12  25 -630.47 1795.83   1
  25   1 -12  194.47 669.495   1
   1  12 -25 -160.62 1585.27   1
  25 -12  -3   41.85 1122.26   1
  25 -12  -3 1868.59 1531.25   1
 -25  12  -3   30.44 339.874   1
  -3 -25  12  190.61 238.011   1
  25  -3 -12 -575.68 865.946   1
 -25  -3  12  332.16 507.992   1
  -3 -12  25  311.21 1718.66   1
  -3 -12  25 -1654.7 2148.60   1
 -25  12   3 -874.32 1561.02   1
 -25  12   3 3105.50 1589.68   1
  12   3 -25 1486.05 2046.08   1
 -25   3  12 -644.14 982.912   1
   3 -12  25   96.49 1331.72   1
   3  12 -25 -3367.9 3847.42   1
   3  12 -25  780.18 1686.69   1
  25 -12  -5 -438.21 1098.33   1
  25 -12  -5 -259.40 1078.93   1
 -25  12  -5  265.24 261.382   1
 -25 -12   5   82.56 260.941   1
  -5 -25  12  213.65 247.602   1
 -12  -5  25 -1376.9 1889.54   1
 -12  -5  25 -934.41 1873.00   1
  25  -5 -12  337.45 1422.11   1
  25  -5 -12 -154.78 1470.62   1
  -5  12 -25 -416.82 1036.71   1
 -25  -5  12  414.73 462.132   1
  -5 -12  25 -271.52 1951.27   1
  -5 -12  25 -2034.0 2123.25   1
  25 -12   5  680.30 261.272   1
  25  12  -5   83.73 301.510   1
   5  25 -12  269.87 243.413   1
 -25   5  12   36.16 1588.58   1
 -25   5  12 -339.10 1269.98   1
  25 -12  -7 -1552.2 1601.81   1
  25 -12  -7   54.75 1121.15   1
 -25  12  -7  -84.74 158.417   1
 -25 -12   7  387.72 284.864   1
  -7 -25  12   77.11 220.152   1
 -12  -7  25 -2246.7 2150.81   1
 -12  -7  25 -600.48 1708.74   1
  -7 -12  25  282.55 1690.00   1
  -7 -12  25 -1567.6 2192.70   1
 -25  12   7  159.30 1185.09   1
 -25  12   7 -375.70 1362.58   1
  25 -12   7  218.94 160.401   1
  25  12  -7   51.42 288.612   1
   7  25 -12   47.24 212.876   1
  12   7 -25 -1459.6 1578.66   1
  12   7 -25 -883.03 2470.51   1
 -25   7  12 -1999.8 1963.40   1
 -25   7  12   43.94 1369.20   1
  25   7 -12  430.27 574.798   1
   7  12 -25 -570.94 2708.63   1
   7  12 -25  361.37 1564.32   1
  25 -12  -9 2765.95 2105.61   1
  25 -12  -9  180.02 633.557   1
 -25 -12   9  554.95 318.156   1
  -9 -25  12 -376.47 287.179   1
 -25  -9  12  499.28 427.516   1
  -9 -12  25   32.40 2024.03   1
  -9 -12  25 1127.77 1153.12   1
 -25  12   9   31.74 585.492   1
  25  12  -9  393.89 330.614   1
   9  25 -12  237.24 267.004   1
  12   9 -25 1566.53 2805.64   1
  12   9 -25  256.20 919.192   1
   9  12 -25 3956.56 3614.81   1
  25 -12 -11 -105.74 433.138   1
 -25 -12  11  801.23 414.948   1
 -11 -25  12  -28.17 305.148   1
 -12 -11  25 -1211.6 2209.24   1
 -12 -11  25 -761.22 787.013   1
 -25 -11  12 -304.82 356.079   1
 -12 -25  11  359.06 322.015   1
 -11 -12  25 1365.89 2233.49   1
 -25  12  11 -179.47 533.347   1
  11  25 -12  300.96 307.573   1
  25  11 -12   80.96 384.852   1
  11  12 -25 6186.74 1649.21   1
 -25  13   0 1626.06 1472.82   1
  25 -13   0   73.92 925.255   1
   0 -25  13  992.72 306.361   1
   0  25 -13  379.67 246.059   1
  13   0 -25   78.45 1466.21   1
 -25   0  13 -572.48 1889.54   1
 -25   0  13 -124.13 654.172   1
  25   0 -13  265.13 741.704   1
   0  13 -25 1208.24 3351.34   1
   0  13 -25 -236.03 1131.08   1
  25 -13  -2 1007.16 1241.32   1
  -2  25 -13 1921.51 509.094   1
  -2 -25  13 3614.81 842.133   1
 -13  -2  25 -384.30 1236.91   1
  -2  13 -25 -303.60 3350.23   1
  -2 -13  25 -1216.0 1654.72   1
  -2 -13  25 -2223.6 2119.94   1
 -25  13   2 -396.21 1365.89   1
   2 -25  13 2993.05 698.489   1
   2  25 -13 3090.06 733.656   1
   2 -13  25 -1178.5 1559.91   1
   2 -13  25  317.83 1373.61   1
   2  13 -25 6402.82 4642.26   1
   2  13 -25  134.60 1424.32   1
 -25  13  -4  694.63 377.687   1
  -4  25 -13  457.50 235.586   1
  -4 -25  13    7.42 230.625   1
 -13  -4  25 -268.99 1864.18   1
 -13  -4  25 7747.76 2631.46   1
  -4  13 -25 5269.54 1734.10   1
 -25  -4  13 -123.47 499.173   1
  -4 -13  25 -1955.7 2141.99   1
 -25  13   4 2570.83 1846.54   1
   4 -25  13  391.69 211.884   1
   4  25 -13  358.61 251.681   1
  13   4 -25  10104. 6035.71   1
 -25   4  13 -616.25 1676.77   1
 -25   4  13   53.69 1166.35   1
  25 -13  -6  697.94 1348.25   1
  25 -13  -6  -38.96 916.987   1
 -25  13  -6  229.41 234.373   1
  -6  25 -13  312.53 197.332   1
 -25 -13   6  157.31 285.084   1
  -6 -25  13 -110.46 245.066   1
 -13  -6  25 -3036.0 2151.91   1
 -13  -6  25 1132.18 1643.70   1
 -25  -6  13 -137.36 447.800   1
  -6 -13  25 -437.44 1899.46   1
  -6 -13  25 -101.97 1515.82   1
 -25  13   6 -125.90 983.794   1
  25 -13   6 -136.59 165.031   1
   6 -25  13  293.35 208.136   1
  25  13  -6 -114.21 295.998   1
   6  25 -13  -36.26 233.050   1
  13   6 -25 1277.70 1366.99   1
  13   6 -25 2293.02 2789.11   1
 -25   6  13 4240.98 2703.12   1
 -25   6  13  753.06 1206.04   1
   6 -13  25 -123.36 1013.45   1
   6  13 -25 1298.64 2969.90   1
   6  13 -25  328.08 1269.98   1
  25 -13  -8   51.78 429.280   1
 -25  13  -8  245.95 164.811   1
 -25 -13   8  320.36 319.810   1
  -8 -25  13  104.83 302.282   1
 -13  -8  25  461.03 1990.96   1
  25  -8 -13 1306.36 1548.89   1
  25  -8 -13 -356.63 666.078   1
  -8 -13  25  141.66 903.538   1
  -8 -13  25 -1039.9 1923.71   1
 -25  13   8 -401.72 580.421   1
  25  13  -8  135.71 312.314   1
   8  25 -13  418.81 288.832   1
  13   8 -25  -90.60 705.434   1
  25   8 -13 -161.06 561.459   1
  25 -13 -10   87.93 437.217   1
 -25 -13  10  230.07 334.252   1
 -13 -10  25 -1021.8 2046.08   1
 -13 -10  25  -48.81 685.811   1
  25 -10 -13 -1859.8 1884.02   1
  25 -10 -13 -346.71 581.964   1
 -25 -10  13 -118.40 420.571   1
  10 -25  13  -47.22 210.561   1
  25  13 -10 -242.20 312.424   1
  10  25 -13  -15.00 301.400   1
  13  10 -25 6098.55 4194.68   1
  25  10 -13  270.42 498.401   1
  10  13 -25 -263.92 903.317   1
 -25 -13  12 2692.09 702.899   1
 -25 -12  13 2591.77 725.608   1
 -13 -25  12 3169.44 820.526   1
 -12 -13  25 -100.44 968.801   1
  12 -25  13 2485.94 596.736   1
  12  25 -13 2419.80 646.235   1
  13  12 -25  -89.45 815.786   1
  25  12 -13 2788.00 757.689   1
  13  25 -12 2312.86 638.738   1
  25 -14  -1 -861.43 1080.14   1
  25 -14  -1 -205.71 873.111   1
  14  -1 -25  771.80 1437.55   1
 -25  14  -1 1312.97 1445.26   1
  -1 -25  14  342.96 231.176   1
 -14  -1  25 -434.02 1217.06   1
  -1  14 -25 1621.65 3281.88   1
  -1  14 -25  774.89 1075.29   1
 -25  -1  14 -340.43 606.217   1
  -1 -14  25 -102.33 1472.82   1
  -1 -14  25  640.39 1809.06   1
 -25  14   1  867.49 1087.09   1
  25 -14   1  264.03 898.026   1
  25 -14   1   96.42 845.330   1
   1 -25  14  182.89 208.246   1
 -25   1  14  218.94 764.083   1
   1 -14  25   23.56 1156.43   1
  25   1 -14  141.33 696.946   1
   1  14 -25 2426.41 3456.07   1
  25 -14  -3  448.24 1311.87   1
  25 -14  -3 -782.38 938.043   1
 -14  -3  25 -1631.6 1979.93   1
 -14  -3  25 -477.34 1396.76   1
  -3 -14  25 -1704.3 1406.68   1
 -25  14   3 1007.94 1435.34   1
  25 -14   3  246.50 446.147   1
  14   3 -25 -264.91 1432.03   1
  14   3 -25 -664.98 3187.08   1
 -25   3  14 4604.78 2855.25   1
 -25   3  14  449.78 977.179   1
   3 -14  25 -224.12 1480.54   1
   3 -14  25 -705.43 1047.84   1
  25   3 -14 2276.48 876.970   1
   3  14 -25 4594.86 4279.57   1
   3  14 -25 -961.86 1239.11   1
 -25  14  -5 -209.46 332.708   1
 -25 -14   5  521.77 305.809   1
  -5 -25  14  300.52 247.602   1
  25  -5 -14 -1063.9 1639.29   1
  25  -5 -14 -350.02 918.972   1
 -25  -5  14 -493.11 502.590   1
  -5 -14  25 -2574.1 2182.78   1
  -5 -14  25  291.92 973.872   1
 -25  14   5 -132.62 661.558   1
   5 -25  14  673.46 237.901   1
  14   5 -25 1337.23 2825.48   1
  14   5 -25  384.30 985.778   1
   5  14 -25 5760.11 4629.03   1
  25 -14  -7  497.41 432.366   1
 -25  14  -7  348.58 208.136   1
  -7  25 -14   34.34 228.640   1
  -7 -25  14  806.64 305.368   1
 -14  -7  25 1817.88 2068.13   1
 -14  -7  25  229.52 681.732   1
  25  -7 -14 -541.62 1554.40   1
  25  -7 -14  208.58 591.334   1
 -25  -7  14  223.35 449.454   1
  -7 -14  25 -113.22 1898.36   1
  25 -14   7  260.94 160.622   1
   7 -25  14  416.82 223.349   1
  25  14  -7   48.09 274.280   1
 -25   7  14  325.54 1757.25   1
   7 -14  25  -41.99 451.548   1
   7  14 -25 -124.79 778.745   1
  -9  25 -14  328.08 222.798   1
 -25 -14   9  166.91 320.251   1
  -9 -25  14  -81.52 276.155   1
 -14  -9  25 -3118.7 2566.42   1
 -14  -9  25  105.50 755.263   1
  25  -9 -14 1358.17 1884.02   1
  25  -9 -14   53.96 593.870   1
  -9 -14  25    0.00 880.608   1
   9 -25  14  262.59 209.238   1
  25  14  -9 -347.70 318.597   1
  14   9 -25  335.13 2996.36   1
  14   9 -25 -316.28 738.286   1
 -25   9  14 -751.74 1631.57   1
 -25   9  14 -270.97 565.097   1
  25   9 -14  488.04 580.090   1
   9  14 -25   54.45 641.825   1
 -25  15   0 -253.78 1036.27   1
 -15   0  25  423.22 722.852   1
  25 -15   0 -1607.3 1343.84   1
  25 -15   0 -178.26 520.560   1
   0 -25  15 1211.55 375.261   1
   0  25 -15 1411.09 382.207   1
  15   0 -25  439.64 770.366   1
 -25   0  15 -407.12 595.854   1
   0 -15  25  562.56 1610.63   1
   0  15 -25  -12.67 615.588   1
  25 -15  -2  107.83 1278.80   1
  25 -15  -2  -85.68 516.481   1
 -25  15  -2  193.25 1131.08   1
  -2 -25  15 -101.28 263.587   1
 -15  -2  25  344.28 814.683   1
 -15  -2  25 1425.42 1867.49   1
  25  -2 -15 -308.12 929.885   1
  -2  15 -25 -215.96 558.482   1
  -2  15 -25 -150.59 3051.48   1
 -25  -2  15  165.25 578.326   1
  -2 -15  25 -560.03 832.763   1
  -2 -15  25  897.25 1788.11   1
 -25  15   2   14.35 481.424   1
  25 -15   2  -11.64 843.126   1
  25 -15   2   47.02 497.629   1
   2 -25  15  -11.19 248.925   1
   2  25 -15  654.94 266.012   1
  15   2 -25  117.41 3135.26   1
  15   2 -25  354.10 813.912   1
   2 -15  25  335.46 1553.30   1
   2 -15  25   98.72 635.982   1
  25   2 -15   78.67 681.291   1
   2  15 -25 -2978.7 3712.93   1
   2  15 -25 -150.59 685.481   1
  25 -15  -4  204.83 412.633   1
  -4  15 -25  -44.06 402.932   1
  -4 -15  25 1004.30 2046.08   1
  -4 -15  25 -298.09 668.503   1
  15   4 -25 -102.73 644.801   1
 -25   4  15 -727.15 1762.76   1
   4 -15  25 -808.40 1630.47   1
  25   4 -15  425.20 701.796   1
 -25  15  -6  252.78 296.770   1
  -6  25 -15  180.13 208.025   1
 -25 -15   6 -207.36 288.061   1
  -6 -25  15  297.43 247.382   1
 -15  -6  25 -4275.2 2807.85   1
 -15  -6  25 -312.86 634.218   1
  25  -6 -15  535.55 1693.31   1
  25  -6 -15  268.33 609.304   1
 -25  -6  15  202.18 478.558   1
  -6 -15  25 -257.96 838.165   1
  25  15  -6 -387.06 292.250   1
   6  25 -15 -387.83 257.744   1
  15   6 -25 -1760.6 2808.95   1
 -25   6  15   47.44 1692.20   1
 -25   6  15 -274.72 574.247   1
   6 -15  25 -1844.3 1837.72   1
   6 -15  25 -109.55 457.942   1
   6  15 -25 -304.27 718.332   1
 -25  15  -8  418.04 182.670   1
  -8  25 -15 -113.33 196.781   1
 -25 -15   8  -49.04 277.477   1
  -8 -25  15  -66.71 260.500   1
 -15  -8  25 -217.95 1947.96   1
 -15  -8  25 -461.80 734.869   1
  25  -8 -15 -734.98 2100.10   1
  25  -8 -15 -445.93 622.863   1
 -25  -8  15 -109.47 425.531   1
  -8 -15  25 -395.88 774.996   1
  25 -15   8  124.68 131.077   1
   8  25 -15 -202.95 280.233   1
  15   8 -25 -2413.2 3129.75   1
  15   8 -25  580.31 837.173   1
 -25   8  15 1235.81 1763.86   1
 -25   8  15  128.65 617.572   1
   8 -15  25  161.28 425.311   1
   8  15 -25  419.25 591.114   1
  25 -16  -1  233.71 366.222   1
  16  -1 -25  684.60 580.200   1
 -25  16  -1  299.53 309.999   1
  -1 -25  16  247.16 262.926   1
  25  -1 -16 -807.52 800.793   1
  -1  16 -25 1154.23 3166.13   1
  -1  16 -25  266.67 556.719   1
 -25  -1  16  144.20 510.307   1
  -1 -16  25 -615.04 1757.25   1
  -1 -16  25 -306.58 660.786   1
 -16   1  25   45.21 558.482   1
  25 -16   1  336.13 1161.94   1
  25 -16   1  356.96 381.876   1
   1 -25  16 -461.36 253.114   1
  16   1 -25 6193.36 4751.40   1
  16   1 -25 -291.70 660.676   1
   1 -16  25   30.40 629.919   1
   1  16 -25 -6258.4 4618.01   1
   1  16 -25  -34.88 637.085   1
 -25  16  -3   32.43 1224.78   1
  -3  25 -16  257.96 274.280   1
  -3 -25  16 -162.61 252.453   1
 -16  -3  25 1346.05 1944.66   1
 -16  -3  25  232.72 583.948   1
  25  -3 -16   56.40 705.434   1
  25  -3 -16  355.64 2083.56   1
  -3  16 -25  865.06 2961.08   1
 -25  -3  16  282.11 532.576   1
  -3 -16  25 -317.49 1939.14   1
  25 -16   3  -63.94 304.817   1
  25 -16   3 -294.34 885.789   1
   3 -25  16  116.30 217.506   1
 -25   3  16 -1504.8 1962.30   1
 -25   3  16 -611.51 558.703   1
   3 -16  25 -519.35 1736.30   1
   3 -16  25  341.31 479.329   1
  25   3 -16 -290.04 727.703   1
   3  16 -25 -466.65 574.578   1
 -25  16  -5 -788.67 1069.56   1
  -5  25 -16 1543.38 409.106   1
  -5 -25  16 1559.91 433.248   1
 -16  -5  25 -2840.9 2431.92   1
 -16  -5  25  158.53 633.888   1
 -25  -5  16 -106.00 534.340   1
  -5 -16  25  202.29 732.113   1
   5 -25  16 1074.19 330.834   1
  16   5 -25 -1417.7 2807.85   1
  16   5 -25 -259.95 611.398   1
 -25   5  16   42.74 578.987   1
 -25   5  16 -1738.5 2040.57   1
   5 -16  25  181.24 508.874   1
  25   5 -16  143.53 647.227   1
   5  16 -25  222.47 605.004   1
 -25  16  -7  -70.10 225.884   1
  -7  25 -16  130.19 203.395   1
 -25 -16   7 -183.33 299.305   1
  -7 -25  16  -97.14 255.429   1
 -16  -7  25   12.02 769.043   1
  -7  16 -25 -3807.7 3431.81   1
 -25  -7  16   17.00 423.768   1
  -7 -16  25  657.15 632.124   1
   7 -25  16  203.06 221.916   1
  25  16  -7 -407.12 320.692   1
  16   7 -25 -1987.7 3058.09   1
  16   7 -25 -282.33 772.681   1
 -25   7  16 3964.28 2563.11   1
 -25   7  16 -164.92 700.914   1
   7 -16  25 -2230.2 1843.23   1
   7 -16  25  -99.16 553.852   1
   0  25 -17  689.89 283.210   1
  17   0 -25  16878. 9064.04   1
  17   0 -25 1972.22 962.958   1
   0 -17  25 -3198.1 2436.33   1
   0 -17  25 1397.86 845.882   1
  25   0 -17 -405.47 1056.00   1
  17  -2 -25  132.84 677.102   1
  -2 -25  17  638.19 308.565   1
 -17  -2  25 -2119.9 2213.65   1
 -17  -2  25  761.33 765.405   1
  25  -2 -17 -441.30 2256.64   1
  25  -2 -17 -121.16 812.038   1
  -2  17 -25 -3438.4 3761.43   1
  -2  17 -25  656.71 629.478   1
 -25  -2  17 -558.48 493.661   1
  -2 -17  25   49.32 806.195   1
 -17   2  25  422.67 650.755   1
  25 -17   2  336.24 371.403   1
   2  25 -17   75.84 255.760   1
 -25   2  17 -151.80 625.289   1
 -25   2  17 -1921.5 2164.04   1
   2 -17  25 2961.08 2322.78   1
   2 -17  25 -1328.4 792.635   1
  25   2 -17 -193.36 692.536   1
   2  17 -25  256.53 670.377   1
 -25  17  -4 -199.43 1011.24   1
 -25  17  -4   41.77 292.360   1
  -4  25 -17  478.67 259.618   1
  -4 -25  17  973.32 359.276   1
 -17  -4  25 -1910.5 2161.83   1
 -17  -4  25  775.55 817.109   1
  -4  17 -25  -24.75 538.308   1
 -25  -4  17  198.43 466.872   1
  -4 -17  25  386.73 596.626   1
  25 -17   4 -492.78 867.709   1
  25 -17   4  -38.88 329.842   1
   4 -25  17  697.94 301.179   1
   4  25 -17  986.44 338.331   1
  17   4 -25 -2043.9 2999.67   1
  17   4 -25 -405.91 762.870   1
 -25   4  17 -890.31 764.413   1
 -25   4  17 3019.51 2440.74   1
   4 -17  25 -1170.8 1753.94   1
  25   4 -17  419.25 649.432   1
   4  17 -25   -2.96 3496.85   1
   4  17 -25  -62.57 547.238   1
 -26   0   0 227318.  49785.   1
  26   0   0 188402.  41274.   1
  26   1   1 -543.82 299.085   1
  26  -1  -1  717.78 303.935   1
 -26   1  -1  235.25 291.699   1
 -26  -1  -1   76.20 265.682   1
 -26   1   1  998.68 367.434   1
  26   1  -1  286.96 310.660   1
 -26   2   0  13736. 3031.64   1
  26   2   0 9934.95 2209.24   1
 -26   0  -2 9485.16 2100.10   1
  26   0  -2  14177. 3128.65   1
  26  -2  -2  410.98 264.138   1
 -26   2   2  791.09 351.670   1
  26  -2   2   23.02 228.751   1
  26   2  -2  493.55 278.911   1
  26  -3  -1  -77.68 280.674   1
  26  -1  -3   47.51 287.840   1
 -26   3   1  253.11 291.588   1
  26  -3   1 -375.04 237.791   1
  26   3  -1   49.63 244.405   1
 -26   1   3  278.36 316.172   1
  26   1  -3 -124.02 275.603   1
  26  -3  -3 2498.07 682.724   1
 -26   3  -3 1036.05 322.125   1
 -26  -3   3 1523.54 453.974   1
 -26   3   3 2678.86 727.703   1
 -26  -4   0   39.58 237.680   1
 -26   4   0 1165.25 364.789   1
  26  -4  -2  188.07 375.482   1
 -26   4  -2   71.55 229.412   1
 -26  -4   2   24.57 274.942   1
  26  -2  -4  675.12 426.524   1
 -26  -2   4  216.07 347.150   1
 -26   4   2  840.81 423.216   1
  26  -4   2 -124.90 220.924   1
 -26   2   4  160.51 429.610   1
  26   2  -4  336.79 284.533   1
 -26  -4   4  32973. 7241.75   1
 -26   4   4  37603. 8271.41   1
  26   4  -4  27968. 6149.26   1
  26  -5  -1  112.34 379.010   1
 -26   5  -1  122.15 277.918   1
 -26  -5   1  212.99 256.752   1
  26  -1  -5  458.27 438.981   1
 -26   5   1 -253.11 350.347   1
  26  -5   1  503.47 235.365   1
  26   5  -1  234.92 255.870   1
 -26   1   5   27.34 470.510   1
  26   1  -5  262.93 304.376   1
 -26   5  -3 3798.92 870.686   1
 -26  -5   3 3898.13 919.633   1
 -26  -3   5 2424.21 621.430   1
 -26   5   3 1299.75 527.394   1
  26   5  -3 2339.32 591.996   1
 -26   3   5 1049.39 567.192   1
 -26  -5   5  16801. 3709.62   1
  26   5  -5  14541. 3222.35   1
 -26   6   0  734.76 370.190   1
 -26   0   6 -209.79 541.175   1
  26   0  -6 -242.86 471.171   1
 -26   6  -2  656.38 281.556   1
 -26  -6   2  122.37 251.240   1
 -26  -2   6 -511.41 471.171   1
 -26   6   2  -89.92 387.168   1
  26  -6   2   88.34 216.514   1
  26   6  -2   62.40 285.635   1
  26   2  -6  379.67 415.279   1
 -26  -6   4 1455.19 433.689   1
 -26  -4   6 2068.13 567.963   1
  26  -6   4  510.31 236.027   1
  26   4  -6  725.83 371.844   1
   4   6 -26 -528.72 3149.59   1
  26  -6  -6  593.65 637.856   1
 -26  -6   6  926.36 379.010   1
  -6  -6  26  329.73 3157.31   1
 -26   6   6  512.95 628.596   1
  26   6  -6  696.06 345.386   1
   6   6 -26  175.39 2655.71   1
 -26   7  -1  606.33 359.387   1
  26  -1  -7   35.30 521.662   1
 -26   7   1  286.74 389.262   1
  26  -7   1   35.06 293.132   1
 -26   1   7 -605.89 532.135   1
  26   1  -7  434.90 524.859   1
 -26   7  -3  -22.85 214.750   1
  26  -3  -7 2277.59 795.832   1
 -26  -3   7  437.00 435.674   1
  -3  -7  26 -752.84 3650.09   1
 -26   7   3 1879.61 653.621   1
  26  -7   3  196.56 234.042   1
   3   7 -26 1809.06 2816.67   1
  26  -7  -5  376.80 609.524   1
 -26   7  -5  265.02 200.970   1
  -7  -5  26 -1053.6 2935.73   1
  26  -5  -7 1057.21 654.172   1
 -26  -5   7 1135.49 434.682   1
  -5  -7  26 1685.59 2928.01   1
 -26   7   5 1107.93 622.753   1
  26  -7   5  330.28 212.656   1
  26   7  -5  619.01 334.582   1
   7   5 -26 -343.95 2624.85   1
 -26   5   7  310.55 657.369   1
  26  -7  -7 -620.77 668.393   1
 -26  -7   7  500.16 330.724   1
  -7  -7  26  161.39 2298.53   1
 -26   7   7  374.49 825.928   1
  26   7  -7  542.28 348.252   1
   7   7 -26 -2580.7 3571.82   1
   7   7 -26 -1874.1 2091.28   1
 -26   8   0 1369.20 524.969   1
 -26   0   8  913.57 653.621   1
  26   0  -8 1188.40 692.977   1
  26  -8  -2 1762.76 678.315   1
 -26   8  -2 2769.26 701.906   1
 -26  -8   2 1210.45 385.293   1
  26  -2  -8 2167.34 813.581   1
  -2  -8  26 -445.49 3088.96   1
 -26   8   2 3621.43 984.345   1
  26  -8   2 2237.90 551.978   1
 -26   2   8 4836.29 1245.73   1
  26   2  -8 3309.44 928.122   1
   2   8 -26  287.29 2167.34   1
  26  -8  -4  173.41 526.953   1
 -26   8  -4  144.20 215.852   1
 -26  -8   4   86.61 244.736   1
  -8  -4  26 -952.93 2991.95   1
 -26  -4   8  204.94 416.161   1
  -4  -8  26   85.04 2374.60   1
 -26   8   4 -1640.4 1684.49   1
  26  -8   4 -462.13 210.451   1
   8   4 -26   56.26 2435.23   1
  26  -8  -6  242.75 706.096   1
 -26  -8   6   33.72 323.558   1
 -26  -6   8   84.56 343.622   1
  -6  -8  26  191.82 1773.78   1
  -6  -8  26 -623.97 2362.47   1
   8   6 -26 -3167.2 4108.69   1
   8   6 -26 -460.59 2072.54   1
 -26   6   8  610.85 766.398   1
  26   6  -8   -3.05 321.905   1
   6   8 -26 4794.40 4296.10   1
   6   8 -26  702.68 1973.32   1
  -8  -8  26 1117.85 1896.15   1
  -8  -8  26 -1559.9 2207.03   1
 -26   8   8 3644.58 2450.66   1
 -26   8   8  341.53 1159.74   1
  26   8  -8 1585.27 485.393   1
 -26   9  -1  17242. 3816.55   1
 -26  -1   9  16757. 3748.20   1
 -26   1   9  28718. 6351.00   1
  26   1  -9  18157. 4057.98   1
  26  -9  -3 -571.27 529.048   1
 -26   9  -3   94.80 288.832   1
 -26  -9   3  698.27 313.526   1
  26  -9   3  502.04 248.815   1
  26   9  -3  -63.09 277.588   1
   9   3 -26 -1054.2 2164.04   1
 -26   3   9  -39.54 592.216   1
   3   9 -26  573.70 2027.34   1
  26  -9  -5 -289.60 802.226   1
 -26   9  -5  667.18 286.186   1
 -26  -9   5  575.46 312.865   1
  -9  -5  26 -923.71 1661.34   1
 -26  -5   9  279.35 449.454   1
  -5  -9  26 -1238.0 1864.18   1
  -5  -9  26   35.13 2103.40   1
  26  -9   5  272.63 199.868   1
  26   9  -5  572.04 320.582   1
   5   9 -26 1285.41 3520.01   1
   5   9 -26  935.62 1753.94   1
  26  -9  -7 1802.45 1483.85   1
  26  -9  -7 -666.30 1219.27   1
 -26  -9   7 1292.03 426.083   1
  -9  -7  26 -1516.9 1941.35   1
  -9  -7  26 -254.99 2031.75   1
 -26  -7   9 1512.51 500.385   1
 -26   9   7 1529.05 1755.04   1
 -26   9   7  631.79 1110.13   1
   9   7 -26 -1492.7 1724.17   1
   9   7 -26 1793.63 3550.87   1
 -26   7   9  822.29 1771.58   1
 -26   7   9 -747.44 1037.04   1
  26   7  -9 1552.20 497.629   1
  -9  -9  26 4648.88 2956.67   1
  -9  -9  26 -2082.5 1707.64   1
 -26   9   9  10243. 5337.88   1
 -26   9   9 1773.78 1026.02   1
   9   9 -26 -3873.9 3470.40   1
   9   9 -26 -1572.0 1282.11   1
  26 -10   0  11156. 2504.68   1
 -26   0  10  10277. 2360.27   1
  26   0 -10  11542. 2645.79   1
  26 -10  -2  307.90 506.559   1
 -26  10  -2  457.06 360.930   1
  -2  10 -26  973.21 1287.62   1
 -26  -2  10  204.83 501.598   1
  -2 -10  26 -1217.1 2026.24   1
 -26  10   2 1294.23 648.550   1
  26 -10   2  280.45 401.940   1
  10   2 -26 1536.76 1885.13   1
 -26   2  10 -673.57 615.588   1
   2  10 -26 -4750.3 4366.66   1
   2  10 -26 -1882.9 1461.80   1
 -26  10  -4  241.76 249.145   1
 -26 -10   4  252.45 281.115   1
 -10  -4  26  416.05 1503.69   1
  26  -4 -10 1602.91 1964.50   1
  -4 -10  26 -3050.4 2272.07   1
  -4 -10  26 -1247.9 1824.49   1
  26 -10   4  575.24 255.650   1
  26  10  -4  262.71 318.928   1
 -26   4  10  -27.59 612.060   1
  26   4 -10  520.45 584.058   1
   4  10 -26 1001.54 3653.40   1
  26 -10  -6 -1416.6 1338.33   1
  26 -10  -6 -891.74 1144.30   1
 -26  10  -6  215.30 200.529   1
 -26 -10   6  465.99 315.070   1
 -10  -6  26  678.76 1703.23   1
 -10  -6  26 -402.38 1932.53   1
  26  -6 -10 -878.07 1199.43   1
 -26  -6  10  239.55 454.304   1
 -26  10   6  397.97 1433.14   1
  26 -10   6   73.16 175.504   1
  26  10  -6 -403.15 311.211   1
  10   6 -26 -1081.9 1696.61   1
  10   6 -26 2126.55 3373.38   1
  26   6 -10  691.10 502.921   1
   6  10 -26 3774.66 3784.58   1
   6  10 -26 -1558.8 1481.64   1
 -26 -10   8 1887.33 521.221   1
 -10  -8  26 -670.16 1284.31   1
  26  -8 -10  -76.73 1320.69   1
  26  -8 -10   92.69 963.840   1
 -26  -8  10 1375.81 478.778   1
  -8 -10  26 -986.88 1932.53   1
  -8 -10  26 -481.31 1456.29   1
 -26  10   8  647.78 1694.41   1
 -26  10   8   58.77 894.167   1
  26  10  -8 1602.91 485.503   1
  10   8 -26  141.77 1101.75   1
  10   8 -26 2355.86 3174.95   1
  26   8 -10 2341.53 655.936   1
   8  10 -26 -7920.8 4879.28   1
   8  10 -26  404.14 1037.92   1
  26 -10 -10 -938.93 1390.14   1
  26 -10 -10  -50.89 516.591   1
 -26 -10  10  396.10 348.583   1
 -10 -10  26 -2081.4 2168.45   1
  26 -11  -1 -555.51 524.528   1
 -26  -1  11 1059.75 610.075   1
  -1 -11  26  210.56 1687.79   1
 -26  11   1 -437.33 518.906   1
  26 -11   1 2248.92 641.164   1
 -26   1  11  411.53 638.628   1
   1 -11  26 -936.39 1285.41   1
   1  11 -26 3298.42 4037.04   1
   1  11 -26 -342.63 1150.92   1
 -11  -3  26   76.94 1481.64   1
  26  -3 -11 1299.75 1795.83   1
  26  -3 -11   -1.72 610.957   1
  -3  11 -26  818.87 1051.59   1
 -26  -3  11  648.33 512.512   1
  -3 -11  26 4341.30 2765.95   1
  -3 -11  26 -1114.5 1615.04   1
 -26  11   3  758.68 911.034   1
 -26  11   3 -1437.5 1714.25   1
  26 -11   3 -250.36 372.726   1
  11   3 -26   68.48 1337.23   1
  26   3 -11 -509.54 566.861   1
  26 -11  -5 1046.63 1210.45   1
  26 -11  -5  602.58 1149.82   1
 -26  11  -5 1060.63 317.826   1
 -11  -5  26 -1759.5 1867.49   1
 -11  -5  26 -1026.3 1708.74   1
  26  -5 -11 -672.69 1097.67   1
 -26  -5  11  744.68 540.403   1
  -5 -11  26 -835.19 1815.67   1
  26 -11   5  911.92 275.162   1
  26  11  -5  305.59 322.235   1
  11   5 -26 2210.34 3544.26   1
  11   5 -26  909.93 1686.69   1
   5  11 -26 2219.16 3348.03   1
   5  11 -26 1476.13 1335.02   1
  26 -11  -7  372.73 1168.56   1
  26 -11  -7   82.68 703.781   1
 -26  11  -7   17.67 175.725   1
 -26 -11   7  291.81 290.155   1
  26  -7 -11 -475.69 1434.24   1
  26  -7 -11 -211.33 886.891   1
 -26  -7  11  156.65 449.123   1
  -7 -11  26 -665.09 1848.75   1
  -7 -11  26 -169.44 1153.12   1
 -26  11   7 -177.71 1523.54   1
  26  11  -7  -65.99 291.258   1
  11   7 -26 -375.15 1016.87   1
 -26   7  11 -2060.4 2036.16   1
  26   7 -11  107.32 473.707   1
   7  11 -26 -3224.6 3290.70   1
 -26 -11   9  242.20 333.480   1
 -11  -9  26  191.71 1935.84   1
 -11  -9  26 -147.72 756.696   1
  26  -9 -11   18.50 1363.69   1
  26  -9 -11   77.20 540.623   1
 -26  11   9 -381.21 1635.98   1
 -26  11   9 -444.71 487.046   1
  26  11  -9  825.71 375.372   1
  11   9 -26  795.39 2870.68   1
  26   9 -11  217.73 393.561   1
   9  11 -26 -3924.6 3419.69   1
   9  11 -26 -203.40 636.864   1
  26 -11 -11  827.58 1658.03   1
  26 -11 -11  271.08 582.736   1
 -26 -11  11  272.63 337.449   1
 -11 -11  26 -1618.3 2301.84   1
 -11 -11  26  274.17 945.760   1
 -26  11  11 -785.47 1678.98   1
 -26  11  11  -76.93 575.680   1
  26  11 -11  660.57 434.351   1
  11  11 -26 -1536.8 3242.20   1
  11  11 -26  108.43 842.574   1
 -26   0  12 -515.38 600.374   1
   0 -12  26 2546.57 2060.41   1
   0 -12  26 -618.01 1535.66   1
   0  12 -26 -3578.4 4046.96   1
   0  12 -26 -205.82 1022.49   1
 -12  -2  26 -502.04 1306.36   1
  26  -2 -12 2344.83 2243.41   1
  26  -2 -12 -309.45 671.149   1
 -26  -2  12  933.63 602.469   1
 -26  12   2 -2095.7 1683.38   1
 -26  12   2 -1051.0 885.238   1
  26 -12   2  301.07 382.648   1
  12   2 -26 1023.81 1292.03   1
  26   2 -12  712.71 651.636   1
   2  12 -26 -191.82 973.762   1
  26 -12  -4 -502.48 1200.53   1
 -26  12  -4 2042.77 586.815   1
 -26 -12   4  666.52 313.196   1
 -12  -4  26 6062.17 1990.96   1
  -4  12 -26 3531.03 1134.38   1
 -26  -4  12  389.26 516.591   1
  -4 -12  26 -3736.1 2536.65   1
  -4 -12  26 2259.95 1556.61   1
 -26  12   4 1369.20 1617.24   1
  12   4 -26  23989.  12435.   1
   4 -12  26 2290.81 1180.68   1
  26   4 -12   -3.79 619.115   1
   4  12 -26 -2514.6 3933.41   1
  26 -12  -6 -2365.8 1629.37   1
  26 -12  -6 -183.55 496.196   1
 -26  12  -6  125.34 213.978   1
 -26 -12   6  794.29 333.700   1
  -6 -26  12  -21.12 215.632   1
  26  -6 -12   44.34 1444.16   1
  26  -6 -12  -60.72 780.068   1
 -26  -6  12  -77.90 428.728   1
  -6 -12  26 -534.34 1968.91   1
  -6 -12  26 -826.92 984.565   1
  26 -12   6   91.99 168.890   1
  26  12  -6  -28.89 337.338   1
 -26   6  12 -571.38 1788.11   1
 -26   6  12 -593.54 639.510   1
  26 -12  -8 -431.48 1616.14   1
  26 -12  -8 -161.72 447.029   1
  -8 -26  12  -35.49 236.027   1
 -12  -8  26 -2284.2 2220.26   1
 -12  -8  26   70.16 704.001   1
  26  -8 -12 1143.20 1555.51   1
  26  -8 -12   23.45 535.883   1
 -26  -8  12   84.50 457.942   1
  -8 -12  26  349.24 783.044   1
 -26  12   8   91.43 498.842   1
 -26  12   8 1157.53 1586.37   1
  26  12  -8 -210.34 334.803   1
  12   8 -26  195.68 592.327   1
  12   8 -26 -4157.2 3430.71   1
 -26   8  12  723.29 1952.37   1
 -26   8  12 -402.60 592.327   1
  26   8 -12  807.63 526.623   1
   8  12 -26 5702.78 4210.12   1
   8  12 -26 -183.11 683.496   1
  26 -12 -10   -1.81 558.923   1
 -26 -12  10  178.26 338.992   1
 -10 -26  12 -466.65 312.975   1
 -12 -10  26 -155.11 829.566   1
  26 -10 -12 -212.88 581.413   1
 -26  12  10 -366.44 573.255   1
  26  12 -10 -265.13 351.339   1
  12  10 -26  557.60 809.502   1
  26  10 -12  217.40 389.924   1
  26 -13  -1  -21.10 1066.47   1
  26 -13  -1 -496.53 652.518   1
  -1 -26  13 -265.68 229.302   1
 -13  -1  26  753.17 916.436   1
  -1  13 -26 3286.29 3725.05   1
 -26  -1  13 -215.96 595.083   1
 -26  13   1 1286.52 1423.22   1
   1 -26  13 -179.03 201.742   1
   1  26 -13 -264.03 208.025   1
  13   1 -26  -52.86 817.770   1
   1 -13  26 -464.56 1455.19   1
   1 -13  26 -433.91 811.266   1
   1  13 -26 -2510.2 3806.63   1
   1  13 -26   -6.58 643.479   1
  26 -13  -3 -830.45 1285.41   1
 -26  13  -3  584.94 467.864   1
  26  -3 -13  -71.30 773.784   1
  -3  13 -26 -159.96 592.216   1
  -3 -13  26 3242.20 2552.09   1
  -3 -13  26 -1075.7 894.278   1
 -26  13   3 -1704.3 1648.11   1
  13   3 -26 -891.85 3253.22   1
  13   3 -26  158.75 839.598   1
 -26   3  13   48.46 646.786   1
  26   3 -13 3506.78 1067.69   1
   3  13 -26 6140.44 4789.99   1
   3  13 -26  115.86 757.799   1
  26 -13  -5 1185.09 573.034   1
 -26  13  -5 -248.04 327.527   1
 -26 -13   5  217.84 285.194   1
  -5 -26  13  -22.02 245.287   1
 -13  -5  26  159.63 1802.45   1
 -13  -5  26  804.32 754.822   1
  26  -5 -13 1694.41 1798.04   1
  26  -5 -13 -948.41 758.130   1
  -5  13 -26  445.82 414.287   1
 -26  -5  13   85.23 472.825   1
  -5 -13  26  716.02 1976.63   1
 -26  13   5 -3318.3 2220.26   1
 -26  13   5 1370.30 625.399   1
  26 -13   5  276.26 276.816   1
   5 -26  13  429.28 225.664   1
  26  13  -5 -217.84 321.353   1
   5  26 -13  498.29 269.981   1
 -26   5  13  446.48 1746.22   1
 -26   5  13 -669.72 596.736   1
   5 -13  26 -344.17 516.922   1
  26   5 -13 -647.34 615.036   1
   5  13 -26 1564.32 671.590   1
  26 -13  -7 -4271.9 2538.86   1
  26 -13  -7 -377.25 466.321   1
 -26  13  -7  118.18 178.811   1
 -26 -13   7  497.52 300.628   1
  -7 -26  13  194.36 234.704   1
 -13  -7  26 1203.84 2144.19   1
 -13  -7  26  856.35 694.631   1
 -26  -7  13 -126.12 469.077   1
  -7 -13  26  184.65 807.518   1
  -7 -13  26 -2718.6 2307.35   1
 -26  13   7 1988.75 1984.34   1
  26 -13   7   77.62 154.338   1
   7 -26  13  294.68 196.781   1
   7  26 -13   76.60 240.877   1
  13   7 -26  331.39 2762.65   1
  13   7 -26 -111.12 566.420   1
 -26   7  13 -785.14 1865.28   1
 -26   7  13  544.15 569.507   1
   7  13 -26 -667.07 3131.96   1
   7  13 -26 -247.49 710.064   1
  -9 -26  13  -13.76 293.573   1
 -26  -9  13  129.42 439.312   1
  -9 -13  26 -2892.7 2644.69   1
  -9 -13  26 -251.35 913.790   1
 -26  13   9  218.39 526.623   1
  26  13  -9  -42.89 372.726   1
   9  26 -13   54.44 268.548   1
  13   9 -26 2068.13 3109.91   1
  13   9 -26 -240.77 721.860   1
 -26   9  13 -1057.7 1827.80   1
 -26   9  13  127.44 656.818   1
  26   9 -13   35.65 503.472   1
   9  13 -26 -3489.1 3668.83   1
 -26  14   0  379.78 1465.11   1
 -14   0  26 -730.90 614.375   1
  26 -14   0 -536.54 976.848   1
  26 -14   0   29.05 442.950   1
   0  26 -14  199.65 216.514   1
  14   0 -26 -767.72 590.673   1
 -26   0  14 -1038.5 1653.62   1
   0 -14  26  -80.78 485.723   1
  26   0 -14   -8.91 690.882   1
   0  14 -26 -4355.6 4097.67   1
   0  14 -26  266.45 438.981   1
  26 -14  -2 1240.21 1203.84   1
  26 -14  -2   39.39 370.962   1
 -26  -2  14   20.69 556.719   1
  -2 -14  26 1738.51 2092.38   1
  -2 -14  26    3.15 611.839   1
  26 -14   2  -18.02 320.912   1
   2  26 -14  227.87 219.049   1
  14   2 -26  100.69 620.659   1
 -26   2  14 -714.36 587.035   1
   2 -14  26 -2256.6 1880.72   1
   2 -14  26  311.21 495.865   1
  26   2 -14   13.90 695.292   1
   2  14 -26 5273.94 4490.13   1
  26 -14  -4 -3572.9 2344.83   1
  26 -14  -4  147.39 421.453   1
 -14  -4  26 -364.90 1941.35   1
 -14  -4  26  111.23 647.117   1
  26  -4 -14 1363.69 2016.31   1
  -4  14 -26 -4952.0 3934.51   1
  -4  14 -26   46.79 417.153   1
  -4 -14  26 -1951.3 820.416   1
 -26  14   4  519.13 1439.75   1
  14   4 -26 1450.78 3516.70   1
  14   4 -26 -705.65 609.634   1
 -26   4  14 -620.55 588.468   1
 -26   4  14 5273.94 3212.43   1
   4 -14  26  414.40 521.662   1
   4  14 -26 9938.25 6278.24   1
   4  14 -26 -178.70 602.469   1
  -6  26 -14  694.08 265.682   1
 -26 -14   6  102.05 312.424   1
 -14  -6  26 2891.63 2361.37   1
 -14  -6  26 -853.16 753.169   1
 -26  -6  14 -310.88 414.728   1
  -6 -14  26 -2092.4 2282.00   1
  -6 -14  26 -140.34 756.917   1
 -26  14   6  120.05 461.580   1
  26 -14   6   -7.56 227.207   1
  26  14  -6  402.82 336.016   1
   6  26 -14  187.85 241.649   1
  14   6 -26 -144.42 609.194   1
  14   6 -26 -1068.2 2885.02   1
 -26   6  14   64.68 562.451   1
 -26   6  14 -506.34 1809.06   1
   6 -14  26  176.17 457.060   1
  26   6 -14  409.11 573.255   1
   6  14 -26 -2709.7 3477.01   1
  26 -14  -8   98.85 491.125   1
 -26  14  -8   91.13 161.944   1
  -8  26 -14  137.47 204.608   1
 -26 -14   8  -63.57 320.582   1
 -14  -8  26  511.85 2065.92   1
  26  -8 -14  -65.88 1575.35   1
  26  -8 -14 -335.24 711.167   1
  -8  14 -26  658.69 584.499   1
  -8 -14  26  345.39 2114.43   1
  -8 -14  26 -286.96 1047.73   1
 -26  14   8 -389.70 659.023   1
  26 -14   8  151.91 155.881   1
  26  14  -8 -163.60 312.755   1
   8  26 -14  342.08 293.683   1
  14   8 -26 -314.96 739.829   1
  26 -15  -1 1687.79 1414.40   1
  26 -15  -1 -526.73 396.979   1
  15  -1 -26 -592.22 612.721   1
 -26  15  -1   82.04 1254.55   1
  -1  26 -15 -235.14 199.316   1
  -1 -26  15  -10.78 239.665   1
 -15  -1  26   72.34 505.456   1
  26  -1 -15 -441.74 609.414   1
  -1  15 -26 -704.55 3377.79   1
  -1  15 -26   20.79 431.374   1
 -26  -1  15 1060.85 1594.09   1
 -26  -1  15 -391.47 491.125   1
  -1 -15  26 2003.08 2182.78   1
 -26  15   1 -372.40 438.871   1
 -26  15   1  406.90 1328.41   1
  26 -15   1 -636.09 1002.42   1
  26 -15   1 -140.89 406.790   1
   1 -26  15  -85.06 220.152   1
   1  26 -15  351.45 214.640   1
 -26   1  15  259.73 572.042   1
   1 -15  26 -1827.8 1945.76   1
   1 -15  26 -586.92 544.261   1
  26   1 -15  295.89 668.503   1
   1  15 -26 -126.67 448.682   1
  26 -15  -3 -972.00 1355.97   1
  26 -15  -3  135.82 473.817   1
  -3  26 -15  303.16 210.230   1
  -3 -26  15  460.81 281.887   1
 -15  -3  26  378.57 1972.22   1
 -15  -3  26  195.90 656.597   1
  -3  15 -26  -79.13 381.655   1
 -26  -3  15  237.57 558.152   1
  -3 -15  26 2057.10 2227.98   1
  -3 -15  26 -204.83 710.946   1
 -26  15   3  -43.68 394.333   1
   3 -26  15   38.44 222.246   1
   3  26 -15  303.38 225.113   1
  15   3 -26 2860.76 3941.13   1
  15   3 -26 -712.71 675.449   1
 -26   3  15 -1361.5 1902.77   1
 -26   3  15  246.28 489.251   1
  26   3 -15  -61.97 601.807   1
   3  15 -26 -3477.0 4256.42   1
   3  15 -26 -336.68 591.445   1
  26 -15  -5  -58.64 428.618   1
 -26  15  -5  474.15 315.621   1
  -5  26 -15 1181.79 339.654   1
  -5 -26  15  881.93 339.323   1
 -15  -5  26 -588.36 746.444   1
  26  -5 -15 -3522.2 2481.53   1
  26  -5 -15   17.84 740.491   1
  -5  15 -26 -492.78 470.951   1
 -26  -5  15  925.59 509.976   1
  -5 -15  26  451.77 2130.96   1
  -5 -15  26 -309.67 717.230   1
  26 -15   5 2000.88 516.922   1
   5 -26  15 1003.42 317.385   1
   5  26 -15  676.11 284.202   1
  15   5 -26 -540.95 737.294   1
  15   5 -26 4285.08 3569.61   1
   5 -15  26 -206.70 1609.52   1
   5 -15  26 -117.63 596.295   1
  26   5 -15  523.10 614.154   1
   5  15 -26 -6872.4 5380.88   1
 -26  16   0  164.70 1346.05   1
 -26  16   0 -258.19 399.074   1
 -16   0  26  -83.99 670.157   1
  26 -16   0  817.66 1443.06   1
  26 -16   0  -44.41 487.156   1
   0  26 -16 1924.81 484.841   1
  16   0 -26 -257.30 683.055   1
 -26   0  16 -331.39 543.600   1
  26   0 -16  232.28 624.076   1
   0  16 -26 -5523.1 4438.32   1
   0  16 -26   47.15 660.235   1
  26 -16  -2  755.15 526.402   1
  16  -2 -26  240.33 838.606   1
 -16  -2  26  359.61 1925.92   1
 -16  -2  26  206.26 813.912   1
  -2  16 -26 -1601.8 3477.01   1
 -26  -2  16  367.54 476.353   1
 -26  -2  16 -1123.4 1890.64   1
  -2 -16  26  111.67 878.623   1
  -2 -16  26  545.47 1963.40   1
  26 -16   2 -379.12 1035.94   1
   2 -26  16 -118.40 274.391   1
   2  26 -16  150.70 227.979   1
  16   2 -26 -293.79 865.835   1
  16   2 -26 5399.62 4676.44   1
 -26   2  16  664.31 1904.97   1
   2 -16  26  -71.00 689.339   1
   2 -16  26  245.29 1788.11   1
  26   2 -16 -144.42 606.438   1
   2  16 -26 -3066.9 4151.69   1
   2  16 -26  814.13 710.175   1
 -27  -1   0  40955. 9002.31   1
 -27   1   0  64921.  14232.   1
  27  -1   0  52365.  11476.   1
 -27   0   1  84621.  18554.   1
  27   0   1  53247.  11675.   1
  27   0  -1  68504.  15015.   1
  27  -2  -1  612.83 300.518   1
 -27   2  -1   99.04 286.076   1
 -27  -2   1  358.50 331.606   1
  27  -1  -2  559.70 288.502   1
 -27   1  -2   72.45 253.445   1
  27  -2   1   90.22 244.956   1
  27   2  -1  515.27 330.834   1
 -27   1   2 1185.09 420.460   1
  27  -1   2 -343.18 258.957   1
 -27  -3   0 -186.09 265.682   1
 -27   3   0 1046.41 338.661   1
  27  -3   0  617.57 283.430   1
  27   3   0  382.76 275.383   1
  27  -3  -2 2295.22 583.838   1
 -27   3  -2  783.82 289.714   1
 -27  -3   2  879.39 365.781   1
  27  -2  -3 1511.41 490.684   1
 -27   2  -3  670.05 272.406   1
 -27  -2   3 1008.49 372.946   1
  27   3  -2  487.49 281.005   1
 -27   2   3 1527.94 542.387   1
  27   2  -3  862.20 331.937   1
  27  -4  -1  546.14 287.509   1
 -27   4  -1  173.96 242.531   1
 -27  -4   1  -65.92 243.854   1
 -27  -1   4  256.31 306.912   1
 -27   4   1 -213.87 336.567   1
  27  -4   1  117.19 236.247   1
  27   4  -1 -161.83 258.736   1
  27   1  -4  299.42 290.376   1
 -27  -4   3 2214.75 602.469   1
  27  -4   3 2361.37 577.995   1
  27   4  -3 2987.54 729.357   1
 -27   5   0  383.64 267.115   1
  27  -5   0  200.20 240.547   1
 -27   0   5  139.46 410.208   1
  27  -5  -2  296.77 420.019   1
 -27   5  -2  112.78 256.642   1
  27  -2  -5  974.42 570.609   1
 -27  -2   5  173.52 333.480   1
  27  -5   2 -111.45 256.642   1
  27   5  -2  166.02 261.603   1
  27   2  -5  -14.40 292.801   1
  27  -5  -4  33602. 7396.09   1
  27  -4  -5  29456. 6493.21   1
 -27  -4   5  32433. 7130.41   1
  27  -5   4  19281. 4237.68   1
  27   5  -4  25885. 5692.86   1
  27   4  -5  34164. 7501.92   1
  27  -6  -1  -75.02 388.821   1
 -27   6  -1 -129.86 270.091   1
 -27  -6   1   38.25 256.091   1
 -27  -1   6  214.53 422.114   1
  27  -6   1  820.31 317.164   1
  27  -6  -3 2301.84 687.244   1
 -27  -6   3 1818.98 499.283   1
  27  -3  -6 1546.69 620.438   1
 -27  -3   6 4071.21 981.148   1
  27  -6   3 2660.12 632.785   1
  27   3  -6 3915.77 931.760   1
 -27   6  -5 2671.15 644.140   1
  27  -5  -6 3836.40 1009.04   1
   6   5 -27    5.75 1596.29   1
   5   6 -27 -1088.9 1439.75   1
 -27   7   0 -125.68 407.231   1
  27  -7   0  283.87 383.530   1
  27  -7  -2 3857.34 967.919   1
 -27   7  -2 5487.81 1239.11   1
  27  -2  -7 4786.68 1187.30   1
 -27  -2   7 7981.47 1832.21   1
  27  -7   2 5497.73 1245.73   1
  27   2  -7 7660.67 1757.25   1
  27  -7  -4   95.36 433.469   1
 -27   7  -4   65.68 211.884   1
 -27  -7   4 -137.03 293.462   1
  27  -4  -7 -445.26 498.070   1
 -27  -4   7  423.55 372.946   1
  -4  -7  27 -538.09 1802.45   1
  27  -7   4  224.89 227.207   1
   4   7 -27  -11.42 1244.62   1
  27  -7  -6  248.70 530.261   1
 -27  -7   6  467.31 348.252   1
  -7  -6  27 1044.87 1635.98   1
  27  -6  -7  205.60 566.640   1
 -27  -6   7 2039.46 595.965   1
  -6  -7  27 -893.18 1590.78   1
 -27   7   6 -188.40 1416.60   1
  27   7  -6 1050.60 414.287   1
   7   6 -27  156.32 1228.09   1
 -27   6   7 -1396.8 1760.55   1
  27  -8  -1  16823. 3737.18   1
 -27   8  -1  25785. 5673.02   1
  27  -1  -8  17054. 3801.12   1
 -27   8   1  17363. 3865.06   1
  27  -8   1  25763. 5668.61   1
  27  -8  -3 -148.05 425.752   1
 -27   8  -3  216.18 257.413   1
 -27  -8   3  281.34 277.367   1
  27  -3  -8  228.64 528.828   1
 -27  -3   8 -675.34 497.188   1
  -3  -8  27 -249.81 1389.04   1
  27  -8   3  335.24 217.286   1
  27   8  -3  307.24 321.905   1
 -27   3   8  422.89 578.436   1
  27   3  -8 -364.90 473.156   1
   3   8 -27  357.84 1177.38   1
  27  -8  -5   67.23 480.432   1
 -27   8  -5  265.57 223.018   1
 -27  -8   5 -439.09 320.692   1
  -8  -5  27 -2336.0 1607.32   1
  27  -5  -8  736.96 586.153   1
 -27  -5   8  170.98 450.446   1
  -5  -8  27 1085.66 1575.35   1
 -27   8   5 -2642.5 2001.98   1
  27  -8   5  256.31 204.277   1
  27   8  -5  283.65 312.314   1
   8   5 -27  657.81 1324.00   1
  27   5  -8  380.66 387.939   1
   5   8 -27 -1424.3 1514.72   1
  27  -8  -7 -1220.4 775.107   1
 -27  -8   7 -250.36 310.550   1
  -8  -7  27 -132.95 1427.62   1
  27  -7  -8  478.78 625.840   1
 -27  -7   8  621.43 360.599   1
  -7  -8  27 1576.45 1900.56   1
  -7  -8  27 -828.24 1480.54   1
  27   8  -7  -33.90 336.457   1
   8   7 -27 -214.09 3615.92   1
   8   7 -27 -173.19 1217.06   1
 -27   7   8  119.39 630.250   1
   7   8 -27 4368.86 4427.29   1
   7   8 -27 -485.83 1203.84   1
 -27   9   0 151472.  33194.   1
  27  -9   0 180134.  39466.   1
  27   0  -9 140117.  30713.   1
  27  -9  -2 -290.93 437.217   1
 -27   9  -2 1543.38 476.904   1
  27  -2  -9  485.83 593.760   1
  -2  -9  27 -467.42 1325.10   1
  27  -9   2  -50.48 353.764   1
 -27   2   9  -54.86 523.095   1
   2   9 -27   17.95 1077.72   1
  27  -9  -4  121.16 468.856   1
 -27   9  -4  235.92 232.058   1
  -9  -4  27 -587.37 1483.85   1
  27  -4  -9   89.98 571.932   1
 -27  -4   9  223.68 477.455   1
 -27   9   4 -492.78 555.286   1
  27  -9   4  266.89 216.514   1
  27   9  -4   95.65 290.927   1
   9   4 -27 -968.47 1263.37   1
 -27   4   9 -146.07 594.862   1
  27   4  -9  -80.59 518.575   1
   4   9 -27 -4284.0 4478.00   1
   4   9 -27 -1181.8 1307.46   1
 -27   9  -6  401.39 234.042   1
 -27  -9   6  209.35 318.267   1
  27  -6  -9 -219.49 575.349   1
  -6  -9  27  755.48 1897.25   1
  -6  -9  27 -806.53 1204.94   1
  27  -9   6 -100.18 193.143   1
  27   9  -6 -359.83 322.676   1
   9   6 -27 -2158.5 3685.37   1
   9   6 -27 -280.89 1073.31   1
  27   6  -9  466.43 393.782   1
   6   9 -27 -1778.2 3927.90   1
   6   9 -27 -787.56 949.508   1
  27  -9  -8 1260.06 1462.90   1
  27  -9  -8 3077.94 952.044   1
 -27  -9   8 1709.84 535.001   1
  -9  -8  27 -5075.5 3178.26   1
  -9  -8  27 1563.22 960.092   1
  27  -8  -9 -3166.1 2183.88   1
 -27  -8   9 1118.95 444.824   1
 -27   9   8 -286.63 609.634   1
 -27   9   8 -963.18 1736.30   1
  27   9  -8 1492.67 484.841   1
 -27   8   9 1387.94 2026.24   1
  27   8  -9 1284.31 506.228   1
  27 -10  -1  13251. 2965.49   1
 -27  10  -1  22114. 4882.59   1
  27  -1 -10  16536. 3711.83   1
 -27  10   1  16073. 3577.33   1
  27 -10   1  23007. 5071.10   1
 -27   1  10  15004. 3360.16   1
  27   1 -10  19932. 4450.44   1
 -27  10  -3  201.74 298.644   1
 -27 -10   3  448.90 308.014   1
 -10  -3  27 -135.27 1281.00   1
  27  -3 -10 -347.15 643.809   1
  -3 -10  27   68.77 1213.76   1
 -27  10   3 -719.99 530.591   1
  27 -10   3  681.84 338.441   1
  10   3 -27  840.15 1042.22   1
 -27   3  10  185.76 569.286   1
   3  10 -27 4683.05 4504.46   1
   3  10 -27 -226.88 995.920   1
  27 -10  -5  305.48 575.019   1
 -27  10  -5  442.84 236.027   1
 -27 -10   5  450.34 271.745   1
 -27  -5  10  216.07 497.188   1
  -5 -10  27 -2013.0 2070.33   1
  -5 -10  27  407.89 937.933   1
  27 -10   5  227.65 223.018   1
  10   5 -27  691.32 836.401   1
 -27   5  10 -374.60 605.776   1
  27   5 -10  679.42 544.923   1
   5  10 -27 2056.00 3846.32   1
  27 -10  -7 -262.15 1236.91   1
  27 -10  -7 -528.94 551.758   1
 -27  10  -7   89.32 188.954   1
 -10  -7  27 -1810.2 2168.45   1
 -10  -7  27  212.77 782.603   1
 -27  10   7  382.65 1684.49   1
  27  10  -7 1028.33 396.318   1
  10   7 -27 1171.87 3871.68   1
  27   7 -10  860.98 480.873   1
   7  10 -27 -883.91 3491.34   1
   7  10 -27  -78.90 595.965   1
 -27 -10   9  627.38 366.001   1
 -10  -9  27 -3864.0 2718.55   1
 -10  -9  27 -450.01 924.263   1
 -27  -9  10  598.83 382.207   1
  -9 -10  27 5716.01 3534.34   1
  -9 -10  27 -308.57 879.285   1
 -27  10   9 2021.83 2159.63   1
 -27  10   9 -524.09 549.443   1
  27  10  -9  512.84 413.736   1
  10   9 -27 -4214.5 3800.02   1
  10   9 -27 -237.24 643.479   1
 -27   9  10 -555.40 1832.21   1
 -27   9  10 -152.90 556.939   1
  27   9 -10 1316.28 478.558   1
   9  10 -27 6022.48 4508.87   1
   9  10 -27 -346.93 636.644   1
 -27  11   0 1807.96 580.862   1
 -27   0  11 -102.06 542.387   1
   0 -11  27 -272.19 691.985   1
  27   0 -11  622.53 651.085   1
 -27  11  -2 2735.09 719.545   1
  27  -2 -11 -106.85 640.723   1
  -2  11 -27  -81.78 501.708   1
  -2 -11  27  845.77 1844.34   1
  -2 -11  27 -198.99 806.415   1
 -27  11   2  252.12 487.156   1
  11   2 -27  324.99 761.327   1
 -27   2  11 1579.76 701.576   1
   2 -11  27 -723.62 741.042   1
   2  11 -27 5604.67 4859.44   1
   2  11 -27 -433.47 609.855   1
 -27  11  -4  665.97 351.119   1
 -27 -11   4 -238.89 294.675   1
 -11  -4  27 -139.12 634.218   1
  -4 -11  27 2009.70 2119.94   1
  -4 -11  27  -44.79 691.103   1
 -27  11   4 1164.15 1660.23   1
 -27  11   4  274.50 466.982   1
  27 -11   4  439.09 256.532   1
  27  11  -4 -227.10 319.810   1
 -27   4  11 -420.13 509.535   1
  27 -11  -6  719.55 1220.37   1
  27 -11  -6   71.99 508.543   1
 -27  11  -6  738.73 276.155   1
 -27 -11   6  405.69 306.361   1
 -11  -6  27  235.70 1922.61   1
 -11  -6  27 -639.95 744.129   1
 -27  -6  11  800.46 533.458   1
  -6 -11  27 -705.65 808.510   1
  27 -11   6  250.80 183.221   1
  27  11  -6  207.58 321.353   1
  11   6 -27 -2283.1 3774.66   1
  11   6 -27 -314.19 620.659   1
 -27   6  11 -889.10 1966.71   1
 -27   6  11   74.39 471.282   1
  27   6 -11 1147.61 602.689   1
   6  11 -27 -1642.6 3252.12   1
   6  11 -27  -27.28 536.544   1
  27 -11  -8  913.79 1385.73   1
  27 -11  -8 -253.11 522.985   1
 -27 -11   8  369.97 329.401   1
 -11  -8  27 -123.25 777.312   1
  27  -8 -11 3232.28 2204.83   1
  27  -8 -11 -188.95 618.784   1
 -27  -8  11 -500.16 449.895   1
  -8 -11  27 1154.23 2264.36   1
  -8 -11  27 -705.76 935.177   1
 -27  11   8 -5045.7 3006.28   1
  11   8 -27 -826.15 2966.59   1
  11   8 -27 -270.20 633.006   1
   8  11 -27 -311.65 3206.92   1
 -27  12  -1  148.27 369.088   1
  27  -1 -12 -138.68 635.762   1
  -1  12 -27   45.03 449.123   1
 -27  -1  12  388.27 536.875   1
  -1 -12  27  615.48 1777.09   1
  -1 -12  27   17.80 618.123   1
  12   1 -27   79.19 624.076   1
 -27   1  12 -233.60 541.064   1
   1  12 -27 -2562.0 4215.63   1
   1  12 -27  -11.30 419.027   1
 -12  -3  27 -690.33 551.978   1
  -3  12 -27  200.42 372.616   1
 -27  12   3 2040.57 1836.62   1
 -27  12   3   78.80 443.611   1
  27 -12   3  967.15 450.777   1
 -27   3  12  216.07 497.629   1
   3 -12  27  147.28 518.575   1
  27   3 -12  299.53 644.691   1
   3  12 -27  299.86 413.074   1
  27 -12  -5 2612.72 1915.99   1
  27 -12  -5 2101.20 711.167   1
 -27 -12   5 1578.66 463.675   1
 -12  -5  27 -2207.0 2270.97   1
 -12  -5  27  290.04 766.728   1
  27  -5 -12 -685.48 729.357   1
  -5 -12  27 -438.76 756.696   1
  -5 -12  27 -1425.4 2010.80   1
 -27  12   5  960.97 563.333   1
 -27  12   5 1617.24 1821.19   1
  27  12  -5 1037.81 428.728   1
  12   5 -27  189.50 3970.89   1
  12   5 -27  342.85 686.362   1
  27   5 -12 2315.07 818.542   1
   5  12 -27 -1788.1 3453.86   1
   5  12 -27  832.65 592.106   1
  27 -12  -7 -673.13 1384.63   1
  27 -12  -7  388.82 440.304   1
 -27  12  -7   19.01 181.016   1
 -27 -12   7  685.70 345.055   1
  27  -7 -12  572.92 1561.02   1
  27  -7 -12  213.76 692.426   1
 -27  -7  12  369.86 444.272   1
  -7 -12  27 -555.84 2013.01   1
  -7 -12  27 -729.47 891.632   1
  27 -12   7  -13.09 174.622   1
  27  12  -7  489.36 349.465   1
  12   7 -27  658.91 3503.47   1
  12   7 -27  -17.44 681.512   1
 -27   7  12 2370.19 2549.88   1
  27   7 -12  495.64 550.876   1
  27 -13   0  172.42 351.780   1
   0 -27  13  237.46 202.734   1
 -27   0  13  -35.83 564.656   1
   0 -13  27  -79.42 1893.95   1
   0 -13  27  114.54 554.624   1
  27 -13  -2 -844.78 1154.23   1
  27 -13  -2 -106.65 431.925   1
 -27  13  -2 -213.76 376.143   1
  -2 -27  13 -105.52 247.712   1
 -13  -2  27  255.54 565.428   1
  27  -2 -13  172.53 2067.02   1
  27  -2 -13  -94.58 577.554   1
  -2  13 -27 -5659.8 4536.43   1
  -2  13 -27  -32.54 396.097   1
 -27  -2  13 -257.74 532.025   1
  -2 -13  27 -351.89 687.796   1
 -27  13   2 -1264.5 1561.02   1
   2 -27  13 -556.28 235.145   1
  13   2 -27  232.17 520.339   1
 -27   2  13    5.53 466.211   1
  27   2 -13 -101.90 617.351   1
   2  13 -27 2466.10 3911.36   1
   2  13 -27 -133.06 440.194   1
  27 -13  -4 1381.32 1489.36   1
 -13  -4  27 -1256.8 2058.21   1
 -13  -4  27 -780.95 776.430   1
  27  -4 -13  799.14 802.447   1
  -4 -13  27 -821.41 776.430   1
  -4 -13  27 -1531.3 2274.28   1
 -27  13   4  426.19 1737.40   1
  13   4 -27 -299.75 694.631   1
  13   4 -27  237.90 3583.95   1
   4 -13  27  -71.23 515.599   1
   4  13 -27 5894.60 5077.71   1
   4  13 -27 -493.33 636.754   1
  27 -13  -6 -2592.9 1887.33   1
  27 -13  -6 -312.98 561.900   1
 -27  13  -6  363.91 252.563   1
  -6 -27  13  250.47 252.673   1
  27  -6 -13 1966.71 1984.34   1
  27  -6 -13 -303.27 806.746   1
  -6  13 -27  -80.87 517.032   1
 -27  -6  13  537.21 446.367   1
  -6 -13  27 3242.20 2674.45   1
 -27  13   6 -926.58 645.132   1
  27 -13   6  481.53 234.704   1
  27  13  -6   63.48 340.756   1
   6  27 -13  642.27 275.714   1
 -27   6  13  775.44 1971.11   1
  27   6 -13  457.06 512.732   1
   6  13 -27 -251.57 654.172   1
  27 -14  -1  -22.88 1030.09   1
  27 -14  -1  -50.66 514.166   1
  -1  27 -14  -47.95 223.128   1
  -1 -27  14   38.62 231.176   1
 -14  -1  27  177.82 628.265   1
 -27  -1  14  217.62 508.653   1
  -1 -14  27  516.70 775.548   1
 -27  14   1 -1697.7 1845.44   1
   1 -27  14  -22.99 220.483   1
   1  27 -14   74.35 217.396   1
  14   1 -27 -105.10 628.265   1
   1 -14  27 -274.06 1665.75   1
   1 -14  27  295.56 593.649   1
   1  14 -27 -1217.1 3977.51   1
   1  14 -27  184.54 512.181   1
  27 -14  -3 -727.37 1148.71   1
  27 -14  -3  213.76 483.739   1
  -3  27 -14  -64.30 235.145   1
  -3 -27  14  166.02 278.139   1
  27  -3 -14  -14.50 841.362   1
  -3  14 -27 -3708.5 4202.40   1
  -3  14 -27 -380.55 491.676   1
 -27  -3  14  308.68 458.824   1
  -3 -14  27 -334.36 792.415   1
  -3 -14  27 -3093.4 2493.66   1
   3 -27  14  -19.29 219.931   1
   3  27 -14  198.99 250.799   1
  14   3 -27  164.04 792.084   1
  14   3 -27 2836.51 3919.08   1
   3 -14  27 -973.87 1805.75   1
   3 -14  27  -13.89 661.117   1
  27   3 -14 -243.30 579.318   1
   3  14 -27 5555.06 4880.38   1
 -28   0   0 196009.  42939.   1
  28   0   0 162496.  35608.   1
  28   1   1 -429.39 327.196   1
  28  -1  -1  904.53 360.820   1
 -28   1  -1   86.76 305.038   1
 -28  -1  -1  141.00 292.470   1
 -28   1   1  802.01 349.465   1
  28   1  -1  290.16 336.236   1
 -28   2   0 6550.54 1472.82   1
  28   2   0 3966.48 942.894   1
 -28   0   2 7363.02 1662.44   1
  28   0  -2 6455.73 1457.39   1
  28  -2  -2 1012.79 374.931   1
 -28   2   2  994.05 383.199   1
  28  -2   2   86.84 239.775   1
  28   2  -2   55.65 290.486   1
 -28  -3   1 -408.55 298.533   1
  28  -1  -3  292.03 284.423   1
 -28  -1   3   58.96 347.150   1
 -28   3   1 -173.74 260.610   1
  28  -3   1   11.70 237.239   1
  28   3  -1  -58.88 287.289   1
 -28   1   3 -317.94 337.559   1
  28   1  -3 -266.01 295.336   1
 -28   3  -3  790.87 304.156   1
 -28  -3   3 2255.54 619.556   1
  28  -3   3  391.80 254.988   1
 -28  -4   0 -170.65 267.997   1
 -28   4   0  190.61 297.541   1
  28  -4   0  756.81 289.383   1
  28   0  -4  185.10 295.006   1
 -28   4  -2   12.28 252.673   1
 -28  -4   2 -240.44 288.281   1
  28  -2  -4  -62.22 386.065   1
 -28   4   2  -11.41 364.568   1
  28  -4   2  589.57 259.949   1
 -28   2   4 -417.37 412.523   1
  28   2  -4   32.46 286.738   1
  28  -5  -1  150.81 341.197   1
 -28  -5   1 -122.81 265.792   1
  28  -1  -5   77.20 398.192   1
 -28  -1   5  166.57 379.892   1
 -28   5   1 -192.04 358.946   1
  28  -5   1 -240.11 235.586   1
  28   5  -1  217.73 285.745   1
  28   1  -5  368.87 333.370   1
 -28   5  -3  676.00 289.604   1
 -28  -5   3  361.15 323.338   1
 -28  -3   5  236.03 339.764   1
  28   5  -3  828.68 347.701   1
 -28  -5   5  20020. 4416.27   1
 -28   5   5  16481. 3662.22   1
  28   5  -5  18565. 4098.77   1
 -28   6   0  -45.67 357.623   1
  28  -6   0  148.27 271.635   1
 -28   0   6  307.46 463.675   1
  28   0  -6  439.64 445.154   1
 -28   6  -2  577.44 261.603   1
 -28  -6   2   55.45 263.807   1
  28  -6   2  133.50 224.562   1
  28   6  -2  173.85 283.982   1
  28   2  -6   93.93 349.024   1
 -28  -6   4  266.78 318.487   1
 -28  -4   6  591.33 375.261   1
 -28   6   4 1110.13 492.117   1
  28  -6   4  772.57 284.864   1
  28   6  -4  224.45 348.693   1
 -28   4   6 -104.13 445.044   1
 -28  -6   6 -483.19 367.104   1
  -6  -6  28  671.92 996.471   1
 -28   6   6   53.19 521.221   1
   6   6 -28 -445.49 703.670   1
 -28   7  -1 1294.23 468.085   1
 -28  -1   7  237.57 473.266   1
  28  -7   1  229.85 267.004   1
 -28   1   7 2969.90 804.100   1
  28   1  -7 1006.61 520.339   1
 -28   7  -3  -58.48 235.145   1
 -28   7   3  -91.48 392.128   1
  28   3  -7  494.76 387.057   1
 -28   7  -5  302.17 226.656   1
  28  -5  -7 -204.72 541.946   1
 -28  -5   7  707.75 394.774   1
  -5  -7  28   30.50 873.662   1
 -28   7   5 -436.78 459.927   1
  28  -7   5  -67.16 205.931   1
  28   7  -5 -257.30 342.630   1
   7   5 -28    9.70 754.492   1
 -28   5   7  -29.29 522.434   1
   5   7 -28 -196.67 608.863   1
  28  -7  -7 -177.05 472.494   1
 -28  -7   7  258.19 338.772   1
  -7  -7  28 -110.90 673.905   1
  28   7  -7  422.78 334.031   1
  28  -8   0  17264. 3828.68   1
 -28   0   8  16900. 3762.54   1
 -28   8  -2  610.85 331.606   1
 -28  -2   8 -877.96 513.504   1
 -28   8   2 -330.83 419.799   1
  28  -8   2  730.13 296.659   1
 -28   2   8  101.08 478.337   1
  28   2  -8  507.33 536.434   1
   2   8 -28 -180.91 692.536   1
 -28   8  -4  460.48 272.517   1
 -28  -8   4  235.37 271.304   1
  28  -4  -8   83.30 502.039   1
 -28  -4   8 -178.92 504.574   1
  -4  -8  28   98.71 679.858   1
 -28   8   4  591.11 465.990   1
  28  -8   4  -97.24 216.514   1
   8   4 -28  662.11 725.278   1
   4   8 -28 -602.69 571.601   1
  28  -8  -6 -112.67 1544.48   1
  28  -8  -6 -229.19 457.171   1
 -28   8  -6 -128.54 203.175   1
 -28  -8   6   -1.08 366.773   1
  -8  -6  28 -595.74 686.032   1
  28  -6  -8  352.77 527.835   1
 -28  -6   8  143.64 368.867   1
 -28   8   6 -560.58 402.932   1
  28   8  -6 -670.16 385.624   1
  28   6  -8 -147.28 345.055   1
   6   8 -28   29.93 676.882   1
  -8  -8  28 1043.99 2243.41   1
  -8  -8  28  -41.88 978.171   1
   8   8 -28 1999.78 4310.44   1
   8   8 -28 -201.41 750.523   1
 -28  -1   9  18719. 4161.61   1
 -28   9   1 9943.77 2234.59   1
 -28   1   9 9240.43 2127.66   1
 -28   9  -3  718.55 299.636   1
 -28  -9   3 -163.16 283.430   1
  28  -3  -9  -95.84 531.253   1
 -28  -3   9  162.72 519.457   1
  -3  -9  28  119.28 574.027   1
 -28   9   3  150.48 429.280   1
  28  -9   3  480.98 276.265   1
  28   9  -3   66.42 298.644   1
 -28   9  -5  -86.59 228.420   1
 -28  -9   5   59.61 301.620   1
  -9  -5  28   71.39 649.542   1
  28  -5  -9  226.22 555.616   1
 -28  -5   9  553.85 455.848   1
 -28   9   5  266.78 413.625   1
  28  -9   5  106.13 204.167   1
  28   9  -5  246.94 314.078   1
   9   5 -28   90.86 521.552   1
   5   9 -28 9482.96 6136.03   1
   5   9 -28  180.02 603.461   1
  28  -9  -7 -648.00 616.249   1
 -28  -9   7  325.98 353.544   1
  -9  -7  28 -4988.4 3225.66   1
  -9  -7  28 -131.52 929.114   1
  28  -7  -9 -453.75 603.461   1
 -28  -7   9  768.60 429.390   1
  -7  -9  28 -4097.7 2879.50   1
  -7  -9  28 -127.11 968.470   1
   9   7 -28 6967.25 5473.48   1
   9   7 -28  409.88 762.098   1
  28   7  -9 1418.81 503.913   1
   7   9 -28 3204.72 4605.88   1
   7   9 -28  786.24 724.065   1
 -28  10   0 1440.85 515.378   1
 -28   0  10 1424.32 657.479   1
   0 -10  28  406.13 590.563   1
   0  10 -28  -41.94 422.114   1
  28  -2 -10  768.27 629.037   1
 -28  -2  10 1578.66 622.974   1
  -2 -10  28 3425.20 942.233   1
 -28  10   2  999.12 494.984   1
 -28  10  -4  -81.15 228.200   1
 -28 -10   4  276.49 290.596   1
 -10  -4  28  -81.63 657.589   1
  28  -4 -10  -10.81 576.011   1
  -4 -10  28  111.89 797.265   1
 -28  10   4  100.11 442.729   1
  28 -10   4 -157.87 222.798   1
  28  10  -4  611.07 360.158   1
  10   4 -28  -52.73 545.805   1
 -28   4  10 2417.59 1977.73   1
 -28   4  10   17.03 496.417   1
  28   4 -10   80.99 560.798   1
   4  10 -28 6047.84 5051.26   1
   4  10 -28  -19.94 584.058   1
 -28  10  -6  -67.86 211.884   1
 -28 -10   6  122.48 322.897   1
 -10  -6  28 -278.58 861.536   1
  28  -6 -10  -46.69 528.607   1
 -28  -6  10 -168.78 421.673   1
  -6 -10  28 -185.43 2050.49   1
  -6 -10  28 -382.10 908.388   1
 -28  10   6 -703.56 522.544   1
 -28  10   6  375.15 1839.93   1
  28 -10   6 -143.42 203.616   1
  28  10  -6 -327.20 337.008   1
  10   6 -28  170.98 4125.23   1
  10   6 -28 -280.01 724.616   1
 -28  11  -1  100.54 345.937   1
  28  -1 -11   53.21 602.359   1
  -1  11 -28  -45.78 372.726   1
 -28  -1  11  330.39 494.984   1
 -28  11   1  286.19 373.167   1
   1 -11  28  -95.27 555.947   1
   1  11 -28 -136.04 506.118   1
  28 -11  -3  -49.61 374.931   1
 -28 -11   3  -66.22 276.706   1
 -11  -3  28 -345.39 666.629   1
  28  -3 -11 -268.55 548.340   1
 -28  -3  11  685.48 497.629   1
  -3 -11  28  481.86 1839.93   1
  -3 -11  28 -818.65 721.088   1
  28 -11   3 1110.13 405.027   1
  11   3 -28 -132.40 554.955   1
 -28   3  11 2231.28 2319.48   1
 -28   3  11 -353.10 480.101   1
   3  11 -28 1724.17 4668.72   1
   3  11 -28 -292.80 506.779   1
 -28  11  -5  631.79 296.880   1
  28  -5 -11 -187.19 534.119   1
  -5 -11  28 4446.03 2935.73   1
  -5 -11  28 -601.70 935.398   1
 -28  11   5  465.33 1685.59   1
 -28  11   5   75.82 544.813   1
  28 -11   5  880.72 281.115   1
  28  11  -5    8.41 332.157   1
  11   5 -28 -5084.3 4647.77   1
  11   5 -28 -347.92 757.799   1
 -28   5  11 -249.59 570.499   1
  28   5 -11  761.22 584.279   1
  28 -12   0  921.40 426.854   1
   0  12 -28 4893.61 4781.17   1
   0  12 -28  225.55 524.418   1
  28 -12  -2  -54.70 390.034   1
 -28  12  -2  235.25 300.518   1
 -12  -2  28  146.07 769.925   1
  28  -2 -12  127.88 526.402   1
  -2  12 -28  153.90 445.375   1
 -28  -2  12 -480.10 429.169   1
  -2 -12  28 -203.84 1907.17   1
  -2 -12  28  246.17 828.133   1
  12   2 -28   54.10 632.344   1
 -28   2  12 -157.87 494.212   1
   2 -12  28  364.35 625.068   1
   2  12 -28 -388.60 4464.77   1
   2  12 -28  283.65 533.017   1
 -29  -1   0 1479.44 482.636   1
 -29   1   0 3217.94 807.297   1
  29  -1   0 2670.04 665.417   1
  29   0   1 2322.78 605.115   1
  29   0  -1 2706.42 670.818   1
  29  -2  -1  281.78 282.328   1
 -29   2  -1  107.18 285.635   1
  29  -1  -2  -86.65 279.903   1
 -29   1  -2   59.38 246.279   1
 -29  -2  -1  118.07 262.815   1
 -29   2   1  492.23 320.031   1
  29  -2   1  301.07 261.713   1
  29   2  -1 -189.28 321.243   1
  29  -1   2 -315.73 258.295   1
 -29   3   0 1594.09 448.351   1
  29  -3   0 1784.81 474.258   1
  29   0  -3 1322.90 453.863   1
  29  -3  -2  -10.56 284.974   1
 -29   3  -2 -214.75 259.839   1
 -29  -3   2  721.09 366.222   1
  29  -2  -3  879.51 371.734   1
 -29   2  -3   55.55 247.271   1
 -29  -2   3  487.49 337.779   1
 -29   3   2  359.50 329.842   1
  29   3  -2 -108.15 281.336   1
  29   2  -3 -338.66 295.116   1
  29  -4  -1   74.64 267.445   1
 -29   4  -1 -141.00 265.130   1
 -29  -4   1  677.43 336.897   1
  29  -1  -4  125.12 314.849   1
 -29  -1   4  718.55 353.213   1
 -29   4   1   -3.47 279.352   1
  29   4  -1   55.40 284.864   1
  29  -4  -3  877.41 434.571   1
 -29  -4   3  374.38 360.379   1
  29  -3  -4 1255.65 512.622   1
 -29  -3   4  587.26 350.788   1
 -29   4   3 1408.88 511.630   1
  29  -4   3  478.01 254.216   1
  29   4  -3 -339.10 317.936   1
 -29   3   4 1451.88 558.923   1
  29   3  -4  698.71 370.742   1
 -29   5   0   33.45 295.226   1
  29  -5   0 -222.58 288.281   1
 -29   0   5  618.56 478.778   1
  29   0  -5  627.16 435.674   1
  29  -5  -2  295.12 384.411   1
 -29   5  -2  263.81 273.398   1
  29  -2  -5  429.28 461.139   1
 -29  -2   5   -9.69 323.999   1
 -29   5   2  107.06 378.238   1
  29  -5   2  357.29 259.288   1
  29   5  -2   10.04 279.682   1
  29   2  -5  319.04 369.529   1
 -29   5  -4  364.79 243.854   1
 -29  -4   5  373.61 329.401   1
 -29   5   4 -542.28 400.948   1
  29  -5   4   52.11 219.270   1
  29   5  -4  128.65 313.306   1
 -29   4   5 -246.17 404.145   1
  29   4  -5  280.78 332.488   1
  29  -6  -1  514.39 397.310   1
 -29   6  -1  432.37 280.344   1
 -29  -6   1 -115.86 273.729   1
  29  -1  -6 1266.67 553.522   1
 -29  -1   6  133.50 418.256   1
 -29   6   1   89.56 374.049   1
 -29  -6   3    8.54 287.399   1
 -29  -3   6  -77.38 369.198   1
 -29   6   3  295.01 387.719   1
  29  -6   3   93.83 224.892   1
 -29   3   6   47.95 426.524   1
  29   3  -6  279.24 354.426   1
  29  -6  -5  438.43 451.218   1
 -29   6  -5  515.82 262.374   1
 -29  -6   5  671.59 369.639   1
  29  -5  -6  435.67 487.377   1
 -29   6   5  168.12 429.390   1
 -29   5   6 -142.76 425.642   1
 -29   7   0 -451.99 381.325   1
  29  -7   0 -195.02 376.584   1
 -29   7  -2  599.05 317.715   1
 -29  -7   2  233.82 298.203   1
  29  -2  -7  128.10 468.085   1
 -29  -2   7 -179.69 402.381   1
 -29   7   2 -274.28 378.899   1
  29  -7   2 -321.90 232.499   1
  29   7  -2 -502.48 330.503   1
 -29   2   7   41.87 476.463   1
  29  -7  -4  477.12 436.335   1
 -29   7  -4  667.18 287.620   1
 -29  -7   4  601.48 356.631   1
  29  -4  -7 -393.89 490.794   1
 -29  -4   7  516.26 416.822   1
 -29   7   4  614.93 417.925   1
  29  -7   4 1324.00 381.876   1
 -29   4   7 -162.94 446.367   1
  29   4  -7  892.95 442.729   1
   4   7 -29 -650.97 660.235   1
 -29  -7   6  291.92 374.710   1
  -7  -6  29 -1026.5 938.264   1
  -6  -7  29 -917.10 903.428   1
 -29   7   6  -38.53 435.453   1
  29   7  -6 -371.73 419.799   1
   7   6 -29  136.92 666.299   1
 -29   6   7 -632.45 470.620   1
  29   6  -7  269.10 360.489   1
   6   7 -29 -361.70 633.006   1
 -29   8  -1  792.97 387.608   1
  29  -1  -8  886.45 547.348   1
 -29   8   1   -5.66 359.387   1
 -29   1   8  329.84 436.004   1
  29   1  -8 1721.97 651.636   1
  29  -8  -3 -130.42 385.183   1
 -29   8  -3 -309.67 323.779   1
 -29  -8   3  -28.21 283.320   1
  29  -3  -8   91.86 487.708   1
 -29  -3   8 -357.29 452.100   1
 -29   8   3  403.26 385.845   1
  29  -8   3  359.06 246.169   1
   3   8 -29 -319.81 565.758   1
 -29   8  -5  200.20 246.830   1
 -29  -8   5 -158.42 354.977   1
  -8  -5  29 -617.68 934.957   1
 -29  -5   8  -70.01 396.758   1
  -5  -8  29  651.42 889.537   1
 -29   8   5 -424.21 438.319   1
  29  -8   5   13.69 229.963   1
  29   8  -5  924.48 398.192   1
   8   5 -29 -508.21 763.642   1
 -29   5   8  317.38 477.676   1
   5   8 -29 -132.95 656.708   1
 -29   9   0 1900.56 541.616   1
 -29   0   9 1278.80 530.481   1
  29   0  -9 1887.33 655.164   1
  29  -9  -2  567.52 396.428   1
 -29  -9   2  381.66 322.235   1
  29  -2  -9  936.94 550.876   1
 -29  -2   9 1806.86 652.408   1
  -2  -9  29   75.09 746.223   1
 -29   9   2  627.16 418.476   1
  29  -9   2 2105.61 565.979   1
 -29   2   9 1115.64 508.653   1
  29   2  -9 1329.51 652.518   1
   2   9 -29 -122.15 499.834   1
  29  -9  -4  305.04 359.387   1
 -29   9  -4  174.73 249.035   1
 -29  -4   9   96.75 461.691   1
  -4  -9  29 -439.97 927.129   1
 -29   9   4  284.42 384.742   1
  29  -9   4  -78.67 266.012   1
  29   9  -4 -106.32 334.803   1
   9   4 -29  254.66 786.682   1
 -30   0   0 2171.75 583.066   1
  30   0   0 1575.35 479.219   1
  30   1   1 -409.00 291.368   1
  30  -1  -1  103.81 347.811   1
 -30   1  -1 -281.34 276.706   1
 -30  -1   1 -310.77 328.740   1
 -30  -1  -1   59.39 263.477   1
 -30   1   1  326.53 292.360   1
  30   1  -1 -491.79 305.589   1
 -30   2   0  854.15 336.126   1
  30  -2   0  633.67 351.780   1
  30   2   0 -252.56 303.164   1
 -30   0  -2  590.01 287.950   1
 -30   0   2  959.43 366.883   1
  30   0  -2 1190.61 389.483   1
 -30   2   2  458.93 311.983   1
  30  -2   2  128.98 245.728   1
  30   2  -2   92.99 304.156   1
  30  -3  -1  450.23 302.171   1
 -30  -3   1  336.90 297.982   1
  30  -1  -3  731.89 361.371   1
 -30   3   1  281.34 295.226   1
  30  -3   1  136.37 244.405   1
  30   3  -1  175.06 302.502   1
 -30   1   3  292.36 334.913   1
  30   1  -3  186.20 314.298   1
 -30   3  -3  246.39 247.822   1
 -30  -3   3  756.37 404.916   1
 -30   3   3  -71.43 338.661   1
  30  -3   3  162.72 241.649   1
  30   3  -3  -87.85 339.764   1
 -30  -4   0   74.38 280.564   1
  30  -4   0  446.59 266.784   1
  30   0  -4  926.36 380.994   1
  30  -4  -2  277.92 341.748   1
 -30   4  -2  448.02 297.652   1
 -30  -4   2  401.28 324.109   1
 -30   4   2 1058.87 456.289   1
  30  -4   2  880.83 313.747   1
 -30   2   4  467.20 376.805   1
  30   2  -4  712.71 348.804   1
  30  -4  -4  825.82 465.549   1
 -30   4  -4  356.41 271.194   1
 -30  -4   4  539.85 367.214   1
  30  -5  -1  598.17 314.959   1
 -30   5  -1  980.71 377.577   1
 -30  -5   1  220.26 310.660   1
 -30  -1   5 1178.48 444.713   1
 -30   5   1  546.47 422.004   1
  30  -5   1  519.57 284.533   1
  30   5  -1   66.08 306.030   1
  30   1  -5 1351.56 463.565   1
  30  -5  -3 -505.35 380.333   1
 -30   5  -3  602.47 299.636   1
 -30  -5   3  773.23 398.081   1
  30   5  -3 -280.34 326.866   1
  30   3  -5  341.20 327.196   1
  30  -6   0  397.75 295.777   1
 -30   0   6  297.10 433.800   1
  30   0  -6  190.06 430.713   1
  30  -6  -2   -3.44 353.654   1
 -30   6  -2  556.39 303.715   1
 -30  -2   6 -240.88 402.381   1
  30  -6   2  121.38 265.792   1
  30   6  -2  173.41 325.212   1
  30   2  -6  230.07 382.648   1
   0   0   0      0.    0.00   0
;
_shelx_hkl_checksum              4726
loop_
_space_group_symop_operation_xyz
'x, y, z'
'z, x, y'
'y, z, x'
'x, -y, -z'
'z, -x, -y'
'y, -z, -x'
'-x, y, -z'
'-z, x, -y'
'-y, z, -x'
'-x, -y, z'
'-z, -x, y'
'-y, -z, x'
'-x, -z, -y'
'-y, -x, -z'
'-z, -y, -x'
'-x, z, y'
'-y, x, z'
'-z, y, x'
'x, -z, y'
'y, -x, z'
'z, -y, x'
'x, z, -y'
'y, x, -z'
'z, y, -x'
'x+1/2, y+1/2, z+1/2'
'z+1/2, x+1/2, y+1/2'
'y+1/2, z+1/2, x+1/2'
'x+1/2, -y+1/2, -z+1/2'
'z+1/2, -x+1/2, -y+1/2'
'y+1/2, -z+1/2, -x+1/2'
'-x+1/2, y+1/2, -z+1/2'
'-z+1/2, x+1/2, -y+1/2'
'-y+1/2, z+1/2, -x+1/2'
'-x+1/2, -y+1/2, z+1/2'
'-z+1/2, -x+1/2, y+1/2'
'-y+1/2, -z+1/2, x+1/2'
'-x+1/2, -z+1/2, -y+1/2'
'-y+1/2, -x+1/2, -z+1/2'
'-z+1/2, -y+1/2, -x+1/2'
'-x+1/2, z+1/2, y+1/2'
'-y+1/2, x+1/2, z+1/2'
'-z+1/2, y+1/2, x+1/2'
'x+1/2, -z+1/2, y+1/2'
'y+1/2, -x+1/2, z+1/2'
'z+1/2, -y+1/2, x+1/2'
'x+1/2, z+1/2, -y+1/2'
'y+1/2, x+1/2, -z+1/2'
'z+1/2, y+1/2, -x+1/2'
'-x, -y, -z'
'-z, -x, -y'
'-y, -z, -x'
'-x, y, z'
'-z, x, y'
'-y, z, x'
'x, -y, z'
'z, -x, y'
'y, -z, x'
'x, y, -z'
'z, x, -y'
'y, z, -x'
'x, z, y'
'y, x, z'
'z, y, x'
'x, -z, -y'
'y, -x, -z'
'z, -y, -x'
'-x, z, -y'
'-y, x, -z'
'-z, y, -x'
'-x, -z, y'
'-y, -x, z'
'-z, -y, x'
'-x+1/2, -y+1/2, -z+1/2'
'-z+1/2, -x+1/2, -y+1/2'
'-y+1/2, -z+1/2, -x+1/2'
'-x+1/2, y+1/2, z+1/2'
'-z+1/2, x+1/2, y+1/2'
'-y+1/2, z+1/2, x+1/2'
'x+1/2, -y+1/2, z+1/2'
'z+1/2, -x+1/2, y+1/2'
'y+1/2, -z+1/2, x+1/2'
'x+1/2, y+1/2, -z+1/2'
'z+1/2, x+1/2, -y+1/2'
'y+1/2, z+1/2, -x+1/2'
'x+1/2, z+1/2, y+1/2'
'y+1/2, x+1/2, z+1/2'
'z+1/2, y+1/2, x+1/2'
'x+1/2, -z+1/2, -y+1/2'
'y+1/2, -x+1/2, -z+1/2'
'z+1/2, -y+1/2, -x+1/2'
'-x+1/2, z+1/2, -y+1/2'
'-y+1/2, x+1/2, -z+1/2'
'-z+1/2, y+1/2, -x+1/2'
'-x+1/2, -z+1/2, y+1/2'
'-y+1/2, -x+1/2, z+1/2'
'-z+1/2, -y+1/2, x+1/2'
loop_
_atom_site_label
_atom_site_type_symbol
_atom_site_fract_x
_atom_site_fract_y
_atom_site_fract_z
_atom_site_U_iso_or_equiv
_atom_site_adp_type
_atom_site_occupancy
_atom_site_site_symmetry_order
_atom_site_calc_flag
_atom_site_refinement_flags_posn
_atom_site_refinement_flags_occupancy
Si1 Si 0.0342(3) 0.1401(6) 0.3107(6) 0.226(14) Uiso 1 1 d D .
Si2 Si 0.0348(3) 0.0836(5) 0.4240(6) 0.226(14) Uiso 1 1 d D .
Si3 Si 0.0347(4) 0.1366(6) 0.4651(5) 0.226(14) Uiso 1 1 d D .
Si4 Si 0.0356(5) 0.1387(7) 0.2418(7) 0.226(14) Uiso 1 1 d D .
Si5 Si 0.0351(4) 0.3059(5) 0.4231(6) 0.226(14) Uiso 1 1 d D .
Si6 Si 0.1456(6) 0.1935(5) 0.3159(6) 0.226(14) Uiso 1 1 d D .
Si7 Si 0.0781(6) 0.1937(5) 0.2440(6) 0.226(14) Uiso 1 1 d D .
Si8 Si 0.0749(6) 0.1950(6) 0.3137(6) 0.226(14) Uiso 1 1 d D .
Si9 Si 0.0339(3) 0.0816(5) 0.3532(6) 0.226(14) Uiso 1 1 d D .
Si10 Si 0.0741(6) 0.2497(6) 0.3549(6) 0.226(14) Uiso 1 1 d D .
Si11 Si 0.0355(5) 0.3070(5) 0.3572(6) 0.226(14) Uiso 1 1 d D .
Si12 Si 0.1469(6) 0.1959(5) 0.2462(6) 0.226(14) Uiso 1 1 d D .
Si13 Si 0.0348(5) 0.0820(6) 0.2021(6) 0.226(14) Uiso 1 1 d D .
Si14 Si 0.1449(5) 0.2500 0.3551(5) 0.226(14) Uiso 1 2 d DS P
Si15 Si 0.0747(5) 0.2500 0.4253(5) 0.226(14) Uiso 1 2 d DS P
Si16 Si 0.0340(4) 0.0815(5) 0.1317(6) 0.226(14) Uiso 1 1 d D .
O1 O 0.0571(8) 0.1649(7) 0.3228(9) 0.213(13) Uiso 1 1 d D .
O2 O 0.0426(11) 0.1309(10) 0.2766(6) 0.213(13) Uiso 1 1 d D .
O3 O 0.0000 0.1532(11) 0.3113(15) 0.213(13) Uiso 1 2 d DS P
O4 O 0.0346(11) 0.1111(7) 0.3324(8) 0.213(13) Uiso 1 1 d D .
O5 O 0.0000 0.0779(13) 0.4323(14) 0.213(13) Uiso 1 2 d DS P
O6 O 0.0482(9) 0.1102(8) 0.4443(8) 0.213(13) Uiso 1 1 d D .
O7 O 0.0530(9) 0.0530(9) 0.4321(13) 0.213(13) Uiso 1 2 d DS P
O8 O 0.0386(12) 0.0902(11) 0.3883(6) 0.213(13) Uiso 1 1 d D .
O9 O 0.0000 0.1429(14) 0.4555(14) 0.213(13) Uiso 1 2 d DS P
O10 O 0.0356(16) 0.1274(14) 0.5000 0.213(13) Uiso 1 2 d DS P
O11 O 0.0540(8) 0.1666(7) 0.4602(12) 0.213(13) Uiso 1 1 d D .
O12 O 0.0000 0.1432(15) 0.2362(15) 0.213(13) Uiso 1 2 d DS P
O13 O 0.0477(10) 0.1103(7) 0.2216(8) 0.213(13) Uiso 1 1 d D .
O14 O 0.0545(8) 0.1685(8) 0.2330(9) 0.213(13) Uiso 1 1 d D .
O15 O 0.0474(10) 0.3156(9) 0.3905(5) 0.213(13) Uiso 1 1 d D .
O16 O 0.0000 0.2975(13) 0.4207(15) 0.213(13) Uiso 1 2 d DS P
O17 O 0.0548(7) 0.2785(4) 0.4357(8) 0.213(13) Uiso 1 1 d D .
O18 O 0.1100(5) 0.1893(10) 0.3209(10) 0.213(13) Uiso 1 1 d D .
O19 O 0.1523(11) 0.2026(11) 0.2813(5) 0.213(13) Uiso 1 1 d D .
O20 O 0.1626(8) 0.1626(8) 0.3244(14) 0.213(13) Uiso 1 2 d DS P
O21 O 0.1568(9) 0.2206(4) 0.3374(7) 0.213(13) Uiso 1 1 d D .
O22 O 0.0747(14) 0.2233(9) 0.2233(9) 0.213(13) Uiso 1 2 d DS P
O23 O 0.0705(10) 0.2030(10) 0.2785(5) 0.213(13) Uiso 1 1 d D .
O24 O 0.1129(6) 0.1825(10) 0.2421(11) 0.213(13) Uiso 1 1 d D .
O25 O 0.0624(9) 0.2219(7) 0.3347(8) 0.213(13) Uiso 1 1 d D .
O26 O 0.0573(9) 0.0573(9) 0.3410(13) 0.213(13) Uiso 1 2 d DS P
O27 O 0.0000 0.0678(11) 0.3501(15) 0.213(13) Uiso 1 2 d DS P
O28 O 0.0689(7) 0.2429(9) 0.3902(5) 0.213(13) Uiso 1 1 d D .
O29 O 0.0554(8) 0.2793(7) 0.3451(9) 0.213(13) Uiso 1 1 d D .
O30 O 0.1094(5) 0.2550(9) 0.3491(7) 0.213(13) Uiso 1 1 d D .
O31 O 0.0410(16) 0.3359(9) 0.3359(9) 0.213(13) Uiso 1 2 d DS P
O32 O 0.0000 0.2992(15) 0.3581(15) 0.213(13) Uiso 1 2 d DS P
O33 O 0.1508(15) 0.2265(9) 0.2265(9) 0.213(13) Uiso 1 2 d DS P
O34 O 0.1709(10) 0.1709(10) 0.2346(13) 0.213(13) Uiso 1 2 d DS P
O35 O 0.0514(9) 0.0514(9) 0.2120(13) 0.213(13) Uiso 1 2 d DS P
O36 O 0.0394(12) 0.0886(11) 0.1668(5) 0.213(13) Uiso 1 1 d D .
O37 O 0.0000 0.0774(14) 0.2104(15) 0.213(13) Uiso 1 2 d DS P
O38 O 0.0349(17) 0.1125(9) 0.1125(9) 0.213(13) Uiso 1 2 d DS P
O39 O 0.0583(9) 0.0583(9) 0.1186(12) 0.213(13) Uiso 1 2 d DS P
O40 O 0.0000 0.0680(13) 0.1284(16) 0.213(13) Uiso 1 2 d DS P
loop_
_atom_type_symbol
_atom_type_description
_atom_type_scat_dispersion_real
_atom_type_scat_dispersion_imag
_atom_type_scat_source
Si Si 0.0000 0.0000 'International Tables Vol C Tables 4.3.2.2 and 4.3.2.3'
O O 0.0000 0.0000 'International Tables Vol C Tables 4.3.2.2 and 4.3.2.3'
loop_
_geom_angle_atom_site_label_1
_geom_angle_atom_site_label_2
_geom_angle_atom_site_label_3
_geom_angle
_geom_angle_site_symmetry_1
_geom_angle_site_symmetry_3
O1 Si1 O4 110(2) . .
O1 Si1 O2 110(2) . .
O4 Si1 O2 111(2) . .
O1 Si1 O3 110(2) . .
O4 Si1 O3 107(2) . .
O2 Si1 O3 109(2) . .
O6 Si2 O5 110(2) . .
O6 Si2 O8 112(2) . .
O5 Si2 O8 111(2) . .
O6 Si2 O7 108(2) . .
O5 Si2 O7 107(2) . .
O8 Si2 O7 108(2) . .
O11 Si3 O10 109(2) . .
O11 Si3 O6 109(2) . .
O10 Si3 O6 111(2) . .
O11 Si3 O9 109(2) . .
O10 Si3 O9 109(2) . .
O6 Si3 O9 109(2) . .
O12 Si4 O2 111(2) . .
O12 Si4 O14 112(2) . .
O2 Si4 O14 108(2) . .
O12 Si4 O13 109(2) . .
O2 Si4 O13 107(2) . .
O14 Si4 O13 109(2) . .
O17 Si5 O16 112(2) . .
O17 Si5 O11 107(2) . 39
O16 Si5 O11 110(2) . 39
O17 Si5 O15 109(2) . .
O16 Si5 O15 109(2) . .
O11 Si5 O15 109(2) 39 .
O18 Si6 O20 109(2) . .
O18 Si6 O19 110(2) . .
O20 Si6 O19 110(2) . .
O18 Si6 O21 108(2) . .
O20 Si6 O21 111(2) . .
O19 Si6 O21 108.6(19) . .
O14 Si7 O22 109(2) . .
O14 Si7 O24 113(2) . .
O22 Si7 O24 108(2) . .
O14 Si7 O23 109(2) . .
O22 Si7 O23 108(2) . .
O24 Si7 O23 109(2) . .
O1 Si8 O18 107(2) . .
O1 Si8 O23 112(2) . .
O18 Si8 O23 110(2) . .
O1 Si8 O25 108(2) . .
O18 Si8 O25 110(2) . .
O23 Si8 O25 111(2) . .
O26 Si9 O4 110(2) . .
O26 Si9 O8 114(2) . .
O4 Si9 O8 111(2) . .
O26 Si9 O27 109(2) . .
O4 Si9 O27 106(2) . .
O8 Si9 O27 107(2) . .
O30 Si10 O28 108.8(19) . .
O30 Si10 O25 110(2) . .
O28 Si10 O25 111(2) . .
O30 Si10 O29 110(2) . .
O28 Si10 O29 110(2) . .
O25 Si10 O29 108(2) . .
O29 Si11 O31 109(2) . .
O29 Si11 O15 108(2) . .
O31 Si11 O15 108(2) . .
O29 Si11 O32 112(2) . .
O31 Si11 O32 109(2) . .
O15 Si11 O32 110(2) . .
O19 Si12 O34 110(2) . .
O19 Si12 O33 111(2) . .
O34 Si12 O33 109(2) . .
O19 Si12 O24 108(2) . .
O34 Si12 O24 109(2) . .
O33 Si12 O24 110(2) . .
O37 Si13 O36 112(2) . .
O37 Si13 O35 106(2) . .
O36 Si13 O35 111(2) . .
O37 Si13 O13 108(2) . .
O36 Si13 O13 109(2) . .
O35 Si13 O13 110(2) . .
O30 Si14 O30 110(2) . 39
O30 Si14 O21 110.6(13) . .
O30 Si14 O21 108.1(13) 39 .
O30 Si14 O21 108.1(13) . 39
O30 Si14 O21 110.6(13) 39 39
O21 Si14 O21 109(2) . 39
O17 Si15 O17 108(2) 39 .
O17 Si15 O28 109.4(13) 39 .
O17 Si15 O28 110.1(13) . .
O17 Si15 O28 110.1(13) 39 39
O17 Si15 O28 109.4(13) . 39
O28 Si15 O28 110(2) . 39
O39 Si16 O36 112(2) . .
O39 Si16 O38 110(2) . .
O36 Si16 O38 110(2) . .
O39 Si16 O40 111(2) . .
O36 Si16 O40 107(2) . .
O38 Si16 O40 107(2) . .
Si1 O1 Si8 144(3) . .
Si1 O2 Si4 143(3) . .
Si1 O3 Si1 138(3) 52 .
Si1 O4 Si9 178(4) . .
Si2 O5 Si2 148(4) 52 .
Si2 O6 Si3 136(3) . .
Si2 O7 Si2 142(4) . 62
Si9 O8 Si2 152(3) . .
Si3 O9 Si3 143(4) . 52
Si3 O10 Si3 150(4) . 58_556
Si3 O11 Si5 163(3) . 39
Si4 O12 Si4 157(4) 52 .
Si13 O13 Si4 140(3) . .
Si7 O14 Si4 146(3) . .
Si5 O15 Si11 131(3) . .
Si5 O16 Si5 152(4) 52 .
Si5 O17 Si15 143(2) . .
Si6 O18 Si8 155(3) . .
Si12 O19 Si6 148(3) . .
Si6 O20 Si6 138(4) . 62
Si14 O21 Si6 142(3) . .
Si7 O22 Si7 157(4) 61 .
Si8 O23 Si7 146(3) . .
Si7 O24 Si12 140(3) . .
Si10 O25 Si8 141(3) . .
Si9 O26 Si9 140(4) 62 .
Si9 O27 Si9 135(3) . 52
Si10 O28 Si15 152(2) . .
Si11 O29 Si10 144(3) . .
Si10 O30 Si14 155(2) . .
Si11 O31 Si11 156(5) . 61
Si11 O32 Si11 155(5) 52 .
Si12 O33 Si12 153(4) 61 .
Si12 O34 Si12 143(4) . 62
Si13 O35 Si13 134(4) 62 .
Si13 O36 Si16 153(4) . .
Si13 O37 Si13 149(4) . 52
Si16 O38 Si16 153(4) 61 .
Si16 O39 Si16 138(3) . 62
Si16 O40 Si16 135(3) . 52
loop_
_geom_bond_atom_site_label_1
_geom_bond_atom_site_label_2
_geom_bond_distance
_geom_bond_site_symmetry_2
Si1 O1 1.619(18) .
Si1 O4 1.629(18) .
Si1 O2 1.635(19) .
Si1 O3 1.652(17) .
Si2 O6 1.624(18) .
Si2 O5 1.634(16) .
Si2 O8 1.643(18) .
Si2 O7 1.646(18) .
Si3 O11 1.620(18) .
Si3 O10 1.627(18) .
Si3 O6 1.631(19) .
Si3 O9 1.647(17) .
Si4 O12 1.637(18) .
Si4 O2 1.640(19) .
Si4 O14 1.640(19) .
Si4 O13 1.662(19) .
Si5 O17 1.623(18) .
Si5 O16 1.629(18) .
Si5 O11 1.630(18) 39
Si5 O15 1.633(19) .
Si6 O18 1.633(19) .
Si6 O20 1.634(18) .
Si6 O19 1.640(18) .
Si6 O21 1.640(19) .
Si7 O14 1.634(18) .
Si7 O22 1.638(18) .
Si7 O24 1.646(19) .
Si7 O23 1.649(19) .
Si8 O1 1.629(19) .
Si8 O18 1.633(18) .
Si8 O23 1.637(18) .
Si8 O25 1.638(19) .
Si9 O26 1.618(17) .
Si9 O4 1.629(18) .
Si9 O8 1.641(18) .
Si9 O27 1.655(17) .
Si10 O30 1.632(18) .
Si10 O28 1.635(18) .
Si10 O25 1.636(19) .
Si10 O29 1.637(19) .
Si11 O29 1.633(18) .
Si11 O31 1.636(18) .
Si11 O15 1.638(19) .
Si11 O32 1.640(18) .
Si12 O19 1.630(19) .
Si12 O34 1.648(18) .
Si12 O33 1.649(18) .
Si12 O24 1.656(19) .
Si13 O37 1.625(18) .
Si13 O36 1.630(18) .
Si13 O35 1.632(18) .
Si13 O13 1.656(19) .
Si14 O30 1.636(13) .
Si14 O30 1.636(13) 39
Si14 O21 1.637(13) .
Si14 O21 1.637(13) 39
Si15 O17 1.633(13) 39
Si15 O17 1.633(13) .
Si15 O28 1.636(12) .
Si15 O28 1.636(12) 39
Si16 O39 1.625(17) .
Si16 O36 1.636(19) .
Si16 O38 1.641(18) .
Si16 O40 1.656(18) .
O3 Si1 1.652(17) 52
O5 Si2 1.634(16) 52
O7 Si2 1.646(18) 62
O9 Si3 1.647(17) 52
O10 Si3 1.627(18) 58_556
O11 Si5 1.630(18) 39
O12 Si4 1.636(18) 52
O16 Si5 1.628(18) 52
O20 Si6 1.634(18) 62
O22 Si7 1.638(18) 61
O26 Si9 1.618(17) 62
O27 Si9 1.655(17) 52
O31 Si11 1.636(18) 61
O32 Si11 1.640(18) 52
O33 Si12 1.649(18) 61
O34 Si12 1.649(18) 62
O35 Si13 1.632(18) 62
O37 Si13 1.625(18) 52
O38 Si16 1.641(18) 61
O39 Si16 1.625(17) 62
O40 Si16 1.656(18) 52
