#------------------------------------------------------------------------------
#$Date: 2020-12-21 19:45:39 +0200 (Mon, 21 Dec 2020) $
#$Revision: 260054 $
#$URL: file:///home/coder/svn-repositories/cod/cif/1/55/98/1559837.cif $
#------------------------------------------------------------------------------
#
# This file is available in the Crystallography Open Database (COD),
# http://www.crystallography.net/
#
# All data on this site have been placed in the public domain by the
# contributors.
#
data_1559837
loop_
_publ_author_name
'Chen, Pengyun'
'Li, R.K.'
_publ_section_title
;
 Two high terbium content apatites: Tb5Si2BO13 and Tb4.66Si3O13
;
_journal_name_full               'Journal of Alloys and Compounds'
_journal_page_first              859
_journal_page_last               864
_journal_paper_doi               10.1016/j.jallcom.2014.10.159
_journal_volume                  622
_journal_year                    2015
_chemical_formula_sum            'B O13 Si2 Tb5'
_chemical_formula_weight         1069.59
_space_group_crystal_system      hexagonal
_space_group_IT_number           176
_space_group_name_Hall           '-P 6c'
_space_group_name_H-M_alt        'P 63/m'
_atom_sites_solution_hydrogens   .
_audit_creation_method           SHELXL-2013
_cell_angle_alpha                90
_cell_angle_beta                 90
_cell_angle_gamma                120
_cell_formula_units_Z            2
_cell_length_a                   9.2569(10)
_cell_length_b                   9.2569(10)
_cell_length_c                   6.8297(12)
_cell_measurement_temperature    298(2)
_cell_measurement_theta_max      27.4
_cell_measurement_theta_min      2.5
_cell_volume                     506.83(12)
_computing_structure_refinement  'SHELXL-2013 (Sheldrick, 2013)'
_diffrn_ambient_temperature      298.15
_diffrn_measured_fraction_theta_full 1.000
_diffrn_measured_fraction_theta_max 1.000
_diffrn_radiation_type           MoK\a
_diffrn_radiation_wavelength     0.71073
_diffrn_reflns_av_R_equivalents  0.1118
_diffrn_reflns_av_unetI/netI     0.0456
_diffrn_reflns_Laue_measured_fraction_full 1.000
_diffrn_reflns_Laue_measured_fraction_max 1.000
_diffrn_reflns_limit_h_max       12
_diffrn_reflns_limit_h_min       -12
_diffrn_reflns_limit_k_max       12
_diffrn_reflns_limit_k_min       -12
_diffrn_reflns_limit_l_max       8
_diffrn_reflns_limit_l_min       -8
_diffrn_reflns_number            5221
_diffrn_reflns_point_group_measured_fraction_full 1.000
_diffrn_reflns_point_group_measured_fraction_max 1.000
_diffrn_reflns_theta_full        25.242
_diffrn_reflns_theta_max         27.430
_diffrn_reflns_theta_min         2.541
_diffrn_source                   'Sealed Tube'
_exptl_absorpt_coefficient_mu    34.745
_exptl_absorpt_correction_T_max  0.598
_exptl_absorpt_correction_T_min  1.000
_exptl_absorpt_correction_type   empirical
_exptl_crystal_colour            Colorless
_exptl_crystal_density_diffrn    7.009
_exptl_crystal_description       Prism
_exptl_crystal_F_000             924
_exptl_crystal_size_max          0.2
_exptl_crystal_size_mid          0.1
_exptl_crystal_size_min          0.04
_refine_diff_density_max         2.565
_refine_diff_density_min         -2.002
_refine_diff_density_rms         0.388
_refine_ls_extinction_coef       0.0060(6)
_refine_ls_extinction_expression Fc^*^=kFc[1+0.001xFc^2^\l^3^/sin(2\q)]^-1/4^
_refine_ls_extinction_method     SHELXL
_refine_ls_goodness_of_fit_ref   1.281
_refine_ls_hydrogen_treatment    undef
_refine_ls_matrix_type           full
_refine_ls_number_parameters     40
_refine_ls_number_reflns         418
_refine_ls_number_restraints     0
_refine_ls_restrained_S_all      1.281
_refine_ls_R_factor_all          0.0424
_refine_ls_R_factor_gt           0.0396
_refine_ls_shift/su_max          0.000
_refine_ls_shift/su_mean         0.000
_refine_ls_structure_factor_coef Fsqd
_refine_ls_weighting_details
'w=1/[\s^2^(Fo^2^)+(0.0199P)^2^+8.7006P] where P=(Fo^2^+2Fc^2^)/3'
_refine_ls_weighting_scheme      calc
_refine_ls_wR_factor_gt          0.0809
_refine_ls_wR_factor_ref         0.0821
_reflns_Friedel_coverage         0.000
_reflns_Friedel_fraction_full    .
_reflns_Friedel_fraction_max     .
_reflns_number_gt                396
_reflns_number_total             418
_reflns_threshold_expression     'I > 2\s(I)'
_cod_data_source_file            tsbon1.cif
_cod_data_source_block           tsbon
_cod_original_cell_volume        506.83(14)
_cod_database_code               1559837
_shelx_space_group_comment
;
The symmetry employed for this shelxl refinement is uniquely defined
by the following loop, which should always be used as a source of
symmetry information in preference to the above space-group names.
They are only intended as comments.
;
_shelxl_version_number           2013-4
_shelx_res_file
;
TITL tsbo in P6(3)/m
CELL 0.71073   9.2569   9.2569   6.8297  90.000  90.000 120.000
ZERR    2.00   0.0010   0.0010   0.0012   0.000   0.000   0.000
LATT  1
SYMM -Y, X-Y, Z
SYMM -X+Y, -X, Z
SYMM -X, -Y, 0.5+Z
SYMM Y, -X+Y, 0.5+Z
SYMM X-Y, X, 0.5+Z
SFAC B O SI TB
UNIT 2 26 4 10
TEMP 301.150

L.S. 30
ACTA
BOND
FMAP 2
PLAN 20

EXYZ  SI1 B1
EADP  SI1 B1

WGHT    0.019900    8.700600
EXTI    0.006040
FVAR       0.11426
MOLE   1
TB1   4    0.758477    0.766021    0.250000    10.50000    0.01027    0.01332 =
         0.01091    0.00000    0.00000    0.00316
TB2   4    0.333333    0.666667   -0.000715    10.33333    0.02540    0.02540 =
         0.00781    0.00000    0.00000    0.01270
SI1   3    0.629388    1.029806    0.250000    10.33333    0.00648    0.00619 =
         0.00653    0.00000    0.00000    0.00363
B1    1    0.629388    1.029806    0.250000    10.16667    0.00648    0.00619 =
         0.00653    0.00000    0.00000    0.00363
O1    2    0.513873    0.837597    0.250000    10.50000    0.01692    0.00869 =
         0.01603    0.00000    0.00000    0.00783
O2    2    0.529662    1.128153    0.250000    10.50000    0.01585    0.00273 =
         0.02402    0.00000    0.00000    0.00018
O3    2    1.000000    1.000000    0.250000    10.16667    0.01554    0.01554 =
         0.02595    0.00000    0.00000    0.00777
O4    2    0.909877    0.654999    0.062632    11.00000    0.01419    0.03089 =
         0.00362    0.00029    0.00142    0.01334

MOLE   2
HKLF 4

REM  tsbo in P6(3)/m
REM R1 =  0.0396 for     396 Fo > 4sig(Fo)  and  0.0424 for all     418 data
REM     40 parameters refined using      0 restraints

END

WGHT      0.0192      8.9731

REM Highest difference peak  2.565,  deepest hole -2.002,  1-sigma level  0.388
Q1    1   0.3724  0.6211 -0.0023  11.00000  0.05    2.56
Q2    1   0.7590  0.9931  0.2500  10.50000  0.05    1.91
Q3    1   0.7533  0.8560  0.2500  10.50000  0.05    1.85
Q4    1   0.3333  0.6667 -0.1064  10.33333  0.05    1.24
Q5    1   0.6791  0.6902  0.2500  10.50000  0.05    1.18
Q6    1   0.5623  1.2369  0.1456  11.00000  0.05    1.10
Q7    1   0.8668  0.5353 -0.1200  11.00000  0.05    1.10
Q8    1   0.9182  0.6822  0.1381  11.00000  0.05    1.10
Q9    1   0.5506  0.7613  0.2500  10.50000  0.05    1.06
Q10   1   0.4314  0.7572  0.1456  11.00000  0.05    1.01
Q11   1   0.7791  0.6745  0.1137  11.00000  0.05    0.96
Q12   1   0.7486  0.7598  0.1305  11.00000  0.05    0.92
Q13   1   0.8899  0.5077  0.0064  11.00000  0.05    0.90
Q14   1   0.3005  0.7434 -0.1222  11.00000  0.05    0.88
Q15   1   0.9004  0.6686 -0.0297  11.00000  0.05    0.88
Q16   1   0.9790  0.6198 -0.1186  11.00000  0.05    0.86
Q17   1   1.0054  1.0418  0.0678  11.00000  0.05    0.85
Q18   1   0.6653  0.9136  0.1303  11.00000  0.05    0.84
Q19   1   1.0378  0.7200  0.1243  11.00000  0.05    0.84
Q20   1   0.5768  0.8005  0.1265  11.00000  0.05    0.83
;
_shelx_res_checksum              29882
_shelx_hkl_file
;
   0   0  -1    2.38    1.48
   0   0   1    4.91    2.24
   0   0   2  359.22   20.74
   0   0  -2  337.66   19.03
   0   0   2  383.33   22.53
   0   0   3   -1.12    2.86
   0   0  -3    1.82    3.07
   0   0   3    1.81    3.56
   0   0   4 2140.89  124.57
   0   0  -4 2001.80  110.14
   0   0   4 2082.49  122.19
   0   0   5    0.31    3.57
   0   0  -5    5.75    5.01
   0   0   5    8.89    7.25
   0   0   6  241.37   19.48
   0   0  -6  238.31   18.59
   0   0   6  301.93   25.16
   0   0   7    3.94    4.72
   0   0  -7   -0.13    3.80
   0   0   7   -1.21    4.96
   0   0   8  952.00  177.83
   0   0  -8  846.13  148.39
   0   0   8  995.06  186.46
   0  -1   0    2.66    0.95
   0   1   0    4.37    1.96
  -1   1   0    0.98    1.91
   1  -1   0    2.73    0.77
  -1   1   0    2.29    1.06
   0  -1   0   -2.51    2.80
   1   0   0    6.24    0.96
   1  -1   0    2.36    1.28
   1   0   0    4.49    0.86
   1  -1   1    0.55    1.10
   0   1   1    1.75    2.55
   0   1  -1    3.15    1.45
  -1   1   1    3.10    2.66
   0  -1   1    1.67    1.03
  -1   0   1    6.79    2.38
   1  -1   1    2.03    2.15
  -1   0   1    1.52    0.70
   1   0  -1    3.31    1.36
   0   1  -1    8.59    4.20
  -1   1  -1    6.42    1.97
  -1   1   1    4.33    1.40
  -1   0  -1    5.35    3.14
   1  -1  -1    1.66    1.12
   0  -1  -1    0.32    2.56
   0   1   1    2.12    0.79
   0  -1  -1    1.06    1.08
  -1   0  -1    4.34    2.15
   1  -1   1    9.24    5.72
   1   0   1    2.13    1.73
   0  -1   1    6.20    3.98
  -1   0   1    6.06    3.79
   1   0   2  477.64   27.94
   1  -1   2  505.21   28.38
   0  -1   2  534.56   29.20
  -1   1   2  516.18   29.40
  -1   0   2  538.70   29.81
   0   1  -2  466.78   26.21
   1   0  -2  530.45   28.94
  -1   1  -2  480.40   26.71
  -1   0  -2  515.25   28.56
   1  -1  -2  457.13   24.92
   0  -1  -2  433.61   24.16
   1  -1  -2  452.83   25.78
   0  -1  -2  501.91   27.69
   1  -1   2  442.88   25.84
   0  -1   2  461.39   27.12
   1   0   2  565.65   31.28
  -1   0   2  536.35   30.80
   1   0   3    3.15    2.92
   1  -1   3    9.42    3.40
   0   1   3    6.02    4.21
   0  -1   3    5.13    2.15
  -1   1   3    2.56    3.38
  -1   0   3    3.17    1.76
   0   1  -3    7.93    4.06
   1   0  -3    9.74    3.71
  -1   1  -3    5.75    3.02
  -1   0  -3    7.34    3.64
   1  -1  -3    4.91    2.12
   0  -1  -3    6.45    3.61
   1  -1   3    4.88    3.24
   0  -1   3    9.34    6.29
   1   0   3    4.25    3.20
  -1   0   3    8.77    5.06
   0   1   3    3.68    2.22
  -1   1   3    5.89    2.89
   1   0   4   -0.80    3.61
   1  -1   4    1.55    2.80
   0   1   4    0.32    3.87
   0  -1   4    4.02    3.73
  -1   1   4   -0.59    3.47
  -1   0   4    1.09    3.00
   0   1  -4    1.74    2.21
   1   0  -4    1.21    2.26
  -1   1  -4    1.32    2.91
   1  -1  -4    0.92    2.49
  -1   0  -4   -2.55    3.15
   0  -1  -4    0.13    3.00
   1  -1   4    1.79    3.93
   0  -1   4    5.49    5.19
   1   0   4   -0.47    3.42
  -1   0   4   -2.18    5.39
  -1   1   4   -0.75    4.11
   0   1   4    1.35    3.34
   1   0   5    0.95    5.81
   1  -1   5   -0.62    3.42
   0   1   5    4.34    6.19
   0  -1   5    0.56    3.03
  -1   1   5    0.14    4.35
  -1   0   5    1.81    2.70
   0   1  -5    0.73    3.14
   1   0  -5    6.37    2.87
  -1   1  -5    5.59    4.20
  -1   0  -5   -0.06    3.49
   1  -1  -5    3.08    3.16
   0  -1  -5    4.20    2.97
   1  -1   5    3.46    4.89
   0  -1   5    3.17    5.24
   1   0   5    1.68    4.93
  -1   0   5   -2.94    5.52
  -1   1   5    3.20    4.72
   0   1   5    2.75    4.14
   1   0   6  252.15   20.86
   1  -1   6  255.57   21.23
   0   1   6  233.24   19.60
  -1   1   6  225.53   18.54
   0  -1   6  272.19   20.58
  -1   0   6  273.42   21.09
   0   1  -6  230.52   18.19
   1   0  -6  231.88   17.46
  -1   1  -6  241.55   18.90
  -1   0  -6  259.70   20.15
   1  -1  -6  234.73   17.76
   0  -1  -6  235.05   20.54
   0  -1  -6  253.12   24.80
   1  -1   6  269.82   22.60
   0  -1   6  249.11   22.26
  -1   0   6  283.80   24.53
   1   0   7   -0.84    4.45
   1  -1   7    2.12    3.71
   0   1   7    5.65    4.84
  -1   1   7   -0.03    4.23
   0  -1   7    1.46    2.81
  -1   0   7    0.66    3.93
   0   1  -7    2.11    3.87
  -1   1  -7    7.21    6.64
   1   0  -7   -0.07    3.32
  -1   0  -7    3.61    6.21
   1  -1  -7    2.76    2.67
   0  -1  -7    3.14    4.10
   1  -1  -7    2.79    2.11
   0  -1  -7   -2.75    2.56
   1  -1   7    9.50    7.53
   0  -1   7    7.45    6.15
   1   0   7   -0.89    3.95
  -1   0   7   -3.10    5.32
   1   0   8   -0.68    4.02
   0   1   8    5.41    7.25
   1  -1   8    0.89    3.42
  -1   1   8    0.76    3.93
   0  -1   8    1.03    2.52
  -1   0   8    1.45    3.55
   0   1  -8    6.09    5.27
  -1   1  -8    1.44    4.30
   1   0  -8    1.10    2.86
  -1   0  -8    0.41    1.96
   1  -1  -8   -2.99    3.00
   0  -1  -8   -1.42    3.73
   1  -1  -8    0.13    1.66
   0  -1  -8    1.61    2.19
   1  -1   8    3.58    5.09
   0  -1   8    1.75    5.35
  -1   0   8   -1.28    6.18
   1   1   0  143.23    9.83
  -1   2   0  140.67    9.56
  -2   1   0  113.29    8.63
  -1   2   0  139.77   10.22
  -2   1   0  108.12    6.81
   2  -1   0  116.21    7.83
   1  -2   0  116.64    9.44
  -1  -1   0  128.52    8.88
   1   1   1  240.90   15.42
  -1   2   1  267.06   16.05
  -2   1   1  248.81   14.65
   1  -2   1  224.45   12.14
  -1  -1   1  215.11   12.33
  -1   2  -1  237.13   13.23
  -2   1  -1  221.50   14.74
  -1   2  -1  243.25   14.29
  -2   1  -1  247.70   14.17
  -1  -1  -1  230.31   14.12
   2  -1  -1  234.31   12.74
  -1  -1   1  237.21   14.76
   2  -1  -1  253.53   15.36
   1   1   1  243.22   13.42
   1  -2  -1  235.83   13.80
   2  -1   1  212.53   13.17
  -1  -1  -1  214.14   11.69
   1  -2   1  221.77   14.80
  -1  -1   1  241.30   15.30
   2  -1   2  755.28   42.90
   1   1   2  833.67   47.12
   1  -2   2  910.94   48.80
  -1   2   2  859.10   47.73
  -2   1   2  889.02   48.53
  -1  -1   2  811.29   43.73
   1   1  -2  819.44   44.63
  -1   2  -2  887.65   48.42
   2  -1  -2  872.13   46.39
  -2   1  -2  898.19   48.85
  -1  -1  -2  823.44   45.11
   1  -2  -2  713.30   39.09
  -1  -1  -2  889.77   47.43
   1  -2  -2  743.10   40.70
   2  -1   2  815.55   45.46
   1  -2   2  888.70   51.20
  -1  -1   2  859.95   48.23
   2  -1   3  349.09   22.16
   1   1   3  366.07   24.02
   1  -2   3  379.51   22.02
  -2   1   3  380.62   23.45
  -1  -1   3  381.49   22.23
   1   1  -3  378.83   22.49
  -1   2  -3  372.15   22.53
   2  -1  -3  377.22   21.54
  -2   1  -3  356.77   21.56
  -1  -1  -3  365.90   22.35
   1  -2  -3  313.12   18.83
  -1  -1  -3  407.66   23.51
   1  -2  -3  355.57   21.54
   1  -2   3  342.26   23.07
   2  -1   3  358.78   22.42
  -1  -1   3  365.77   23.93
  -2   1   3  406.71   25.76
   2  -1   4  114.87   11.04
   1   1   4  116.66   11.64
   1  -2   4  129.58    9.88
  -1   2   4  100.19   13.11
  -2   1   4  110.21   10.22
  -1  -1   4  130.20    9.97
   1   1  -4  114.68   11.00
  -1   2  -4  113.29   17.16
   2  -1  -4  110.97   11.15
  -2   1  -4  109.15    9.41
  -1  -1  -4  113.89    9.60
   1  -2  -4  112.35    8.89
   1  -2  -4  134.29   21.90
   1  -2   4  120.10   12.49
   2  -1   4  123.59   10.90
  -1  -1   4  114.76   11.78
  -2   1   4  126.44   11.86
   1   1   4  146.90   11.07
   2  -1   5  112.39   11.01
   1   1   5  105.68   11.69
   1  -2   5  127.84   14.91
  -1   2   5  107.32   11.60
  -2   1   5  112.50   10.46
  -1  -1   5  121.05   11.74
   1   1  -5  109.36    9.64
  -1   2  -5  110.19   10.21
   2  -1  -5  111.44    8.89
  -2   1  -5  119.11   11.67
  -1  -1  -5  122.05   11.21
   1  -2  -5  111.99    9.55
   1  -2  -5  112.94   20.41
   1  -2   5   97.25   10.77
   2  -1   5  136.35   12.30
  -1  -1   5  100.98   12.73
  -2   1   5  134.45   13.87
   2  -1   6  507.72   45.91
   1   1   6  498.17   46.13
   1  -2   6  599.37   54.64
  -1   2   6  489.81   45.19
  -2   1   6  523.12   48.58
  -1  -1   6  579.50   52.68
   1   1  -6  439.57   39.28
  -1   2  -6  481.53   43.32
   2  -1  -6  516.83   47.02
  -2   1  -6  540.96   50.44
  -1  -1  -6  557.83   51.63
   1  -2  -6  480.51   42.86
   2  -1  -6  488.57   44.93
  -1  -1  -6  591.85   53.92
   1  -2  -6  560.78   51.99
   1  -2   6  477.17   44.72
   2  -1   6  594.59   55.26
  -1  -1   6  534.95   51.01
   2  -1   7  105.03   15.70
   1   1   7   98.66   17.77
   1  -2   7  125.12   17.90
  -1   2   7   86.95   13.80
  -2   1   7   95.57   14.79
  -1  -1   7  109.51   16.83
   1   1  -7   86.15   17.62
  -1   2  -7   81.41   13.76
  -2   1  -7  107.88   15.62
   2  -1  -7  100.29   13.81
  -1  -1  -7  101.65   14.90
   1  -2  -7  100.11   14.44
   2  -1  -7   88.32   18.24
  -1  -1  -7  109.81   16.15
   1  -2  -7  102.09   21.92
   1  -2   7   93.34   15.42
   2  -1   7  127.50   18.33
  -1  -1   7  110.40   17.27
   2  -1   8   43.14    9.87
   1   1   8   46.24   25.78
  -1   2   8   39.61   20.46
  -2   1   8   52.35   12.39
  -1  -1   8   57.18   12.64
   1   1  -8   47.94   10.68
  -1   2  -8   45.09   10.87
  -2   1  -8   58.72   13.20
  -1  -1  -8   50.79   11.91
   1  -2  -8   53.61   11.66
   2  -1  -8   33.24   17.74
   1  -2  -8   36.08   22.97
   1  -2   8   58.24   13.82
   2  -1   8   65.63   14.55
  -1  -1   8   65.63   16.55
   0   2   0  491.37   27.50
  -2   2   0  467.56   26.00
  -2   2   0  522.82   28.21
  -2   0   0  448.23   25.32
   0  -2   0  414.71   24.62
   2   0   0  459.96   25.30
   2  -2   0  446.45   25.30
   0  -2   0  468.49   26.66
   2   0   1    3.90    3.46
   0   2  -1    3.46    1.19
   0   2   1    2.55    3.81
  -2   2   1    1.13    4.48
  -2   0   1    3.46    2.74
   0   2  -1    0.50    0.54
  -2   2  -1    2.42    3.88
  -2   2   1    3.08    2.25
   0   2  -1    3.69    3.63
  -2   2  -1    3.37    3.66
  -2   2   1    2.75    1.06
   0  -2  -1   -0.47    4.03
  -2   0   1    2.38    3.71
  -2   0  -1    3.30    1.37
   2  -2  -1    3.11    2.08
   0  -2  -1    2.73    2.17
   2   0   1    0.60    0.98
   2  -2   1   -0.13    4.91
  -2   0   1   -0.35    3.71
   2  -2   2   36.69    6.96
   2   0   2   41.95   19.34
   0   2   2   52.56    6.59
  -2   2   2   41.04    5.61
   0  -2   2   46.47    3.47
  -2   0   2   38.25    4.76
   2   0  -2   38.36    4.01
   0   2  -2   48.01    6.75
  -2   2  -2   41.47    4.27
  -2   0  -2   32.00    4.28
   2  -2  -2   37.65    3.10
   0  -2  -2   41.75    8.75
   2  -2  -2   42.47    4.60
   0  -2  -2   45.43    3.70
   2  -2   2   33.74    5.06
   0  -2   2   46.24    7.19
   2   0   2   41.23    3.43
  -2   0   2   37.18    4.83
   2   0   3   24.23   10.54
   2  -2   3   34.65    7.72
   0   2   3   23.07    6.08
  -2   2   3   40.77   13.65
   0  -2   3   29.27    3.41
  -2   0   3   25.33    3.97
   0   2  -3   25.05    4.19
   2   0  -3   28.35    6.06
  -2   2  -3   31.53    4.50
  -2   0  -3   32.59   11.32
   2  -2  -3   28.61    2.97
   0  -2  -3   24.43    3.83
   2  -2  -3   49.14   15.05
   0  -2  -3   27.26    4.63
   2  -2   3   34.04    6.49
   0  -2   3   32.09    7.53
   2   0   3   33.88    4.10
  -2   0   3   29.27    6.27
   2   0   4  227.57   17.68
   2  -2   4  255.43   17.61
   0   2   4  239.46   18.45
  -2   2   4  228.19   23.61
   0  -2   4  291.42   18.63
  -2   0   4  235.65   16.35
   0   2  -4  245.43   19.48
   2   0  -4  219.86   16.60
  -2   2  -4  227.37   15.92
  -2   0  -4  223.26   16.06
   2  -2  -4  232.30   15.46
   0  -2  -4  239.62   16.67
   2  -2  -4  247.06   26.73
   0  -2  -4  275.36   17.97
   2  -2   4  218.85   17.29
   0  -2   4  229.00   18.64
   2   0   4  308.51   20.60
  -2   0   4  248.95   19.74
   2   0   5    3.19    4.94
   2  -2   5    2.96    3.04
   0   2   5    0.88    5.86
  -2   2   5    1.36    4.04
   0  -2   5    1.24    1.50
  -2   0   5    2.49    3.15
   0   2  -5    2.17    2.21
   2   0  -5    2.38    2.35
  -2   2  -5    2.21    4.03
  -2   0  -5    0.86    2.50
   2  -2  -5    0.76    2.50
   0  -2  -5    4.66    5.54
   2  -2  -5   -2.65    3.14
   0  -2  -5   10.96    4.17
   2  -2   5   -0.68    4.47
   0  -2   5   -0.34    5.76
   2   0   5    2.32    3.78
  -2   0   5    2.77    6.05
   2   0   6    1.68    4.74
   2  -2   6    1.29    3.35
   0   2   6    4.35    4.64
  -2   2   6    4.83    5.04
   0  -2   6    5.24    3.04
  -2   0   6    1.65    3.35
   0   2  -6    0.31    3.93
   2   0  -6    2.40    2.75
  -2   2  -6    1.50    2.11
  -2   0  -6    4.98    4.63
   2  -2  -6    3.28    2.30
   0  -2  -6    4.80    4.32
   2  -2  -6    5.69    4.45
   0  -2  -6    6.87    4.25
   2  -2   6    6.53    6.35
   0  -2   6    5.73    5.12
   2   0   6    7.73    4.57
  -2   0   6    2.90    6.30
   2   0   7    1.18    4.58
   2  -2   7   -1.99    3.47
   0   2   7    0.72    2.12
  -2   2   7    3.47    4.70
   0  -2   7    4.04    2.97
  -2   0   7    0.58    3.26
   0   2  -7    1.81    3.57
   2   0  -7   -0.30    2.64
  -2   2  -7    3.29    5.23
  -2   0  -7    6.32    5.50
   2  -2  -7    1.80    2.82
   0  -2  -7    2.54    4.29
   2  -2  -7    4.55    4.30
   0  -2  -7    2.71    1.63
   2  -2   7    1.05    4.78
   0  -2   7    7.15    6.33
  -2   0   7   -2.05    5.49
   2   0   7    3.05    3.29
   2   0   8   72.59   38.54
   0   2   8   88.81   19.81
  -2   2   8   63.68   33.40
  -2   0   8   82.00   17.36
   0   2  -8   70.49   15.32
  -2   2  -8   97.88   21.50
  -2   0  -8   87.67   18.93
   0  -2  -8   87.00   18.57
   2  -2  -8   93.26   19.99
   2  -2   8  100.85   21.91
   0  -2   8   87.86   19.52
  -1   3   0  571.87   31.76
  -3   2   0  584.26   32.91
  -2  -1   0  544.53   31.48
  -3   2   0  574.98   31.02
  -2  -1   0  540.38   31.45
   1  -3   0  515.17   29.81
   3  -2   0  580.62   32.54
   1  -3   0  532.27   30.41
  -2  -1   0  559.25   30.86
   2   1   1  792.71   45.16
  -1   3   1  782.48   43.55
  -1   3  -1  684.50   36.36
  -3   2   1  767.87   42.38
  -2  -1   1  639.15   35.32
  -3   2  -1  677.80   38.62
   3  -2  -1  735.10   38.84
  -3   2  -1  768.34   41.66
  -3   2   1  701.18   37.16
  -2  -1  -1  751.33   42.19
   1  -3  -1  642.27   36.84
  -2  -1   1  667.42   38.43
   3  -2  -1  746.48   41.41
   1  -3  -1  744.59   41.06
   3  -2   1  622.51   34.83
   1  -3   1  771.20   44.32
  -2  -1   1  754.14   42.15
   3  -2   2    4.70    2.18
   2   1   2    8.18    5.09
  -1   3   2    7.04    4.96
  -3   2   2    7.14    3.78
  -2  -1   2   10.58    2.84
   2   1  -2   10.14    4.28
  -1   3  -2    5.08    2.43
  -3   2  -2    6.25    2.90
  -2  -1  -2    9.55    2.96
   1  -3  -2    5.30    3.54
   3  -2  -2    6.65    3.21
   1  -3  -2    4.86    2.26
   3  -2   2    2.58    5.82
   1  -3   2    3.11    6.12
  -2  -1   2   17.95    5.29
   3  -2   3  585.58   37.15
  -1   3   3  687.50   41.34
  -3   2   3  645.85   37.81
  -2  -1   3  700.01   39.75
   2   1  -3  636.98   36.40
  -1   3  -3  676.48   39.26
  -3   2  -3  684.13   39.28
   3  -2  -3  642.10   35.37
  -2  -1  -3  643.39   37.63
   1  -3  -3  689.90   40.26
   3  -2  -3  698.81   41.41
  -2  -1  -3  714.88   39.34
   1  -3  -3  686.05   39.26
   3  -2   3  641.36   39.28
   1  -3   3  714.15   44.16
  -2  -1   3  657.58   39.73
   3  -2   4  319.51   23.25
   2   1   4  313.98   23.91
   1  -3   4  373.73   22.86
  -3   2   4  338.06   23.19
  -2  -1   4  353.87   22.55
   2   1  -4  344.13   22.06
  -1   3  -4  283.05   25.09
  -3   2  -4  326.68   25.27
   3  -2  -4  321.88   19.73
  -2  -1  -4  359.79   23.98
   1  -3  -4  318.67   21.67
  -2  -1  -4  388.79   23.60
   3  -2  -4  352.68   29.52
   1  -3  -4  322.38   21.04
   3  -2   4  302.39   21.75
   1  -3   4  312.58   24.26
  -2  -1   4  334.39   24.76
   3  -2   5  371.38   33.85
   2   1   5  342.32   32.69
  -1   3   5  336.67   45.13
   1  -3   5  448.41   38.14
  -3   2   5  349.00   31.70
  -2  -1   5  379.35   33.11
   2   1  -5  329.24   31.96
  -1   3  -5  345.96   40.16
  -3   2  -5  366.89   32.91
   3  -2  -5  383.58   32.78
  -2  -1  -5  371.64   33.89
   1  -3  -5  372.17   33.19
  -2  -1  -5  416.73   35.57
   3  -2  -5  397.08   60.05
   1  -3  -5  411.04   36.00
   3  -2   5  358.26   32.91
   1  -3   5  347.87   33.89
  -2  -1   5  370.27   34.97
   3  -2   6    8.63    5.64
   2   1   6    2.64    6.02
  -1   3   6    0.79    5.64
   1  -3   6    4.50    3.20
  -3   2   6    2.49    4.42
  -2  -1   6    1.19    2.74
   2   1  -6    4.21    2.78
  -1   3  -6    2.42    4.14
  -3   2  -6    2.64    4.87
   3  -2  -6    3.51    2.29
  -2  -1  -6   -0.81    4.91
   1  -3  -6    1.14    3.43
  -2  -1  -6    0.86    0.94
   3  -2  -6    2.88    3.12
   1  -3  -6    2.65    2.07
   1  -3   6    3.71    6.42
   3  -2   6    3.40    3.82
  -2  -1   6    1.42    6.92
   2   1   7  224.34   30.77
   3  -2   7  260.99   34.16
  -1   3   7  257.22   35.21
  -3   2   7  237.45   31.55
  -2  -1   7  278.75   35.50
  -1   3  -7  217.50   28.87
   2   1  -7  193.71   25.14
  -3   2  -7  269.73   35.53
  -2  -1  -7  256.64   34.24
   1  -3  -7  267.49   35.01
   3  -2  -7  265.27   35.48
   1  -3  -7  297.42   38.23
   1  -3   7  243.16   34.04
   3  -2   7  270.76   35.77
  -2  -1   7  245.41   34.01
   2   1   8  109.11   23.44
   3  -2   8  107.45   38.80
  -1   3   8  116.92   24.92
  -3   2   8  130.39   26.80
  -1   3  -8  101.78   21.09
  -3   2  -8  125.54   26.10
  -2  -1  -8  132.91   27.29
   3  -2  -8  100.41   31.41
   1  -3   8  115.82   25.41
  -2  -1   8  143.59   30.40
   1   2   0  363.87   21.75
  -2   3   0  360.15   20.29
  -3   1   0  363.56   21.80
  -1  -2   0  327.76   21.17
   3  -1   0  387.97   21.98
   2  -3   0  357.49   21.17
   1   2   1  532.66   32.66
  -2   3   1  540.47   30.63
  -2   3  -1  441.68   24.54
  -3   1  -1  487.82   29.76
  -1  -2   1  474.92   26.48
  -2   3  -1  537.22   29.82
  -3   1  -1  525.37   29.20
  -1  -2  -1  502.11   29.55
   2  -3  -1  505.15   28.44
  -1  -2   1  504.00   30.14
   3  -1  -1  532.50   30.32
   2  -3  -1  515.65   29.16
   3  -1   1  454.18   25.31
   2  -3   1  505.40   29.98
  -1  -2  -1  567.61   31.19
  -1  -2   1  542.40   31.71
   3  -1   2   18.34    9.48
   2  -3   2   11.78    2.69
   1   2   2   23.08   12.90
  -2   3   2   10.71    4.94
  -3   1   2   16.03    3.75
  -1  -2   2   23.30    2.60
   1   2  -2   26.96    4.23
   3  -1  -2   15.12    3.05
  -1  -2  -2   26.73    5.00
   2  -3  -2   11.40    2.87
   3  -1  -2   17.80    5.04
   2  -3  -2   16.82    5.01
  -1  -2  -2   24.16    3.76
   3  -1   2   11.43    3.91
   2  -3   2   10.46    4.80
   3  -1   3  403.42   28.79
   2  -3   3  479.79   27.89
   1   2   3  449.01   29.83
  -2   3   3  417.56   26.74
  -3   1   3  443.94   26.88
  -1  -2   3  466.25   26.55
   1   2  -3  432.49   25.88
  -2   3  -3  432.30   26.07
   3  -1  -3  438.56   24.66
  -3   1  -3  424.01   25.49
  -1  -2  -3  443.81   27.12
   2  -3  -3  422.64   25.24
   3  -1  -3  450.62   28.58
   2  -3  -3  430.87   26.09
  -1  -2  -3  467.58   26.38
   2  -3   3  437.51   29.35
   3  -1   3  417.17   25.04
  -1  -2   3  436.54   28.57
   3  -1   4  315.26   22.79
   1   2   4  313.59   24.52
   2  -3   4  388.50   24.26
  -2   3   4  314.88   22.44
  -3   1   4  356.59   23.43
  -1  -2   4  347.66   21.59
   1   2  -4  322.67   21.29
  -2   3  -4  326.06   28.92
   3  -1  -4  345.81   21.14
  -3   1  -4  363.71   26.41
  -1  -2  -4  319.73   21.83
   2  -3  -4  328.59   21.36
   2  -3  -4  358.64   23.78
  -1  -2  -4  346.63   21.29
   2  -3   4  343.12   25.98
   3  -1   4  391.06   25.40
  -1  -2   4  319.87   24.20
  -3   1   4  359.05   25.19
   3  -1   5  276.64   27.01
   1   2   5  278.64   27.82
   2  -3   5  319.27   28.21
  -2   3   5  251.78   32.13
  -3   1   5  275.90   25.36
  -1  -2   5  302.88   26.39
   1   2  -5  270.96   30.85
  -2   3  -5  249.48   23.36
   3  -1  -5  265.31   23.26
  -3   1  -5  291.81   27.07
  -1  -2  -5  301.39   28.11
   2  -3  -5  258.37   23.34
   3  -1  -5  256.30   24.88
  -1  -2  -5  314.00   27.24
   2  -3  -5  294.21   27.53
   2  -3   5  266.22   27.44
   3  -1   5  330.48   30.00
  -1  -2   5  284.87   28.72
   3  -1   6    2.89    4.26
   1   2   6    1.19    5.72
   2  -3   6    2.64    2.73
  -2   3   6    2.98    5.39
  -3   1   6    2.05    3.39
  -1  -2   6    3.07    2.18
   1   2  -6    1.48    3.18
  -2   3  -6    5.66    5.01
   3  -1  -6    5.67    2.91
  -3   1  -6    1.95    4.67
  -1  -2  -6   -0.40    5.00
   2  -3  -6    4.52    3.89
   3  -1  -6    4.36    1.87
  -1  -2  -6    1.08    0.84
   2  -3  -6    3.35    3.00
   2  -3   6    0.10    5.37
  -1  -2   6   -0.06    5.82
   3  -1   6    4.56    2.91
   3  -1   7  141.51   20.32
   1   2   7  172.10   25.48
  -2   3   7  154.94   24.80
  -3   1   7  175.12   26.57
  -1  -2   7  174.69   22.76
   1   2  -7  140.93   19.25
  -2   3  -7  152.81   21.41
  -3   1  -7  172.03   23.94
  -1  -2  -7  182.65   25.16
   2  -3  -7  160.20   21.68
   3  -1  -7  139.35   22.94
   2  -3  -7  198.29   27.65
   2  -3   7  150.36   22.59
  -1  -2   7  166.64   25.07
   3  -1   7  215.96   29.13
   3  -1   8  151.06   30.71
   1   2   8  137.86   28.91
  -2   3   8  137.71   31.12
  -3   1   8  164.53   29.49
   1   2  -8  111.12   22.48
  -2   3  -8  142.03   28.73
  -3   1  -8  154.76   31.39
  -1  -2  -8  162.13   30.01
   3  -1  -8  132.19   27.00
   2  -3  -8  142.27   36.68
   2  -3   8  140.28   29.57
  -1  -2   8  136.28   29.47
   0   3   0  929.92   50.91
  -3   3   0  943.06   51.52
  -3   3   0 1052.35   57.79
  -3   0   0  956.85   53.89
   0  -3   0  837.40   48.21
   3   0   0  966.25   53.65
   3  -3   0  885.21   49.12
   0  -3   0  950.97   54.20
   3   0   1    5.77    2.26
   0   3  -1    3.92    1.36
   0   3   1   -0.50    3.82
  -3   3   1    0.87    2.64
  -3   0   1    2.87    3.12
  -3   3  -1   -1.48    2.56
   0   3  -1    2.36    1.39
  -3   3   1    1.66    0.82
  -3   3  -1    4.51    2.94
  -3   0  -1    1.83    2.65
   0  -3  -1   -0.54    5.31
  -3   0   1    1.15    3.56
   3  -3  -1   -0.10    2.70
   3   0   1    3.04    1.03
   3  -3   1    0.38    4.50
   0  -3  -1    0.98    2.62
   0  -3   1   -0.19    5.15
  -3   0   1    0.93    3.17
   3  -3   2  236.64   16.53
   0   3  -2  271.32   15.00
   0   3   2  230.34   16.44
  -3   3   2  226.67   15.21
  -3   0   2  235.74   15.16
   3   0  -2  270.35   16.76
   0   3  -2  236.69   15.40
  -3   3  -2  215.56   13.69
   0  -3  -2  219.24   15.29
   3  -3  -2  222.97   12.57
   0  -3  -2  245.90   14.69
   3  -3   2  197.36   15.26
   3   0   2  219.18   12.65
  -3   0   2  216.83   15.34
   3  -3   3    1.31    1.18
   3   0   3    2.07    2.33
   0   3   3    2.48    5.51
  -3   3   3   -1.39    4.15
  -3   0   3    5.36    3.42
   0  -3   3    1.30    0.66
   3   0  -3    1.05    1.02
   0   3  -3    0.88    2.06
  -3   3  -3    4.83    2.81
  -3   0  -3   -0.18    3.56
   0  -3  -3    0.81    4.66
   3  -3  -3    1.16    1.33
   3  -3  -3    1.58    1.39
   0  -3  -3   -0.40    1.48
   3  -3   3    2.30    6.30
   0  -3   3    3.09    8.48
   3   0   3    2.95    1.38
  -3   0   3    2.63    4.25
   3   0   4  533.86   37.03
   3  -3   4  554.45   34.62
   0   3   4  470.49   33.06
  -3   3   4  523.34   33.61
   0  -3   4  500.15   29.55
  -3   0   4  566.08   35.09
   0   3  -4  501.62   31.94
   3   0  -4  529.55   31.96
  -3   3  -4  533.63   33.60
  -3   0  -4  550.74   34.99
   3  -3  -4  486.71   29.63
   0  -3  -4  546.27   35.37
   3  -3  -4  541.74   34.92
   0  -3  -4  542.18   33.90
   3  -3   4  505.58   34.96
   0  -3   4  494.01   34.69
  -3   0   4  550.55   36.88
   3   0   5   -5.47    5.82
   3  -3   5    2.33    2.16
   0   3   5    3.79    6.98
  -3   3   5    2.12    4.97
   0  -3   5    1.17    1.25
  -3   0   5    6.25    5.25
   0   3  -5    1.64    2.61
   3   0  -5    2.79    1.32
  -3   3  -5    0.70    4.32
  -3   0  -5    3.99    5.00
   3  -3  -5   -0.16    1.87
   0  -3  -5    4.13    5.40
   3  -3  -5   -1.42    3.48
   0  -3  -5   -0.72    1.62
   3  -3   5    0.27    5.42
   0  -3   5    3.45    7.07
   3   0   5    1.74    2.55
  -3   0   5    0.78    6.38
   3   0   6   74.40   13.26
   3  -3   6   70.49    9.25
   0   3   6   94.62   14.46
  -3   3   6   63.13    9.75
  -3   0   6   77.83   10.27
   0   3  -6   71.00   14.93
   3   0  -6   60.97    7.40
  -3   3  -6   68.36   10.15
  -3   0  -6   75.15   11.24
   3  -3  -6   66.16    8.10
   0  -3  -6   85.99   11.73
   3  -3  -6   74.78   32.05
   0  -3  -6   84.39   15.17
   3  -3   6   74.03   12.18
   0  -3   6   74.77   13.33
  -3   0   6   69.12   11.44
   3   0   7    0.66    4.35
   3  -3   7    0.42    3.02
   0   3   7   -3.48    6.01
  -3   3   7   -0.82    4.33
  -3   0   7   -0.94    3.23
   0   3  -7    2.72    3.83
   3   0  -7    0.00    1.18
  -3   3  -7    3.78    4.82
  -3   0  -7    1.73    4.90
   0  -3  -7    3.06    4.62
   3  -3  -7    0.13    1.79
   0  -3  -7    1.76    1.49
   3  -3   7   -3.70    5.05
   0  -3   7    3.72    6.44
  -3   0   7    1.20    6.04
   3   0   8  191.26   35.16
   0   3   8  182.85   34.09
  -3   3   8  189.18   33.87
  -3   0   8  234.08   43.29
   0   3  -8  165.17   29.64
  -3   3  -8  200.57   37.83
  -3   0  -8  215.38   40.65
   0  -3  -8  228.58   43.26
   3   0  -8  151.24   27.73
   3  -3  -8  207.23   44.12
   3  -3   8  197.09   36.00
   0  -3   8  183.26   34.51
  -4   3   0   72.38    7.20
  -3  -1   0   52.75    6.69
  -4   3   0   79.28    5.53
  -3  -1   0   54.25    6.89
   1  -4   0   73.39    7.52
   4  -3   0   81.61    9.44
   1  -4   0  100.84    9.49
   3   1   1   43.14   15.97
  -1   4   1   39.41    5.94
  -1   4  -1   41.34    4.71
  -4   3   1   32.29    5.27
  -4   3  -1   29.32    5.59
  -3  -1   1   37.14    5.09
  -4   3  -1   35.94    3.93
  -4   3   1   31.31    3.25
  -3  -1  -1   35.80    6.33
  -3  -1   1   41.12    7.42
   1  -4  -1   40.96    7.19
   3   1   1   31.64    3.06
   4  -3  -1   44.22   13.88
   4  -3   1   34.01    5.26
   1  -4  -1   40.05    5.39
   1  -4   1   45.02    8.01
  -3  -1   1   45.69   11.65
   3   1   2  246.05   18.45
  -1   4   2  236.83   16.80
  -4   3   2  254.24   17.11
  -3  -1   2  271.18   17.52
  -4   3  -2  226.48   17.16
   3   1  -2  270.96   18.10
  -1   4  -2  249.98   16.56
  -4   3  -2  251.87   15.97
  -3  -1  -2  246.04   17.05
   1  -4  -2  279.41   20.06
   4  -3  -2  252.11   21.02
   1  -4  -2  275.87   17.58
   4  -3   2  219.17   16.64
   1  -4   2  270.30   21.78
  -3  -1   2  221.14   16.08
   4  -3   3    0.88    1.68
  -1   4   3    1.71    5.56
  -3  -1   3    1.65    2.45
   3   1  -3    2.22    1.55
  -1   4  -3    0.45    1.28
  -4   3  -3    9.96    3.83
  -3  -1  -3    6.31    5.78
   1  -4  -3    3.32    4.52
   1  -4  -3    1.74    1.01
   4  -3   3    1.81    5.59
   1  -4   3    1.79    6.38
  -3  -1   3    2.89    4.23
   4  -3   4   19.57    9.09
   3   1   4   17.85    5.53
  -1   4   4   29.99    9.16
  -4   3   4   16.63    5.80
  -3  -1   4   16.07    3.64
   3   1  -4   12.53    5.38
  -1   4  -4   31.06   14.72
  -4   3  -4   22.03    6.66
  -3  -1  -4   14.59    4.47
   1  -4  -4   27.96    6.36
   4  -3  -4   25.22    8.93
   1  -4  -4   26.15    5.52
   4  -3   4   24.18    6.98
   1  -4   4   33.66   10.22
  -3  -1   4   11.59    5.71
   4  -3   5   19.72    6.95
   3   1   5   20.20    9.05
  -1   4   5   16.81    6.72
  -4   3   5   20.14    6.28
  -3  -1   5   24.12    4.29
   3   1  -5   17.37    7.17
  -1   4  -5   25.69   12.05
  -4   3  -5   14.03    7.38
  -3  -1  -5   28.13    7.14
   1  -4  -5   38.12    7.20
   4  -3  -5   25.30    9.60
   1  -4  -5   24.54    9.31
   4  -3   5   19.65    6.16
   1  -4   5   32.71   11.01
  -3  -1   5   21.90    7.15
   4  -3   6   67.76   14.12
   3   1   6   69.47   17.00
  -1   4   6   65.94   14.81
  -4   3   6   66.50   11.05
  -3  -1   6   71.26   12.21
  -1   4  -6   72.63   27.74
   3   1  -6   52.11   14.80
  -4   3  -6   64.60   11.21
  -3  -1  -6   75.28   12.67
   1  -4  -6   72.12   11.67
   4  -3  -6   89.75   23.63
   1  -4  -6   82.62   16.10
   4  -3   6   75.05   12.25
   1  -4   6   84.88   17.01
  -3  -1   6   66.96   12.67
   3   1   7    3.63    5.85
   4  -3   7    1.29    4.47
  -1   4   7    3.63    6.65
  -4   3   7   -3.51    4.12
  -3  -1   7    2.31    3.83
  -1   4  -7    2.21    3.73
   3   1  -7    1.75    2.24
  -4   3  -7   -2.22    5.14
  -3  -1  -7    2.43    5.11
   1  -4  -7    2.55    2.54
   4  -3  -7    3.13    2.88
   1  -4  -7    1.38    1.11
   1  -4   7    3.01    7.02
   4  -3   7    8.33    6.00
  -3  -1   7    3.04    6.91
   3   1   8    0.65    5.12
  -1   4   8    6.32    9.24
  -4   3   8    2.69    4.16
  -1   4  -8    8.19    4.78
  -3  -1  -8    8.30    8.24
   4  -3  -8    8.23    4.84
   1  -4   8   12.77    7.79
  -3  -1   8    6.22    9.75
   2   2   0   88.23    7.93
  -2   4   0   79.59    6.21
  -4   2   0   87.60    9.41
  -2   4   0   89.52   11.02
  -4   2   0   74.81    5.31
  -2  -2   0   76.50    9.78
   4  -2   0   86.94    7.27
   2  -4   0   81.21    7.33
  -2  -2   0   79.93    6.82
   2   2   1   63.63   13.82
  -2   4   1   76.53    8.35
  -2   4  -1   62.97    4.60
  -4   2   1   57.57    6.49
  -4   2  -1   50.73    7.88
  -2  -2   1   59.57    6.01
  -2   4  -1   69.48    6.17
  -4   2  -1   56.99    5.50
  -4   2   1   50.68    3.99
  -2  -2  -1   59.47    7.67
  -2  -2   1   75.15    9.44
   2  -4  -1   63.60    6.79
   4  -2  -1   55.82    5.68
   2  -4  -1   71.04    6.81
   4  -2   1   52.21    9.44
   2  -4   1   67.73    9.25
  -2  -2  -1   67.58    5.12
  -2  -2   1   65.79    7.79
   4  -2   2  956.31   57.51
   2  -4   2  927.03   50.55
   2   2   2  989.40   58.36
  -2   4   2  997.84   57.35
  -2  -2   2  892.43   49.97
   2   2  -2 1045.20   60.13
  -4   2  -2 1032.21   58.01
  -2  -2  -2 1037.89   59.70
   2  -4  -2  898.43   52.03
   4  -2  -2 1009.42   57.96
   2  -4  -2  891.58   50.80
   2  -4   2  934.31   55.70
  -2  -2   2  923.65   53.87
   4  -2   3   31.34   12.94
   2   2   3   37.39   13.74
   2  -4   3   35.21    3.92
  -2   4   3   32.48    6.95
  -4   2   3   27.63   14.09
  -2  -2   3   30.80    3.80
   2   2  -3   35.40    6.28
  -2   4  -3   31.69    4.91
  -4   2  -3   22.80    3.98
  -2  -2  -3   36.97    5.56
   2  -4  -3   37.78    5.62
   4  -2  -3   34.63   16.05
   2  -4  -3   37.76   10.97
   4  -2   3   27.39    5.69
   2  -4   3   44.30    8.87
  -2  -2   3   23.43    7.14
   4  -2   4   36.16   15.46
   2  -4   4   51.08    5.42
  -2   4   4   35.52    8.24
  -4   2   4   58.15    8.56
  -2  -2   4   49.03    5.31
   2   2  -4   42.34   16.93
  -2   4  -4   36.12   12.67
  -4   2  -4   44.87    6.03
   4  -2  -4   41.68    4.00
  -2  -2  -4   40.41    6.77
   2  -4  -4   43.73    6.67
   4  -2  -4   51.14   21.89
   2  -4  -4   48.57   15.84
   2  -4   4   38.25    9.87
   4  -2   4   51.85    7.29
  -2  -2   4   51.81    9.89
   4  -2   5   31.82   12.39
   2   2   5   44.14   11.36
  -4   2   5   37.10    7.88
  -2  -2   5   44.73    6.54
   2   2  -5   37.51   12.86
  -2   4  -5   43.88   10.96
  -4   2  -5   38.31    7.64
  -2  -2  -5   44.31    8.44
   2  -4  -5   41.40    6.48
   4  -2  -5   42.77   18.62
   2  -4  -5   47.00   12.95
   2  -4   5   48.55   11.69
   4  -2   5   35.83    6.80
  -2  -2   5   43.85    8.80
   4  -2   6  428.92   41.63
   2   2   6  396.61   39.81
  -2   4   6  405.08   39.90
  -4   2   6  457.59   55.47
  -2  -2   6  470.00   55.59
   2   2  -6  385.82   36.41
  -2   4  -6  389.71   37.15
  -4   2  -6  477.53   57.81
  -2  -2  -6  475.99   57.84
   2  -4  -6  443.38   42.02
   4  -2  -6  455.91   56.39
   2  -4  -6  494.34   59.36
   2  -4   6  432.64   43.96
   4  -2   6  463.76   56.00
  -2  -2   6  442.33   44.78
   4  -2   7   15.45    6.32
   2   2   7   20.94    9.53
  -2   4   7   11.34    8.49
  -4   2   7   15.01    6.28
   2   2  -7   12.51    3.90
  -2   4  -7   20.40    6.76
  -4   2  -7   15.58    7.89
  -2  -2  -7   20.93    8.92
   4  -2  -7   15.41    5.28
   2  -4  -7   20.57    8.73
   2  -4   7   20.74   11.13
  -2  -2   7   18.04    9.59
   4  -2   8   16.69    5.33
   2   2   8   25.15   10.90
  -2   4   8   19.38    8.42
  -4   2   8   19.35    7.26
   2   2  -8   12.22    4.43
  -2   4  -8   19.48    7.15
  -4   2  -8   16.26    6.31
  -2  -2  -8   29.30    9.11
   4  -2  -8   13.18    6.98
   2  -4  -8   15.21    8.09
   2  -4   8   15.05    6.99
  -2  -2   8   17.03    9.56
   1   3   0  101.11   11.47
  -3   4   0  155.11   10.42
  -4   1   0  128.71   10.64
  -3   4   0  163.70   10.28
  -4   1   0  142.33    9.77
  -1  -3   0  104.38   10.73
   4  -1   0  140.22   12.73
   3  -4   0  164.00   12.39
  -1  -3   0  106.57    9.37
   1   3  -1    1.19    1.59
   1   3   1   -0.69    2.78
  -3   4   1    2.49    3.34
  -3   4  -1    4.68    3.41
  -4   1   1   -1.07    3.40
  -4   1  -1    3.70    5.98
  -3   4   1    0.63    0.91
  -3   4  -1    2.89    1.20
  -4   1  -1    1.67    2.61
  -1  -3  -1   -1.09    5.62
  -4   1   1    6.06    3.96
   4  -1  -1    1.70    1.80
   4  -1   1    0.46    1.79
   3  -4   1    4.01    5.39
  -1  -3  -1    3.85    3.25
  -1  -3   1    1.59    4.43
   4  -1   2  407.08   28.52
   1   3   2  429.02   28.06
  -3   4   2  416.13   26.74
  -4   1   2  424.94   25.98
  -1  -3   2  390.01   22.62
  -3   4  -2  383.98   23.30
   4  -1  -2  496.40   28.47
   1   3  -2  462.17   28.93
  -3   4  -2  443.06   27.84
  -4   1  -2  423.94   25.56
  -1  -3  -2  394.74   25.67
   3  -4  -2  397.62   23.55
   4  -1  -2  427.04   27.69
   3  -4  -2  410.12   25.24
  -1  -3  -2  476.60   27.38
   4  -1   2  350.05   21.18
   3  -4   2  405.63   27.07
  -1  -3   2  439.13   28.72
   4  -1   3    3.25    3.86
   3  -4   3    0.73    1.36
   1   3   3   -2.17    5.06
  -3   4   3    5.85    5.38
  -4   1   3    2.84    3.68
  -1  -3   3    1.46    1.30
   1   3  -3    1.70    2.55
   4  -1  -3    1.03    0.57
  -1  -3  -3    2.91    5.36
   3  -4  -3    2.69    3.54
   4  -1  -3    2.27    1.33
   3  -4  -3    1.05    1.26
  -1  -3  -3    0.01    1.08
   3  -4   3    4.16    7.66
   4  -1   3    2.20    1.85
   4  -1   4   14.21    7.70
   3  -4   4   14.03    2.89
   1   3   4   12.36    8.18
  -3   4   4   16.01    6.50
  -4   1   4   10.92    4.92
  -1  -3   4    5.41    1.79
   1   3  -4    5.72    3.34
   4  -1  -4   11.87    3.89
  -3   4  -4   24.30    9.84
  -4   1  -4   13.95    3.82
  -1  -3  -4    7.92    4.23
   3  -4  -4   10.25    2.92
   4  -1  -4   19.22    8.12
   3  -4  -4   14.64    4.34
  -1  -3  -4    5.47    2.17
   3  -4   4   15.91    9.07
   4  -1   4   13.25    3.36
  -1  -3   4    4.63    7.00
   4  -1   5   -3.02    5.29
   3  -4   5    1.23    1.99
   1   3   5    2.79    7.32
  -3   4   5   -0.44    5.46
  -4   1   5    3.72    6.01
  -1  -3   5    0.43    1.46
  -3   4  -5    3.56    4.49
   4  -1  -5    1.69    2.04
  -4   1  -5    1.47    2.98
  -1  -3  -5    1.17    5.91
   3  -4  -5    0.61    2.55
   4  -1  -5    0.72    3.05
  -1  -3  -5    1.60    0.76
   3  -4   5   -4.87    7.14
  -1  -3   5   -0.23    7.14
   4  -1   5    0.56    2.59
   4  -1   6  248.88   32.67
   1   3   6  261.32   34.77
  -3   4   6  234.44   32.03
  -4   1   6  258.72   32.35
   1   3  -6  252.98   31.95
  -3   4  -6  225.36   28.65
  -4   1  -6  259.20   32.88
  -1  -3  -6  315.16   39.88
   4  -1  -6  223.26   29.21
   3  -4  -6  299.61   37.60
   3  -4   6  238.59   32.87
  -1  -3   6  253.15   35.24
   4  -1   7   -2.96    4.24
   1   3   7    6.58    7.00
  -3   4   7    4.40    7.18
  -4   1   7    3.02    3.51
   1   3  -7    0.51    1.89
  -3   4  -7   -2.37    4.67
  -4   1  -7    4.66    5.33
  -1  -3  -7   13.48    8.46
   4  -1  -7    1.58    1.74
   3  -4  -7    2.31    3.31
   3  -4   7    2.27    5.45
  -1  -3   7   -3.58    6.70
   4  -1   8    1.28    4.33
   1   3   8    2.84    5.83
  -3   4   8    0.79    4.48
  -4   1   8    5.31    3.69
   1   3  -8    7.23    4.86
  -3   4  -8    0.75    4.54
  -4   1  -8    7.96    7.32
  -1  -3  -8    7.85    6.21
   4  -1  -8    1.18    1.90
   3  -4  -8    2.66    1.97
   3  -4   8    2.88    5.24
  -1  -3   8    4.41    7.00
   0   4   0  333.01   22.27
  -4   4   0  293.42   18.67
  -4   0   0  304.70   21.39
  -4   4   0  323.07   18.83
  -4   0   0  292.08   19.16
   0  -4   0  358.19   24.77
   4   0   0  281.79   17.33
   4  -4   0  319.48   21.16
   0  -4   0  358.05   23.36
   0   4  -1    3.95    1.74
   0   4   1    1.13    3.98
  -4   4   1    2.37    3.59
  -4   4  -1    5.99    3.54
  -4   0   1    1.33    4.06
   0   4  -1   -0.87    3.28
  -4   4   1    0.90    0.88
  -4   4  -1    1.15    1.78
  -4   0  -1    2.16    2.25
  -4   0   1   -0.56    4.05
   0  -4  -1    7.79    7.16
   4   0  -1   12.33    4.24
   4   0   1    1.16    0.33
   4  -4  -1    2.97    1.90
   4  -4   1   -0.11    5.15
   0  -4  -1    2.58    3.52
   0  -4   1   -0.71    6.14
   0   4   2 1085.60   63.28
  -4   4   2 1240.38   70.32
  -4   0   2 1356.37   76.42
   0   4  -2 1107.89   63.76
  -4   4   2 1197.69   65.00
  -4   4  -2 1273.08   71.04
  -4   0  -2 1315.40   73.97
   0  -4  -2 1169.19   68.36
  -4   0   2 1076.13   61.45
   0  -4  -2 1305.80   72.98
   4  -4   2 1164.38   67.97
   4   0   2 1049.67   57.53
   0  -4   2 1159.85   68.03
  -4   0   2 1255.43   71.43
   4  -4   3    1.35    1.61
   4   0   3    1.99    4.26
   0   4   3   -0.26    5.64
  -4   4   3    1.50    4.32
  -4   0   3    2.98    3.79
   4   0  -3    5.26    2.24
   0   4  -3    2.85    3.17
  -4   4  -3    0.62    1.96
   0  -4  -3   13.10    5.68
   4  -4  -3    2.46    2.69
   0  -4  -3   -0.16    1.83
   4  -4   3   -0.38    6.43
  -4   0   3    0.01    5.11
   4  -4   4  177.08   17.45
   4   0   4  196.62   18.23
   0   4   4  193.16   18.52
  -4   0   4  223.13   16.57
   0   4  -4  221.61   16.84
   4   0  -4  171.26   12.23
  -4   0  -4  197.15   15.86
   0  -4  -4  217.80   17.70
   4  -4  -4  225.26   27.95
   0  -4  -4  225.92   21.20
   4  -4   4  211.68   20.68
   0  -4   4  234.73   21.53
   4   0   5   -0.48    6.65
   4  -4   5    0.30    2.34
   0   4   5   -1.92    7.58
  -4   4   5    9.14    7.74
  -4   0   5    3.29    5.26
   0   4  -5    2.25    3.69
   4   0  -5    2.68    1.56
  -4   4  -5    0.83    4.53
  -4   0  -5    2.95    4.58
   0  -4  -5    3.06    5.98
   4  -4  -5    3.10    1.83
   0  -4  -5    0.28    1.43
   4  -4   5    3.06    6.56
   0  -4   5   -3.07    7.30
  -4   0   5    5.00    6.00
   4   0   6  613.73   74.36
   4  -4   6  625.97   72.74
   0   4   6  511.66   63.94
  -4   4   6  518.48   62.75
  -4   0   6  671.17   78.22
   0   4  -6  509.94   62.71
   4   0  -6  463.35   54.45
  -4   4  -6  557.92   65.90
  -4   0  -6  648.35   76.29
   0  -4  -6  650.29   77.11
   4  -4  -6  591.17   70.07
   0  -4  -6  566.42   65.54
   4  -4   6  536.46   66.14
   0  -4   6  510.72   64.14
  -4   0   6  629.43   75.30
   4   0   7    2.42    8.07
   0   4   7   -1.14    7.28
  -4   4   7    0.36    4.32
  -4   0   7    4.02    4.50
   0   4  -7    1.35    1.61
  -4   4  -7   -3.52    5.17
  -4   0  -7   -0.64    4.73
   0  -4  -7    2.61    4.86
   4   0  -7   -0.48    3.81
   4  -4  -7    2.34    3.88
   4  -4   7    0.14    4.56
   0  -4   7    0.01    7.05
   4   0   8   84.19   19.85
   0   4   8   82.08   20.68
  -4   4   8   65.10   14.66
   0   4  -8   65.06   14.03
  -4   4  -8   69.91   15.68
  -4   0  -8   88.91   19.72
   0  -4  -8  106.49   22.89
   4   0  -8   40.17   27.26
   4  -4  -8   76.63   35.82
   0  -4   8   77.19   17.95
  -1   5   0  753.77   43.30
  -5   4   0  804.56   47.13
  -4  -1   0  889.50   52.95
  -5   4   0  823.77   45.82
  -4  -1   0  935.48   55.22
   1  -5   0  826.86   49.81
   5  -4   0  830.60   49.38
   1  -5   0  926.45   54.39
  -4  -1   0  815.38   46.10
   4   1   1   28.31   10.27
  -1   5   1   25.38    5.53
  -1   5  -1   26.41    4.22
  -5   4   1   23.17    5.30
  -5   4  -1   27.83    5.19
  -4  -1   1   21.71    5.77
  -1   5  -1   36.95   13.52
  -5   4  -1   23.30    3.28
  -5   4   1   28.08    2.49
  -4  -1  -1   24.43    6.10
  -4  -1   1   23.23    7.06
   1  -5  -1   32.32    6.67
   4   1   1   19.52    2.60
   5  -4  -1   36.48   11.66
   5  -4   1   26.07    7.04
   1  -5  -1   31.67    5.67
   1  -5   1   29.28    6.71
  -4  -1   1   22.41    4.58
   4   1   2   49.25   20.71
  -1   5   2   42.89    8.91
  -5   4   2   51.43    7.30
  -4  -1   2   32.65    5.21
  -5   4  -2   41.69    7.99
  -1   5  -2   42.06    6.53
  -5   4  -2   49.10    6.09
  -4  -1  -2   35.84    6.83
   1  -5  -2   35.62    7.60
  -4  -1   2   35.83    6.01
   5  -4  -2   53.79    7.04
   1  -5  -2   42.04    5.71
   5  -4   2   44.81    7.97
   1  -5   2   35.09    9.83
  -4  -1   2   27.39    5.24
   5  -4   3   31.47   13.22
   4   1   3   31.85    9.85
  -1   5   3   41.35    9.08
  -5   4   3   26.89    5.74
  -4  -1   3   35.20    5.69
   4   1  -3   36.61   13.91
  -1   5  -3   42.77   15.09
  -5   4  -3   34.68    4.83
  -4  -1  -3   28.02    5.87
   1  -5  -3   33.81    8.32
   1  -5  -3   44.81    5.63
   5  -4   3   28.84    8.00
   1  -5   3   42.18    9.18
  -4  -1   3   33.97    8.02
   5  -4   4  467.49   43.23
   4   1   4  604.35   55.84
  -1   5   4  498.63   55.40
  -4  -1   4  644.72   55.19
   4   1  -4  533.96   46.35
  -1   5  -4  511.67   45.14
  -5   4  -4  527.81   46.08
  -4  -1  -4  642.10   56.21
   1  -5  -4  539.95   48.52
   5  -4  -4  546.05   48.63
   1  -5  -4  577.80   49.76
   5  -4   4  495.75   46.42
   1  -5   4  564.18   52.77
  -4  -1   4  545.57   49.54
   5  -4   5   11.90    3.81
   4   1   5   13.72    4.57
  -1   5   5   11.40    7.92
  -5   4   5    6.87    5.79
  -4  -1   5    8.73    3.60
   4   1  -5    7.20    2.29
  -1   5  -5    9.92    4.64
  -4  -1  -5    9.29    4.93
   1  -5  -5    5.43    5.09
   5  -4  -5   13.82    3.94
   1  -5  -5   11.34    5.74
   5  -4   5   11.16    6.55
   1  -5   5   21.06   11.50
  -4  -1   5   11.34    6.03
   5  -4   6   31.89    7.20
   4   1   6   22.76   10.06
  -1   5   6   27.24   12.85
  -5   4   6   26.55    7.41
  -4  -1   6   26.37    5.93
  -1   5  -6   21.76    9.98
   4   1  -6   15.69    6.40
  -5   4  -6   50.44   12.32
  -4  -1  -6   27.77    8.44
   1  -5  -6   20.67    7.25
   5  -4  -6   35.36   18.30
   1  -5  -6   20.54    9.87
   5  -4   6   28.83    8.72
   1  -5   6   35.79   12.92
  -4  -1   6   17.62    7.39
   4   1   7   11.44    8.84
  -1   5   7    7.45   11.29
  -5   4   7   14.58    7.53
  -4  -1   7   10.01    4.56
  -1   5  -7   11.24    6.60
  -5   4  -7   15.44    7.46
  -4  -1  -7    6.89    5.94
   1  -5  -7    5.54    5.36
   5  -4  -7   11.42    5.30
   5  -4   7   11.08    6.00
   1  -5   7    9.88   10.25
  -4  -1   7    3.26    6.84
   3   2   0  288.92   21.34
  -2   5   0  191.56   12.80
  -5   3   0  246.57   18.02
  -2   5   0  216.12   15.52
  -5   3   0  213.69   12.95
  -3  -2   0  251.79   20.08
   5  -3   0  232.97   16.02
   2  -5   0  215.53   16.27
  -3  -2   0  213.40   14.22
   3   2   1  411.72   27.18
  -2   5   1  380.54   24.10
  -2   5  -1  327.75   19.24
  -5   3   1  406.27   25.73
  -5   3  -1  409.76   27.71
  -3  -2   1  324.57   21.21
  -2   5  -1  386.45   24.36
  -5   3  -1  400.68   23.92
  -5   3   1  368.12   20.86
  -3  -2  -1  362.14   24.51
  -3  -2   1  401.87   28.25
   2  -5  -1  360.05   23.63
   5  -3  -1  379.34   28.77
   5  -3   1  372.82   23.90
   2  -5  -1  403.45   25.60
   2  -5   1  386.87   26.04
  -3  -2   1  331.34   21.45
  -3  -2  -1  335.15   19.41
   3   2   2   53.51   21.46
  -2   5   2   20.30    6.14
  -5   3   2   38.26    6.26
  -3  -2   2   48.64    5.81
  -5   3  -2   43.69    8.96
  -2   5  -2   23.86    9.06
  -5   3  -2   32.23    4.70
  -3  -2  -2   45.75    7.65
   2  -5  -2   22.01    5.13
  -3  -2   2   36.73    5.99
   5  -3  -2   28.01   10.50
   2  -5  -2   27.32    4.84
   5  -3   2   34.06    6.70
   2  -5   2   26.52    7.00
  -3  -2   2   52.53    7.41
   5  -3   3  294.76   22.46
   3   2   3  321.39   25.02
  -2   5   3  297.11   22.03
  -3  -2   3  341.77   22.39
   3   2  -3  339.21   23.28
  -2   5  -3  313.27   23.48
  -5   3  -3  328.28   22.06
  -3  -2  -3  319.60   23.56
   2  -5  -3  343.77   25.65
   5  -3  -3  342.30   29.92
   2  -5  -3  350.88   23.31
   5  -3   3  274.77   21.03
   2  -5   3  354.16   28.67
  -3  -2   3  271.88   20.94
   5  -3   4  117.71   14.47
   3   2   4  139.45   17.46
  -2   5   4   93.72   13.26
  -5   3   4  135.08   14.80
  -3  -2   4  146.03   14.16
   3   2  -4  118.86   19.40
  -2   5  -4  110.21   12.42
  -5   3  -4  119.50   12.85
  -3  -2  -4  156.36   17.61
   2  -5  -4  113.63   13.72
   2  -5  -4  136.06   13.86
   5  -3   4  125.27   14.83
   2  -5   4  139.36   18.93
  -3  -2   4  119.94   15.11
   5  -3   5  197.64   37.95
   3   2   5  183.77   22.06
  -2   5   5  185.03   20.99
  -5   3   5  199.64   20.52
  -3  -2   5  206.65   19.61
   3   2  -5  176.66   22.90
  -2   5  -5  193.15   19.73
  -5   3  -5  205.56   20.87
  -3  -2  -5  196.67   20.97
   2  -5  -5  176.24   18.99
   5  -3  -5  210.35   31.30
   2  -5  -5  215.49   21.07
   5  -3   5  200.48   20.91
   2  -5   5  196.67   23.27
  -3  -2   5  178.12   20.10
   5  -3   6    7.66    4.74
   3   2   6   17.86   10.00
  -5   3   6   12.21    6.07
  -3  -2   6   12.32    4.60
   3   2  -6    8.37    3.39
  -2   5  -6    3.12    3.36
  -5   3  -6   10.71    6.84
  -3  -2  -6    7.89    5.46
   2  -5  -6    7.02    4.73
   5  -3  -6   10.27    5.65
   2  -5  -6    4.99    4.09
   2  -5   6    3.78    7.82
   5  -3   6    6.57    4.42
  -3  -2   6    7.98    6.33
   5  -3   7  110.82   23.90
   3   2   7  103.34   23.77
  -2   5   7  116.22   24.51
  -5   3   7  120.20   23.37
   3   2  -7   80.10   17.92
  -2   5  -7  105.57   21.00
  -5   3  -7  132.92   25.72
  -3  -2  -7  133.19   26.85
   5  -3  -7  112.47   44.57
   2  -5  -7  134.81   29.40
   2  -5   7  120.46   26.80
  -3  -2   7  125.01   26.69
   3   2   8   53.39   15.89
  -2   5   8   35.09   22.35
  -5   3   8   52.66   12.81
  -2   5  -8   43.73   10.77
  -5   3  -8   38.86   16.14
  -3  -2  -8   58.49   15.14
   5  -3  -8   32.21   21.93
   2  -5   8   50.83   14.24
  -3  -2   8   43.11   12.34
   2   3   0  271.06   18.20
  -3   5   0  256.57   15.94
  -5   2   0  284.14   20.29
  -3   5   0  295.22   19.34
  -5   2   0  264.01   16.19
   5  -2   0  283.41   18.67
  -2  -3   0  250.24   17.05
   2   3   1  311.58   21.38
  -3   5   1  265.43   17.48
  -3   5  -1  241.89   14.92
  -5   2   1  306.24   20.94
  -5   2  -1  337.35   24.38
  -3   5   1  303.17   19.40
  -3   5  -1  264.09   16.98
  -5   2  -1  288.80   18.12
  -5   2   1  278.30   17.02
  -2  -3  -1  292.08   21.97
  -2  -3   1  332.49   24.32
   5  -2  -1  289.18   19.22
   5  -2   1  276.76   17.85
   3  -5  -1  274.85   18.83
   3  -5   1  287.39   21.31
  -2  -3  -1  296.82   18.53
  -2  -3   1  304.64   21.19
   5  -2   2   28.65   13.46
   2   3   2   16.18    5.55
  -3   5   2   34.75    6.59
  -5   2   2   14.50    3.86
  -3   5  -2   24.90    3.60
  -2  -3   2    8.48    3.19
   5  -2  -2   24.35    4.29
   2   3  -2   10.84    4.86
  -3   5  -2   33.19   14.88
  -5   2  -2   23.89    9.60
  -2  -3  -2   10.52    4.55
   3  -5  -2   24.02    4.55
   5  -2  -2   28.75   11.16
   3  -5  -2   27.46    8.85
   5  -2   2   13.71    3.86
   3  -5   2   27.03    6.99
  -2  -3   2    6.11    4.16
   5  -2   3  160.23   15.35
   2   3   3  146.46   46.64
  -3   5   3  140.28   17.08
  -5   2   3  174.57   14.14
  -2  -3   3  158.72   11.46
   2   3  -3  149.58   17.22
  -5   2  -3  161.03   12.39
  -2  -3  -3  162.17   13.90
   3  -5  -3  135.31   12.07
   5  -2  -3  165.20   14.39
   3  -5  -3  147.20   12.05
   5  -2   3  143.65   12.42
   3  -5   3  136.69   15.52
  -2  -3   3  146.00   14.62
   5  -2   4  129.59   41.14
   2   3   4  137.60   19.01
  -3   5   4  144.78   21.06
  -5   2   4  171.97   17.64
  -2  -3   4  153.75   14.42
   2   3  -4  132.40   16.71
  -3   5  -4  157.00   20.03
  -5   2  -4  169.17   17.22
  -2  -3  -4  148.72   16.86
   3  -5  -4  151.22   15.89
   5  -2  -4  176.09   20.99
   3  -5  -4  165.50   16.62
   3  -5   4  161.27   20.79
   5  -2   4  158.17   15.87
   5  -2   5  160.38   29.58
  -3   5   5  142.78   17.01
  -5   2   5  190.62   20.21
  -2  -3   5  185.12   17.33
   2   3  -5  170.51   22.98
  -3   5  -5  140.40   15.36
  -5   2  -5  181.16   19.09
  -2  -3  -5  186.33   20.56
   3  -5  -5  134.96   14.58
   3  -5  -5  174.95   18.05
   3  -5   5  161.17   21.46
   5  -2   5  175.17   17.64
  -2  -3   5  169.51   21.10
   5  -2   6    4.07    3.47
   2   3   6    5.00    7.03
  -3   5   6    7.71    7.94
  -5   2   6    7.24    4.03
   2   3  -6    3.14    3.27
  -3   5  -6   10.57    4.70
  -5   2  -6    8.73    5.41
  -2  -3  -6    4.85    5.59
   5  -2  -6    9.74    4.01
   3  -5  -6    7.85    2.95
   3  -5   6    4.21    7.87
  -2  -3   6    2.99    7.39
   5  -2   7   81.74   17.17
   2   3   7   76.84   30.09
  -3   5   7   57.89   32.41
  -5   2   7   92.14   19.38
   2   3  -7   60.94   25.50
  -3   5  -7   69.11   14.93
  -5   2  -7   98.26   19.95
  -2  -3  -7  107.55   22.42
   5  -2  -7   74.23   16.66
   3  -5  -7   76.89   16.94
   3  -5   7   81.82   19.79
  -2  -3   7   71.25   40.83
   5  -2   8   57.75   14.25
   2   3   8   52.80   15.15
  -3   5   8   58.68   14.95
  -5   2   8   64.62   14.73
   2   3  -8   39.81    9.33
  -3   5  -8   61.76   14.46
  -5   2  -8   67.62   16.37
  -2  -3  -8   48.06   24.16
   5  -2  -8   42.31   24.89
   3  -5   8   60.06   16.18
  -2  -3   8   51.51   15.46
   1   4   0 1206.06   68.24
  -4   5   0 1014.27   57.45
  -5   1   0 1198.14   69.82
  -4   5   0 1186.76   65.90
  -5   1   0 1142.50   64.75
  -1  -4   0 1315.25   78.25
   5  -1   0  996.22   56.20
   4  -5   0 1104.64   64.15
  -1  -4   0 1304.79   74.76
   1   4  -1    4.63    1.47
   1   4   1    8.31    3.88
  -4   5   1    4.01    3.82
  -4   5  -1    5.07    3.05
  -5   1   1    7.00    5.36
  -5   1  -1    7.15    5.28
  -4   5   1    4.74    1.69
  -4   5  -1    4.27    1.75
  -5   1  -1    5.93    3.38
  -5   1   1    7.37    3.66
  -1  -4  -1    5.40   12.59
   5  -1  -1    4.33    1.85
   5  -1   1    3.36    1.93
   4  -5   1    4.98    5.08
  -1  -4  -1    4.16    2.77
  -1  -4   1    2.18    4.36
   5  -1   2    4.26    3.40
   1   4  -2    2.20    0.77
   1   4   2    2.31    5.14
  -4   5   2    3.18    5.77
  -5   1   2    5.26    5.85
  -4   5  -2    4.90    3.29
   1   4  -2    1.37    3.56
  -4   5   2    2.28    0.97
  -4   5  -2    4.54    1.92
  -5   1  -2    4.38    3.84
  -1  -4  -2    3.66    6.97
  -5   1   2    5.25    3.25
   5  -1  -2    2.12    1.78
   4  -5  -2    5.31    2.28
   5  -1   2    3.05    2.92
  -1  -4  -2    3.87    2.83
   4  -5   2   -0.26    6.49
  -1  -4   2   -0.43    5.79
   4  -5   3   14.07    6.53
   5  -1   3   17.36   12.68
   1   4   3   10.33    7.49
  -4   5   3   22.43    6.90
  -5   1   3   14.85    5.11
   1   4  -3   15.03    9.81
   5  -1  -3   12.47    4.38
  -4   5  -3   13.60    8.13
  -5   1  -3   16.74    4.46
  -1  -4  -3   13.94    7.00
   4  -5  -3   14.61    2.65
   5  -1  -3   16.09    5.19
   4  -5  -3   17.72    5.53
  -1  -4  -3   16.21    3.64
   4  -5   3   14.06    6.44
   5  -1   3   12.14    2.55
  -1  -4   3   16.42    8.99
   5  -1   4  767.29   68.32
   4  -5   4  822.41   52.70
   1   4   4  761.30   67.19
  -4   5   4  729.07   62.98
  -5   1   4  807.91   53.53
   1   4  -4  751.07   64.92
  -1  -4  -4  845.79   57.55
   5  -1  -4  685.80   59.95
   4  -5  -4  812.68   54.32
  -1  -4  -4  881.11   56.06
   4  -5   4  863.86   62.39
   5  -1   5   -4.15    6.02
   1   4   5    5.50   11.00
  -4   5   5    0.22    5.47
  -5   1   5    0.19    4.24
   1   4  -5    3.94    3.07
  -4   5  -5    1.23    4.43
  -5   1  -5    0.18    4.97
  -1  -4  -5   -2.65    6.21
   5  -1  -5    2.51    2.21
   4  -5  -5    1.35    1.94
   4  -5   5    0.91    7.64
  -1  -4   5   -0.62    6.81
   5  -1   6    7.74    8.11
  -4   5   6   -0.40    5.34
  -5   1   6    9.15    5.10
   1   4  -6    3.13    2.87
  -4   5  -6   10.37    6.11
  -5   1  -6   11.46    5.39
  -1  -4  -6    7.26    5.27
   5  -1  -6    3.89    2.80
   4  -5  -6   11.67    4.64
   4  -5   6    2.02    6.90
  -1  -4   6   -1.02    7.81
   5  -1   7    4.00    5.24
   1   4   7    3.80    7.35
  -4   5   7    4.94    5.73
  -5   1   7   -0.88    3.85
   1   4  -7    3.07    3.97
  -4   5  -7    5.42    4.67
  -5   1  -7   11.81    8.21
  -1  -4  -7   -1.32    6.28
   5  -1  -7    3.49    3.01
   4  -5   7    2.92    8.38
  -1  -4   7    5.58    7.82
   0   5   0   51.82    6.12
  -5   5   0   63.06    7.10
  -5   0   0   85.33   10.84
  -5   5   0   64.75    7.25
  -5   0   0   70.44    8.30
   0  -5   0   67.07   11.08
   5   0   0   61.58   10.32
   5  -5   0   67.59    9.28
   0  -5   0   67.92    8.67
   5   0   1    4.95    2.00
   0   5  -1    4.32    2.10
   0   5   1    2.44    4.19
  -5   5   1    8.49    4.49
  -5   5  -1    4.99    4.10
  -5   0   1    6.62    5.06
   0   5  -1    3.17    2.59
  -5   5   1    2.71    0.98
  -5   5  -1    3.91    1.53
  -5   0  -1    6.23    4.84
  -5   0   1    7.76    5.44
   0  -5  -1    7.57    9.40
   5   0  -1    2.80    2.90
   5   0   1    5.72    2.17
   5  -5  -1    1.97    2.10
   5  -5   1    3.61    6.47
   0  -5  -1    4.03    3.16
   0  -5   1    3.40    5.65
   5   0   2  668.47   44.61
   0   5   2  704.49   44.97
  -5   5   2  612.84   39.17
  -5   0   2  689.23   43.26
   0   5  -2  680.42   43.24
  -5   5  -2  606.34   37.14
  -5   0  -2  669.47   42.23
  -5   0   2  546.68   35.80
   5   0  -2  557.36   36.17
   5  -5   2  623.94   42.02
   0  -5   2  787.12   51.22
   5  -5   3    6.48    4.47
   5   0   3   -1.95    5.56
   0   5   3    4.95    6.26
  -5   5   3    8.96    4.63
  -5   0   3    2.26    4.27
   5   0  -3    5.15    1.90
   0   5  -3    4.73    2.68
  -5   5  -3    5.83    3.06
  -5   0  -3    8.16    5.67
   0  -5  -3   -0.70    7.49
   5  -5  -3    5.79    3.35
   0  -5  -3    5.62    3.98
   5  -5   3   11.23    6.33
   0  -5   3   -0.04    7.23
  -5   0   3    9.28    5.02
   5  -5   4   52.45   10.87
   5   0   4   82.75   27.59
   0   5   4   59.20   12.11
  -5   5   4   67.96    9.66
  -5   0   4   74.37    8.72
   5   0  -4   60.51   12.71
   0   5  -4   56.76   22.85
  -5   5  -4   59.15    7.10
  -5   0  -4   72.01    9.07
   0  -5  -4   57.32   10.39
   5  -5  -4   62.61   17.64
   0  -5  -4   67.55    7.17
   5  -5   4   62.91   12.45
   0  -5   4   72.09   14.29
  -5   0   4   70.48   10.86
   5   0   5    7.01    5.96
   5  -5   5    1.32    2.10
   0   5   5   -2.72    7.19
  -5   0   5    8.81    5.97
   0   5  -5    7.45    3.52
   5   0  -5    3.16    2.10
  -5   0  -5    4.36    7.33
   0  -5  -5    8.16    6.81
   5  -5  -5    3.81    2.17
   0  -5  -5    3.06    1.32
   5  -5   5    5.07    9.87
   0  -5   5    0.56    7.24
   5   0   6  270.72   37.86
   0   5   6  319.00   43.44
  -5   5   6  223.99   30.12
  -5   0   6  304.84   39.38
   0   5  -6  293.43   38.53
  -5   5  -6  252.90   33.50
  -5   0  -6  270.69   36.22
   0  -5  -6  333.69   43.94
   5   0  -6  199.83   29.99
   5  -5  -6  300.63   57.07
   5  -5   6  267.42   37.45
   0  -5   6  327.11   45.48
   5   0   7    2.56    6.09
   0   5   7    4.00    7.38
  -5   5   7    5.40    6.98
  -5   0   7    1.85    3.54
   0   5  -7    1.48    2.85
  -5   5  -7    2.05    6.06
  -5   0  -7   -1.75    5.44
   0  -5  -7    0.84    5.32
   5   0  -7    2.60    3.28
   5  -5  -7    2.86    2.82
   5  -5   7    1.75    5.86
   0  -5   7    8.87   11.82
  -6   5   0  200.53   16.21
  -5  -1   0  206.01   17.79
  -6   5   0  195.88   12.88
  -5  -1   0  205.84   17.64
   1  -6   0  140.52   14.06
   5   1   0  177.68   12.78
   6  -5   0  201.43   17.74
   1  -6   0  152.47   14.55
   5   1   1  230.08   19.27
  -1   6   1  170.35   15.21
  -1   6  -1  162.62   11.02
  -6   5   1  194.89   15.65
  -6   5  -1  190.73   16.12
  -5  -1   1  234.75   19.68
  -1   6  -1  166.63   14.38
  -6   5  -1  196.23   13.41
  -6   5   1  199.02   12.37
  -5  -1  -1  183.83   15.79
  -5  -1   1  197.42   18.20
   1  -6  -1  227.85   20.83
   5   1   1  155.45   10.30
   6  -5  -1  196.08   16.00
   6  -5   1  221.22   18.52
   1  -6  -1  226.95   18.90
   1  -6   1  204.22   18.36
  -5  -1   1  171.51   13.68
   5   1   2   -0.24    4.64
  -1   6   2    8.20    7.68
  -6   5   2    2.87    4.85
  -5  -1   2    1.04    5.24
  -6   5  -2   11.64    8.37
  -1   6  -2    5.74    2.42
  -6   5  -2    3.85    3.53
  -5  -1  -2   -1.86    5.26
   1  -6  -2    8.10    7.45
  -5  -1   2    5.22    6.56
   6  -5  -2   -0.08    4.25
   1  -6  -2    6.94    5.01
   6  -5   2    6.19    5.97
   1  -6   2    3.95    7.95
  -5  -1   2    3.94    4.25
   6  -5   3  135.91   17.51
   5   1   3  171.63   28.42
  -1   6   3  161.22   21.64
  -6   5   3  177.46   19.08
  -5  -1   3  199.41   20.47
   5   1  -3  166.21   19.10
  -1   6  -3  146.99   16.69
  -6   5  -3  168.89   16.76
  -5  -1  -3  178.00   19.43
   1  -6  -3  193.31   23.16
   6  -5  -3  166.25   18.61
   1  -6  -3  192.83   19.33
   6  -5   3  149.85   18.41
   1  -6   3  198.34   24.30
  -5  -1   3  154.91   17.70
   6  -5   4  143.43   16.53
  -1   6   4  110.10   15.74
  -6   5   4  184.30   20.00
  -5  -1   4  205.98   21.38
   5   1  -4  165.48   16.37
  -1   6  -4  107.33   37.31
  -6   5  -4  177.23   18.34
  -5  -1  -4  186.31   20.65
   1  -6  -4  152.53   19.90
   6  -5  -4  172.99   19.72
   1  -6  -4  155.11   15.92
   6  -5   4  144.21   18.53
   1  -6   4  134.36   19.35
  -5  -1   4  174.03   20.28
   6  -5   5   96.54   14.49
   5   1   5  126.11   45.51
  -1   6   5   89.11   18.69
  -6   5   5  107.09   16.06
  -5  -1   5  123.61   16.99
   5   1  -5   82.91   22.79
  -1   6  -5  102.09   37.15
  -6   5  -5  114.61   16.28
  -5  -1  -5  115.61   17.92
   1  -6  -5   98.93   16.85
   6  -5  -5  116.69   18.78
   1  -6  -5  109.46   17.06
   6  -5   5  102.72   17.10
   1  -6   5  121.54   22.13
  -5  -1   5   93.22   15.94
   5   1   6    6.49    7.90
  -1   6   6   -4.65    7.41
  -6   5   6    6.64    5.48
  -5  -1   6    3.90    4.93
  -1   6  -6    2.71    2.81
  -5  -1  -6   11.49    8.84
   1  -6  -6    2.42    4.90
   6  -5  -6    3.86    2.11
   6  -5   6   -1.08    5.09
   1  -6   6   -1.53    8.40
   5   1   7   79.99   20.07
  -1   6   7   72.07   18.09
  -6   5   7   70.20   15.49
  -1   6  -7   44.64   25.96
  -6   5  -7   82.13   18.79
  -5  -1  -7   96.18   20.45
   6  -5  -7   95.77   23.94
   1  -6   7   77.60   20.34
  -5  -1   7   63.95   16.10
   4   2   0  249.68   20.00
  -2   6   0  258.79   17.49
  -6   4   0  230.65   18.29
  -2   6   0  278.59   20.33
  -6   4   0  227.24   14.65
  -4  -2   0  219.06   19.88
   6  -4   0  242.33   18.33
   2  -6   0  280.60   22.03
   4   2   1   29.28    7.99
  -2   6   1   40.93   19.67
  -2   6  -1   31.70    3.26
  -6   4   1   29.34    6.24
  -6   4  -1   32.44    7.72
  -4  -2   1   27.27    7.06
  -2   6  -1   44.03   17.30
  -6   4  -1   32.01    4.43
  -6   4   1   28.06    2.69
  -4  -2  -1   23.12    7.57
  -4  -2   1   34.07    9.64
   2  -6  -1   39.64    7.73
   4   2   1   21.23    6.63
   6  -4  -1   35.32   13.85
   6  -4   1   31.78    6.74
   2  -6  -1   39.20    7.59
   2  -6   1   42.56    9.59
  -4  -2   1   25.55    4.53
   4   2   2   23.58    8.25
  -2   6   2    8.61    4.36
  -6   4   2   17.49    6.28
  -4  -2   2   23.48    5.63
  -6   4  -2   23.44    8.39
  -2   6  -2   13.16    5.51
  -6   4  -2   13.78    4.06
  -4  -2  -2   17.95    5.61
   2  -6  -2   19.05    8.04
  -4  -2   2   20.32    8.01
   6  -4  -2   13.60    5.61
   2  -6  -2   17.88    5.43
   6  -4   2   10.94    4.98
  -4  -2   2   29.57    6.75
   6  -4   3   27.54   11.02
   4   2   3   27.40    9.12
  -2   6   3   31.12    8.48
  -6   4   3   25.36    7.56
  -4  -2   3   22.50    5.09
   4   2  -3   27.67    9.16
  -2   6  -3   29.76   12.16
  -6   4  -3   29.94    6.01
  -4  -2  -3   28.78    7.54
   2  -6  -3   46.51   11.22
   6  -4  -3   32.33   14.52
   2  -6  -3   36.42    6.94
   6  -4   3   20.76    7.01
   2  -6   3   44.18   11.55
  -4  -2   3   23.11   10.77
   6  -4   4  190.17   17.74
   4   2   4  238.24   57.27
  -2   6   4  220.55   20.45
  -6   4   4  219.51   18.99
  -4  -2   4  221.87   17.38
   4   2  -4  177.75   19.29
  -2   6  -4  234.83   31.69
  -6   4  -4  222.92   17.49
  -4  -2  -4  209.75   19.12
   2  -6  -4  288.80   25.15
   2  -6  -4  267.41   20.21
   6  -4   4  208.29   20.97
   2  -6   4  260.10   25.32
  -4  -2   4  167.54   16.69
   6  -4   5   18.46    6.58
   4   2   5   14.76    7.55
  -2   6   5   21.26    9.70
  -6   4   5   17.49   11.82
  -4  -2   5   18.06    3.88
   4   2  -5   13.17    6.49
  -2   6  -5   23.51   11.85
  -6   4  -5   13.28    5.02
  -4  -2  -5   29.30    8.65
   2  -6  -5   26.11    8.57
   6  -4  -5   22.00    6.95
   2  -6  -5   21.45   10.61
   6  -4   5   22.19    7.54
   2  -6   5   18.80   11.52
  -4  -2   5   12.65    7.00
   6  -4   6    0.40    2.07
   4   2   6    1.53    7.60
  -2   6   6    2.97    3.55
  -6   4   6    1.67    3.28
  -4  -2   6    2.73    3.30
   4   2  -6    0.15    1.78
  -2   6  -6    0.73    2.42
  -4  -2  -6    2.31    6.17
   2  -6  -6    1.79    4.58
   6  -4  -6    8.40    4.15
   2  -6  -6    1.06    1.70
   6  -4   6    2.98    5.49
   2  -6   6    3.29    8.99
  -4  -2   6   -2.46    7.12
   4   2   7   17.38   11.07
  -2   6   7   19.09    8.33
  -6   4   7   14.99    6.21
  -2   6  -7   15.71    6.97
  -6   4  -7   15.43    6.43
  -4  -2  -7   11.62    8.77
   6  -4  -7   20.79    7.68
   2  -6   7   17.23    8.79
  -4  -2   7    6.42    7.19
   3   3   0   25.97    7.24
  -3   6   0   14.40    3.91
  -6   3   0   31.46    7.68
  -3   6   0   21.50    9.51
  -6   3   0   22.19    3.14
  -3  -3   0    9.95    7.52
   6  -3   0   28.95   12.30
   3  -6   0   16.16    6.91
  -3  -3   0   19.73    4.03
   3   3   1  547.10   36.48
  -3   6   1  410.66   26.80
  -3   6  -1  378.75   23.29
  -6   3   1  459.33   30.75
  -6   3  -1  526.97   36.82
  -3   6   1  445.66   31.86
  -3   6  -1  431.68   27.98
  -6   3  -1  454.29   28.23
  -6   3   1  449.72   27.35
   6  -3  -1  436.51   28.81
   6  -3   1  423.17   27.94
   3  -6  -1  475.43   32.16
  -3  -3   1  461.83   30.37
  -3  -3  -1  439.16   27.06
   3   3   2  634.32   56.07
  -3   6   2  548.05   35.63
  -6   3   2  575.27   37.14
  -3  -3   2  637.68   54.69
  -6   3  -2  577.40   40.60
  -3   6  -2  554.16   34.91
  -6   3  -2  598.65   50.96
  -3  -3  -2  566.81   37.81
   3  -6  -2  614.33   53.34
  -3  -3   2  566.45   38.66
   6  -3  -2  557.72   38.38
   3  -6  -2  602.92   52.34
   6  -3   2  463.11   30.92
   3  -6   2  605.85   54.04
  -3  -3   2  574.81   37.73
   6  -3   3  244.83   25.32
   3   3   3  304.65   30.38
  -3   6   3  250.35   24.90
  -6   3   3  285.69   27.52
  -3  -3   3  355.47   31.92
   3   3  -3  277.37   26.31
  -3   6  -3  259.13   24.56
  -6   3  -3  274.92   25.25
  -3  -3  -3  287.64   27.96
   3  -6  -3  307.30   29.53
   6  -3  -3  287.73   28.11
   3  -6  -3  292.38   31.91
   6  -3   3  212.65   21.07
   3  -6   3  302.22   31.53
  -3  -3   3  284.33   28.60
   6  -3   4   25.76    9.90
   3   3   4   25.59   12.61
  -3   6   4   20.97    7.98
  -6   3   4   35.30    7.95
  -3  -3   4   23.36    4.24
   3   3  -4   24.26    7.68
  -3   6  -4   22.24    7.45
  -6   3  -4   28.44    5.73
  -3  -3  -4   22.89    9.04
   3  -6  -4   17.46    6.21
   6  -3  -4   32.92   15.11
   3  -6  -4   26.66   13.14
   6  -3   4   41.29    8.15
   3  -6   4   28.52   14.93
  -3  -3   4   21.01    8.59
   6  -3   5  240.89   26.81
   3   3   5  307.92   33.83
  -3   6   5  236.28   31.85
  -6   3   5  296.77   30.37
   3   3  -5  270.37   32.23
  -3   6  -5  263.15   26.63
  -6   3  -5  288.61   28.88
  -3  -3  -5  326.63   33.92
   3  -6  -5  248.58   26.50
   3  -6  -5  305.97   30.01
   3  -6   5  264.49   29.88
   6  -3   5  269.31   26.91
  -3  -3   5  264.50   28.85
   6  -3   6  340.25   45.09
   3   3   6  370.25   86.59
  -3   6   6  324.98   43.32
  -6   3   6  375.34   86.42
   3   3  -6  336.70   44.17
  -3   6  -6  301.32   39.10
  -6   3  -6  353.08   45.32
  -3  -3  -6  421.95   97.26
   6  -3  -6  367.27   85.61
   3  -6  -6  383.06   87.69
   3  -6   6  383.00   89.87
  -3  -3   6  367.33   85.39
   6  -3   7  132.42   27.90
   3   3   7  146.07   31.87
  -6   3   7  155.75   32.16
   3   3  -7  115.48   26.99
  -3   6  -7  117.74   24.40
  -6   3  -7  139.87   30.86
  -3  -3  -7  185.01   34.69
   6  -3  -7  129.39   44.42
   3  -6  -7  136.68   35.11
   3  -6   7  155.12   34.47
  -3  -3   7  156.40   34.54
   2   4   0  372.84   25.17
  -4   6   0  234.67   16.29
  -6   2   0  319.17   23.97
  -4   6   0  260.11   20.44
  -6   2   0  290.26   19.34
   6  -2   0  264.50   20.18
  -2  -4   0  375.21   25.83
   2   4  -1    1.40    1.17
   2   4   1    5.51    3.32
  -4   6   1    4.27    3.01
  -4   6  -1    2.79    2.48
  -6   2  -1   10.36    6.88
  -4   6   1    5.16    1.93
  -4   6  -1    4.83    1.84
  -6   2  -1    2.76    3.23
  -6   2   1    3.11    2.25
  -2  -4  -1    9.20   12.13
  -2  -4   1    6.76    7.66
   6  -2  -1    6.82    2.86
   6  -2   1    3.54    1.17
   4  -6  -1    1.75    5.56
   4  -6   1    4.12    7.15
  -2  -4  -1    5.13    2.80
  -2  -4   1    4.47    6.54
   6  -2   2    1.94    2.83
   2   4  -2    3.42    1.58
   2   4   2    0.81    3.31
  -4   6   2    4.32    4.44
  -6   2   2    9.51    6.86
  -4   6  -2    5.17    2.79
   2   4  -2    3.66    3.44
  -4   6   2    2.82    2.23
  -4   6  -2    5.31    3.17
  -6   2  -2    2.09    3.53
  -2  -4  -2    1.08    6.81
  -6   2   2    4.52    2.39
   6  -2  -2    1.05    2.30
   4  -6  -2    4.61    2.82
   6  -2   2    3.06    3.14
   4  -6   2    3.85    7.20
  -2  -4  -2    2.61    2.62
  -2  -4   2    2.29    7.88
   6  -2   3   11.30    5.63
   2   4   3    4.79    6.55
  -4   6   3   14.13    6.60
  -6   2   3   10.80    5.66
   2   4  -3    7.84    4.31
  -4   6  -3   16.53    4.85
  -6   2  -3   15.75    5.38
  -2  -4  -3    4.00    9.66
   4  -6  -3   10.36    3.66
   6  -2  -3   18.85    6.02
   4  -6  -3   15.06    4.12
   6  -2   3   11.76    4.39
   4  -6   3   11.91    7.45
  -2  -4   3    4.38    6.77
   6  -2   4  175.84   40.22
   2   4   4  226.63   25.19
  -6   2   4  202.09   17.46
   2   4  -4  199.73   17.08
  -4   6  -4  142.57   18.00
  -6   2  -4  182.09   15.40
  -2  -4  -4  213.07   19.12
   6  -2  -4  172.95   17.87
   4  -6  -4  181.99   40.50
   4  -6   4  173.75   20.50
  -2  -4   4  206.27   20.27
   6  -2   5    4.07    6.06
   2   4   5    5.58    7.39
  -4   6   5    3.19    4.55
  -6   2   5    0.00    4.13
   2   4  -5    2.79    2.04
  -4   6  -5    1.71    4.40
  -6   2  -5    1.22    4.74
  -2  -4  -5   -1.01    5.91
   6  -2  -5    3.13    3.52
   4  -6  -5    1.74    2.50
   4  -6   5    4.61    8.13
   6  -2   6    2.49    2.02
   2   4   6    2.37    7.96
  -4   6   6    6.03    6.02
  -6   2   6    6.64    4.62
   2   4  -6    0.94    2.11
  -4   6  -6    2.44    4.47
  -6   2  -6    3.80    4.78
  -2  -4  -6    1.79    6.38
   4  -6  -6    5.03    2.36
   4  -6   6    5.83    8.05
  -2  -4   6    4.67    8.10
   6  -2   7   -0.06    5.11
   2   4   7   -2.94    7.08
  -4   6   7    6.01    5.75
  -6   2   7    5.32    5.94
   2   4  -7    2.25    3.51
  -4   6  -7    5.32    7.35
  -6   2  -7    1.71    5.88
  -2  -4  -7    3.63    5.93
   6  -2  -7   -2.24    4.38
   4  -6  -7    2.99    2.74
   4  -6   7    6.84    7.88
  -2  -4   7    1.22    7.43
   1   5   0   43.87   13.57
  -5   6   0   86.65    9.03
  -5   6   0   83.94    7.21
  -6   1   0   84.93    8.54
  -1  -5   0   53.75   12.58
   6  -1   0   83.70    7.65
   5  -6   0   79.47    9.87
  -1  -5   0   56.36    8.69
   1   5  -1  111.85    9.40
   1   5   1  112.33   11.90
  -5   6   1  107.76   10.41
  -5   6  -1   96.70    9.05
  -6   1   1  116.36   12.24
  -6   1  -1  133.38   15.82
  -5   6   1  106.06    8.89
  -5   6  -1  111.54    8.93
  -6   1  -1  110.18   10.44
  -6   1   1  121.99   11.92
  -1  -5  -1  118.07   16.27
  -1  -5   1  102.87   12.56
   6  -1  -1  108.68   13.49
   6  -1   1   92.56    7.86
   5  -6  -1  117.64   12.24
   5  -6   1  122.21   14.54
  -1  -5  -1  121.97   11.35
  -1  -5   1  115.03   12.48
   6  -1   2   69.54   13.72
   1   5   2   50.11    8.42
  -5   6   2   69.45    9.15
  -6   1   2   55.41    8.41
  -5   6  -2   48.15    6.61
   1   5  -2   51.26   20.10
  -5   6   2   57.66    5.68
  -5   6  -2   66.67    7.38
  -6   1  -2   63.22    8.33
  -1  -5  -2   67.59   13.36
  -6   1   2   43.37    6.97
   6  -1  -2   60.81   13.44
   5  -6  -2   67.86   19.89
   5  -6   2   76.41   13.46
  -1  -5  -2   48.31    6.28
  -1  -5   2   48.07    9.84
   5  -6   3   44.33    7.87
   6  -1   3   66.05   22.89
   1   5   3   53.60   10.39
  -5   6   3   58.62   10.21
  -6   1   3   65.06    9.46
   6  -1  -3   49.93   16.85
   1   5  -3   50.89   20.45
  -5   6  -3   56.74    7.66
  -6   1  -3   58.43    8.86
  -1  -5  -3   70.20   12.44
   6  -1  -3   62.75   26.85
   5  -6  -3   70.69   21.23
  -1  -5  -3   67.81    8.29
   5  -6   3   67.20   13.20
  -1  -5   3   62.28   12.57
   6  -1   4   73.24   21.54
   1   5   4   30.19    9.44
  -5   6   4   60.77   10.10
  -6   1   4   71.27    9.68
   1   5  -4   31.62   12.03
  -5   6  -4   55.38   20.04
  -6   1  -4   56.31    8.52
  -1  -5  -4   34.28    9.48
   6  -1  -4   65.93   10.68
   5  -6  -4   61.77   18.53
   5  -6   4   41.69   12.83
  -1  -5   4   28.50    8.88
   6  -1   5   79.49   30.79
   1   5   5   70.36   14.84
  -5   6   5   65.29   12.28
  -6   1   5   90.77   14.01
   1   5  -5   67.57   32.76
  -5   6  -5   76.90   12.80
  -1  -5  -5   73.87   15.04
   6  -1  -5   63.76   30.55
   5  -6  -5   84.72   16.82
   5  -6   5   72.20   15.02
   6  -1   6   26.75   10.66
   1   5   6   29.81   12.98
  -5   6   6   24.60    9.62
  -6   1   6   32.76    9.92
   1   5  -6   21.58    8.93
  -5   6  -6   26.67    8.47
  -6   1  -6   22.05    7.77
  -1  -5  -6   19.14    7.61
   6  -1  -6   20.81   10.52
   5  -6  -6   28.62   10.55
   5  -6   6   30.96   12.58
  -1  -5   6   19.46    9.43
   6  -1   7   29.74    9.86
  -5   6   7   26.64    9.44
  -6   1   7   43.22   10.72
   1   5  -7   22.48   10.72
  -5   6  -7   27.25   15.12
  -6   1  -7   39.74   10.77
  -1  -5  -7   32.24   10.62
   5  -6  -7   30.33   20.91
   5  -6   7   31.97   12.13
  -1  -5   7   24.02   10.17
   0   6   0   52.64    6.91
  -6   6   0   50.83    7.93
  -6   0   0   58.44   11.02
  -6   6   0   52.29    6.05
  -6   0   0   50.19    7.96
   0  -6   0   67.59   11.25
   6   0   0   47.49   10.85
   6  -6   0   54.40    8.30
   0  -6   0   66.40    9.46
   6   0   1   24.37   10.57
   0   6   1   15.70    6.32
   0   6  -1   13.24    2.78
  -6   6   1   20.10    7.14
  -6   6  -1   20.05    6.89
  -6   0   1   20.64    9.68
  -6   6   1   15.95    6.16
  -6   6  -1   15.98    8.20
  -6   0  -1   14.36    5.72
  -6   0   1    9.02    5.01
   0  -6  -1   11.45   11.62
   6   0  -1   17.19    6.92
   6   0   1    9.98    3.06
   6  -6  -1   24.44    8.91
   6  -6   1   17.54    9.75
   0  -6  -1   14.45    5.71
   0  -6   1   14.67    6.30
   6   0   2  389.74   37.69
   0   6   2  270.68   26.38
  -6   6   2  325.06   30.52
  -6   0   2  360.66   34.24
  -6   6  -2  303.69   29.18
   0   6  -2  253.09   25.92
  -6   6  -2  308.81   27.56
  -6   0  -2  333.21   31.37
   0  -6  -2  397.56   40.48
  -6   0   2  322.82   31.06
   6   0  -2  297.88   28.97
   6  -6  -2  310.93   29.10
   6  -6   2  339.15   34.71
   0  -6  -2  389.24   35.59
   0  -6   2  324.96   32.74
   6  -6   3    8.72    4.45
   0   6   3    6.75    8.27
  -6   6   3    9.41    5.08
  -6   0   3    5.11    5.37
   0   6  -3   12.58    6.89
  -6   6  -3    8.08    3.36
  -6   0  -3   12.94    5.41
   0  -6  -3    3.67   10.57
   6   0  -3    7.82    3.44
   6  -6  -3   12.94    4.44
   0  -6  -3   12.12    5.35
   6  -6   3    5.22    8.07
   0  -6   3   10.91    9.73
   6  -6   4   51.90   15.11
   6   0   4   50.74   15.61
   0   6   4   60.90   11.92
  -6   6   4   46.41    9.61
  -6   0   4   55.64    8.87
   6   0  -4   34.57   12.09
   0   6  -4   56.91   20.04
  -6   6  -4   52.32    8.17
  -6   0  -4   54.16    8.78
   0  -6  -4   55.36   10.81
   6   0  -4   40.26   21.80
   6  -6  -4   51.43   12.82
   0  -6  -4   75.61    9.73
   6  -6   4   54.59   12.69
   0  -6   4   54.78   11.22
   6   0   5    3.70    2.94
   0   6   5    7.28    9.46
  -6   6   5   11.77    5.52
  -6   0   5    6.56    4.61
   0   6  -5   10.87    8.39
  -6   6  -5   17.68    6.51
  -6   0  -5   11.16    7.43
   0  -6  -5   18.50   10.55
   6   0  -5    3.54    6.23
   6  -6  -5   14.80    6.84
   6  -6   5   16.54    8.12
   0  -6   5   11.03   11.05
   6   0   6  211.38   47.98
   0   6   6  194.19   37.94
  -6   0   6  237.42   43.40
   0   6  -6  177.17   41.62
  -6   6  -6  209.07   38.74
  -6   0  -6  218.62   40.78
   0  -6  -6  201.37   38.48
   6   0  -6  156.02   31.07
   6  -6  -6  220.89   54.39
   6  -6   6  190.04   37.27
   0  -6   6  207.85   41.22
   6   0   7    6.86    7.86
   0   6   7   10.18   10.98
  -6   6   7    7.83    5.31
  -6   0   7    2.74    3.65
   0   6  -7    5.76    5.40
  -6   6  -7    6.38    7.07
  -6   0  -7    2.25    6.34
   0  -6  -7    1.99    5.66
   6   0  -7    1.97    5.25
   6  -6  -7    9.05    4.24
   6  -6   7    7.50    6.62
   0  -6   7   -3.37    8.99
  -1   7   0  331.44   29.60
  -7   6   0  292.66   28.21
  -1   7   0  357.40   33.67
  -7   6   0  317.99   28.35
  -6  -1   0  386.74   37.68
   6   1   0  254.48   23.27
   7  -6   0  343.41   33.32
   1  -7   0  412.35   39.06
   6   1   1  349.89   34.16
  -1   7   1  276.62   26.60
  -7   6   1  287.29   27.66
  -7   6  -1  268.07   26.78
  -6  -1   1  368.53   35.75
  -1   7  -1  271.59   26.57
  -7   6  -1  274.15   24.28
  -6  -1  -1  291.16   28.46
  -6  -1   1  380.62   31.69
   1  -7  -1  424.61   41.95
   6   1  -1  237.60   24.24
   7  -6  -1  284.02   27.83
   7  -6   1  314.81   31.79
   1  -7  -1  382.72   36.05
   1  -7   1  375.88   37.02
   6   1   2   35.10   14.03
  -1   7   2   14.09    7.44
  -7   6   2   20.84    7.36
  -6  -1   2   40.30    9.21
  -7   6  -2   26.32    8.72
  -7   6  -2   22.85    4.66
  -6  -1  -2   26.32    6.80
   1  -7  -2   20.68   11.52
  -6  -1   2   28.96    7.75
   6   1  -2   16.52    4.06
   7  -6  -2   22.68    7.87
   7  -6   2   29.37   10.70
   1  -7  -2   14.81    5.00
   1  -7   2   27.01   10.60
   7  -6   3  172.44   26.86
   6   1   3  223.44   40.86
  -1   7   3  199.28   22.59
  -7   6   3  204.96   22.13
  -6  -1   3  236.92   24.85
   6   1  -3  175.05   33.55
  -1   7  -3  158.27   26.09
  -7   6  -3  211.38   20.89
  -6  -1  -3  228.87   24.37
   1  -7  -3  277.17   31.93
   7  -6  -3  202.72   21.33
   1  -7  -3  274.93   27.12
   7  -6   3  187.90   22.63
   1  -7   3  243.93   27.02
  -6  -1   3  175.25   19.74
   7  -6   4  173.70   33.57
  -1   7   4  230.93   37.04
  -7   6   4  221.89   30.05
  -6  -1   4  214.01   27.92
   6   1  -4  147.52   30.98
  -1   7  -4  206.50   27.11
  -7   6  -4  212.20   27.35
  -6  -1  -4  219.07   29.84
   1  -7  -4  316.22   42.88
   7  -6  -4  237.83   31.27
   1  -7  -4  308.04   38.49
   7  -6   4  174.18   25.50
  -6  -1   4  170.02   24.12
   7  -6   5  152.62   35.00
   6   1   5  231.16   71.01
  -1   7   5  182.16   27.36
  -7   6   5  175.62   28.08
  -6  -1   5  202.23   27.38
  -1   7  -5  177.86   26.24
  -7   6  -5  176.49   25.09
  -6  -1  -5  218.21   30.89
   1  -7  -5  223.30   33.28
   7  -6  -5  205.22   36.76
   7  -6   5  170.12   26.42
   1  -7   5  197.23   30.57
  -6  -1   5  174.45   25.79
   6   1   6   14.90    9.09
  -1   7   6    7.03    8.27
  -7   6   6   19.19    7.08
  -6  -1   6   18.30    5.73
  -1   7  -6    9.31    5.40
  -7   6  -6   11.94    7.12
  -6  -1  -6   19.83    9.51
   1  -7  -6   12.46    8.29
   6   1  -6   13.72    5.45
   7  -6  -6   15.26    7.73
   7  -6   6   15.60    8.55
   1  -7   6    3.17    8.21
   5   2   0  178.26   19.90
  -2   7   0  122.07   12.43
  -7   5   0  132.85   15.51
  -2   7   0  124.35   21.16
  -7   5   0  136.03   12.54
  -5  -2   0  156.79   19.99
   7  -5   0  133.54   17.16
   2  -7   0  137.97   16.97
  -5  -2   0  111.87   11.62
   5   2   1  215.56   22.72
  -2   7   1  130.88   14.12
  -7   5   1  176.78   19.02
  -7   5  -1  177.64   19.90
  -5  -2   1  240.15   25.29
  -2   7  -1  143.71   17.41
  -7   5  -1  177.27   16.51
  -5  -2  -1  182.47   20.28
  -5  -2   1  243.82   27.44
   2  -7  -1  186.69   20.73
   7  -5  -1  165.59   19.20
   7  -5   1  180.13   20.35
   2  -7  -1  204.82   21.70
   2  -7   1  193.95   21.46
  -5  -2   1  162.45   16.78
   5   2   2  363.90   29.45
  -2   7   2  270.42   22.01
  -7   5   2  319.77   25.10
  -5  -2   2  414.39   31.45
  -7   5  -2  340.92   29.53
  -2   7  -2  265.87   26.16
  -7   5  -2  323.76   23.31
  -5  -2  -2  307.94   24.72
   2  -7  -2  397.32   32.29
  -5  -2   2  352.93   29.35
   7  -5  -2  310.65   24.54
   2  -7  -2  394.98   30.28
   7  -5   2  314.22   26.74
   2  -7   2  374.11   31.36
  -5  -2   2  307.95   24.29
   7  -5   3  122.97   16.33
   5   2   3  205.93   23.68
  -2   7   3  120.59   16.00
  -7   5   3  166.66   18.80
  -5  -2   3  224.06   23.29
   5   2  -3  160.18   32.47
  -7   5  -3  159.75   16.38
   2  -7  -3  206.24   24.50
   7  -5  -3  151.78   17.96
   2  -7  -3  176.67   18.69
   7  -5   3  127.63   17.16
  -5  -2   3  160.58   18.89
   7  -5   4   52.75    9.86
   5   2   4   65.81   21.32
  -2   7   4   50.27   11.21
  -7   5   4   63.80   16.48
  -5  -2   4   65.80    9.25
   5   2  -4   43.94   13.99
  -2   7  -4   51.43   24.20
  -7   5  -4   69.87   10.16
  -5  -2  -4   81.63   13.64
   2  -7  -4   73.09   16.19
   7  -5  -4   82.17   24.54
   2  -7  -4   77.40   10.85
   7  -5   4   49.59   10.57
   2  -7   4   67.22   15.64
  -5  -2   4   51.74    9.76
   7  -5   5   75.74   16.54
  -2   7   5   83.13   15.96
  -7   5   5   90.78   16.06
  -5  -2   5  121.50   16.71
   5   2  -5   78.32   20.65
  -2   7  -5   97.90   33.33
  -7   5  -5   97.98   14.86
  -5  -2  -5  134.47   20.68
   2  -7  -5  106.85   18.13
   7  -5  -5  102.58   37.56
   2  -7  -5  104.36   14.67
   7  -5   5   83.05   15.50
   2  -7   5  112.33   20.41
  -5  -2   5  106.49   18.02
   7  -5   6   99.95   44.43
   5   2   6  171.80   35.91
  -2   7   6  100.93   39.80
  -7   5   6  150.11   29.06
  -2   7  -6  119.71   33.32
  -7   5  -6  143.52   27.83
  -5  -2  -6  161.52   32.03
   7  -5  -6  167.12   33.09
   2  -7   6  156.61   33.39
  -5  -2   6  139.77   28.95
   5   2   7   61.16   37.57
  -2   7   7   50.29   28.37
  -7   5   7   68.79   15.90
  -2   7  -7   51.67   31.07
  -5  -2  -7   96.33   21.28
   7  -5  -7   64.98   27.34
   2  -7   7   65.37   19.80
   4   3   0   78.45   26.21
  -3   7   0   29.06    4.13
  -7   4   0   38.17    8.66
  -3   7   0   32.25   11.55
  -7   4   0   39.17    4.26
  -4  -3   0   78.99   14.56
   7  -4   0   45.22   13.67
   3  -7   0   51.37   10.73
   4   3  -1  118.37   25.08
   4   3   1   97.36   31.66
  -3   7   1   79.50    8.63
  -3   7  -1   69.90    5.84
  -7   4   1   82.04   10.80
  -7   4  -1   88.06   13.22
  -3   7   1   94.69    9.71
  -3   7  -1   94.90   12.63
  -7   4  -1   82.97    7.62
  -7   4   1   77.42    6.26
  -4  -3  -1  102.03   13.49
  -4  -3   1  112.81   15.79
   7  -4  -1   81.94    9.45
   7  -4   1  101.70   13.15
   3  -7  -1  108.67   12.78
   3  -7   1   99.70   12.08
  -4  -3   1   78.81    9.18
  -4  -3  -1   79.72    6.80
   4   3   2   75.61   26.66
  -3   7   2   34.08    7.09
  -7   4   2   59.87    9.68
  -7   4  -2   98.40   18.04
  -4  -3   2   75.53   10.36
  -3   7  -2   29.25   13.10
  -7   4  -2   62.84    7.69
  -4  -3   2   76.28   13.06
   3  -7  -2   48.80    8.73
   7  -4  -2   57.19   16.14
   3  -7  -2   40.09    7.64
   7  -4   2   59.19   10.30
  -4  -3   2   68.80   10.68
   7  -4   3   74.73   11.41
   4   3   3  112.64   41.37
  -3   7   3   89.23   12.75
  -4  -3   3  117.74   12.17
   4   3  -3   89.18   21.41
  -3   7  -3   85.26   12.95
  -7   4  -3   81.33    9.13
  -4  -3  -3   89.61   11.31
   3  -7  -3  119.48   13.44
   7  -4  -3   98.41   32.99
   3  -7  -3  113.41   11.88
   7  -4   3   67.22    9.54
   3  -7   3  128.78   17.43
  -4  -3   3   92.80   11.43
   7  -4   4   18.66   14.01
   4   3   4   51.84   17.89
  -3   7   4   23.73    9.87
  -7   4   4   39.36    8.51
  -4  -3   4   61.54    9.20
   4   3  -4   37.76   10.78
  -7   4  -4   26.79    8.92
  -4  -3  -4   44.34    9.01
   3  -7  -4   49.30   12.23
   7  -4  -4   35.98   13.68
   3  -7  -4   27.27   16.20
   7  -4   4   20.04    7.05
   3  -7   4   37.97   13.02
  -4  -3   4   53.60   10.15
   7  -4   5   34.14   14.97
   4   3   5   47.56   13.32
  -3   7   5   40.46   19.11
  -7   4   5   35.38    7.89
   4   3  -5   29.00    8.88
  -3   7  -5   38.10   15.87
  -7   4  -5   31.75    7.17
  -4  -3  -5   59.13   13.15
   3  -7  -5   38.90    9.34
   7  -4  -5   52.36   21.45
   3  -7  -5   45.80   12.25
   7  -4   5   34.06    7.75
   3  -7   5   57.94   15.07
  -4  -3   5   44.35   21.67
   7  -4   6   28.09   12.97
  -3   7   6   14.97    8.42
  -7   4   6   37.24   16.47
   4   3  -6   27.26   10.74
  -3   7  -6   15.64    7.69
  -7   4  -6   22.21    7.25
  -4  -3  -6   47.51   14.16
   7  -4  -6   33.95   17.27
   3  -7  -6   16.32    7.42
   3  -7   6   18.42    9.08
  -4  -3   6   33.95   10.70
   4   3   7   22.24   11.49
  -3   7   7   31.86   12.51
  -7   4   7   28.26    9.05
  -3   7  -7   22.81   18.31
  -7   4  -7   25.56    8.20
  -4  -3  -7   33.70   12.78
   7  -4  -7   28.20   15.95
   3  -7   7   35.59   12.44
  -4  -3   7   23.64   10.02
   3   4   0   34.23   11.31
  -4   7   0   44.70    5.45
  -7   3   0   34.77    7.49
  -4   7   0   45.92    5.59
  -7   3   0   28.49    4.90
  -3  -4   0   27.07   10.30
   7  -3   0   38.26   16.69
   4  -7   0   42.53    8.47
  -3  -4   0   21.82    5.37
   3   4  -1   -0.07    1.36
   3   4   1    3.08    2.87
  -4   7   1    2.61    3.80
  -7   3   1    7.79    5.83
  -7   3  -1   -0.77    8.67
  -4   7   1    2.25    2.15
  -4   7  -1    1.45    1.10
  -7   3  -1    2.99    2.87
  -7   3   1    1.06    1.82
  -3  -4   1    6.15    9.25
   7  -3   1    4.83    3.85
   4  -7  -1    7.02    9.77
   4  -7   1    2.14    7.91
  -3  -4  -1    5.10    3.43
  -3  -4   1    1.97    4.26
   3   4  -2  106.11   19.07
   3   4   2   76.52   35.87
  -4   7   2   92.61   11.77
  -7   3  -2  127.02   18.72
   3   4  -2   74.26   10.47
  -4   7   2  110.47   20.98
  -4   7  -2  100.43   11.72
  -7   3  -2  109.18   12.30
  -3  -4  -2   64.05   11.42
   7  -3  -2  113.46   14.71
   4  -7  -2   92.35   11.52
   7  -3   2   92.28   11.52
   4  -7   2   89.16   12.93
  -3  -4   2   65.95    9.93
   7  -3   3    2.93    4.04
   3   4   3    3.35    5.86
  -4   7   3   10.38    6.71
  -7   3   3    4.44    5.11
   3   4  -3    3.64    3.43
  -4   7  -3    5.03    4.03
  -7   3  -3   -0.62    4.66
  -3  -4  -3    4.76    6.51
   4  -7  -3    2.17    4.47
   7  -3  -3   -0.11    4.76
   4  -7  -3   -2.14    5.29
   7  -3   3    3.63    4.17
   4  -7   3    1.65    8.43
  -3  -4   3    2.61    6.79
   7  -3   4   22.48    9.58
   3   4   4   10.44    7.37
  -4   7   4   29.36    8.47
  -7   3   4   21.74    7.36
   3   4  -4   15.29    4.83
  -4   7  -4   24.73   10.46
  -7   3  -4   18.54    6.29
  -3  -4  -4   11.74    7.45
   7  -3  -4   25.37    6.48
   4  -7  -4   32.03   10.06
   4  -7   4   32.77   10.38
  -3  -4   4    7.65    6.37
   7  -3   5    1.44    3.78
   3   4   5    1.53    7.29
  -4   7   5    8.33    8.66
  -7   3   5    3.43    4.85
   3   4  -5   -0.59    2.19
  -7   3  -5    4.56    5.17
  -3  -4  -5   -1.25    6.26
   7  -3  -5    0.60    2.78
   4  -7  -5    2.52    4.86
   4  -7   5    5.93    8.39
  -3  -4   5    0.40    7.25
   7  -3   6   40.18   15.72
   3   4   6   31.75   11.39
  -4   7   6   31.98   18.02
  -7   3   6   56.25   13.99
   3   4  -6   20.00   11.18
  -4   7  -6   33.24   12.23
  -7   3  -6   44.41   11.19
  -3  -4  -6   36.01   12.28
   7  -3  -6   38.74   22.39
   4  -7  -6   35.20   20.43
   4  -7   6   43.86   15.09
  -3  -4   6   28.75   12.23
   7  -3   7    4.55    7.08
   3   4   7    1.85    8.45
  -4   7   7    1.06    6.37
  -7   3   7    1.56    4.21
   3   4  -7   -0.15    3.63
  -4   7  -7    0.31    5.15
  -7   3  -7   -0.86    5.46
  -3  -4  -7    9.25   10.03
   7  -3  -7   -0.22    3.61
   4  -7  -7    4.27    5.22
   4  -7   7    3.67    8.30
  -3  -4   7    1.09    3.33
   2   5   0   42.83   12.59
  -5   7   0   34.03    5.53
  -7   2   0   40.93   11.02
  -5   7   0   41.95    6.92
  -7   2   0   43.04    6.44
  -2  -5   0   53.74   15.19
   7  -2   0   43.47   14.98
   5  -7   0   43.48    9.84
  -2  -5   0   40.52    8.31
   2   5  -1  263.39   39.72
   2   5   1  258.80   27.70
  -5   7   1  238.99   23.30
  -5   7  -1  208.64   19.48
  -7   2  -1  298.92   31.73
  -5   7   1  251.71   23.31
  -5   7  -1  261.74   29.75
  -7   2  -1  254.99   24.44
  -7   2   1  243.86   23.08
  -2  -5  -1  296.88   32.91
  -2  -5   1  305.94   32.55
   7  -2  -1  229.64   22.28
   7  -2   1  197.73   20.63
   5  -7  -1  280.47   27.86
   5  -7   1  282.16   28.72
  -2  -5  -1  244.17   22.93
  -2  -5   1  236.31   24.28
   7  -2   2  754.44   55.30
   2   5  -2  727.25   47.82
   2   5   2  624.34   44.15
  -5   7   2  556.95   39.06
  -7   2   2  635.47   44.53
   2   5  -2  576.41   41.26
  -5   7   2  583.34   37.95
  -5   7  -2  587.24   39.67
  -7   2  -2  623.06   42.30
  -2  -5  -2  721.93   53.85
   7  -2  -2  582.60   40.78
   5  -7  -2  600.65   42.32
   5  -7   2  640.16   47.13
  -2  -5  -2  687.63   45.13
  -2  -5   2  630.08   45.54
   7  -2   3  209.38   28.17
   2   5   3  214.84   23.95
  -5   7   3  202.20   21.48
  -7   2   3  214.29   22.27
   2   5  -3  165.60   22.38
  -5   7  -3  210.02   21.78
  -7   2  -3  209.20   21.22
  -2  -5  -3  201.69   23.42
   7  -2  -3  201.99   32.16
   5  -7  -3  226.48   30.24
   5  -7   3  212.15   24.70
  -2  -5   3  197.67   22.71
   7  -2   4   12.61    4.68
   2   5   4   13.07    8.21
  -5   7   4    5.70    5.20
  -7   2   4    7.41    4.49
   2   5  -4    8.87    3.26
  -5   7  -4    6.88    3.14
  -7   2  -4   10.86    5.93
  -2  -5  -4    4.28    9.55
   7  -2  -4    8.95    4.52
   5  -7  -4    7.36    4.22
   5  -7   4    3.04    9.17
  -2  -5   4    7.77    6.32
   7  -2   5  129.00   41.78
   2   5   5  125.74   20.43
  -5   7   5  134.43   19.44
  -7   2   5  185.17   25.11
   2   5  -5  115.94   34.57
  -5   7  -5  138.44   19.19
  -7   2  -5  147.43   20.50
  -2  -5  -5  137.34   20.74
   7  -2  -5  142.49   20.79
   5  -7  -5  150.61   28.50
   5  -7   5  149.51   24.39
  -2  -5   5  140.55   21.60
   7  -2   6  218.43   79.11
   2   5   6  223.92   43.22
  -5   7   6  204.98   38.96
  -7   2   6  278.48   51.21
   2   5  -6  227.16   42.82
  -2  -5  -6  259.97   48.85
   7  -2  -6  222.19   41.96
   5  -7  -6  240.80   54.69
   5  -7   6  231.47   45.00
   7  -2   7   81.08   19.05
   2   5   7   84.40   21.07
  -5   7   7   99.77   23.17
  -7   2   7  112.70   23.50
   2   5  -7   60.97   33.78
  -5   7  -7   88.02   18.59
  -7   2  -7   97.00   20.80
  -2  -5  -7   94.16   21.44
   5  -7  -7   91.86   44.48
   5  -7   7  105.86   24.55
  -2  -5   7   95.94   22.43
   1   6   0  338.15   30.57
  -6   7   0  217.89   21.21
  -7   1   0  385.79   39.40
  -6   7   0  240.37   21.43
  -7   1   0  276.13   25.94
   7  -1   0  212.36   21.98
   6  -7   0  284.44   28.66
   1   6  -1  228.20   21.27
   1   6   1  217.25   21.53
  -6   7   1  183.89   18.99
  -6   7  -1  172.55   17.91
  -7   1   1  255.11   27.41
  -7   1  -1  274.80   29.99
  -6   7   1  185.74   16.54
  -6   7  -1  194.14   18.13
  -7   1  -1  215.64   22.28
  -7   1   1  273.14   27.33
  -1  -6  -1  324.08   35.94
  -1  -6   1  256.66   28.77
   7  -1  -1  205.36   16.87
   6  -7  -1  198.55   21.10
   6  -7   1  243.91   26.65
  -1  -6  -1  270.06   25.98
  -1  -6   1  241.66   24.87
   1   6   2   30.42    7.91
  -6   7   2   34.29    6.95
  -7   1   2   41.46    9.17
  -6   7  -2   28.73    5.79
   1   6  -2   25.58    6.72
  -6   7  -2   37.24   10.12
  -7   1  -2   42.57   14.82
  -1  -6  -2   44.38   14.00
  -7   1   2   32.51    6.40
   7  -1  -2   38.99   12.21
   6  -7  -2   42.40   15.41
   6  -7   2   29.16    9.02
  -1  -6  -2   35.93    6.23
  -1  -6   2   35.38    9.52
   6  -7   3  162.73   21.70
   7  -1   3  202.73   47.10
   1   6   3  171.30   19.80
  -6   7   3  161.08   18.40
  -7   1   3  198.17   21.56
   1   6  -3  148.30   17.72
  -6   7  -3  156.92   15.99
  -7   1  -3  194.65   20.60
  -1  -6  -3  221.57   27.05
   7  -1  -3  168.16   24.78
   6  -7  -3  175.69   24.08
   6  -7   3  184.87   23.19
  -1  -6   3  198.08   23.43
   7  -1   4  185.49   56.52
   1   6   4  239.82   32.40
  -6   7   4  180.98   25.16
  -7   1   4  231.94   30.30
   1   6  -4  201.77   26.74
  -6   7  -4  177.43   23.19
  -7   1  -4  214.98   28.46
  -1  -6  -4  276.62   37.57
   7  -1  -4  161.12   33.38
   6  -7  -4  217.39   28.79
   6  -7   4  202.32   30.48
  -1  -6   4  282.65   38.69
   7  -1   5  122.85   35.52
   1   6   5  110.96   19.06
  -6   7   5   99.91   16.70
  -7   1   5  122.23   18.31
   1   6  -5   94.40   32.43
  -6   7  -5   86.03   13.76
  -7   1  -5  111.16   17.35
  -1  -6  -5  115.17   19.66
   7  -1  -5   69.43   39.65
   6  -7  -5  119.00   40.07
   6  -7   5  101.58   20.02
  -1  -6   5  120.91   22.70
   7  -1   6   16.12    6.62
   1   6   6   13.85   11.80
  -6   7   6   11.11    7.73
  -7   1   6   13.55    6.26
   1   6  -6    4.60    5.61
  -6   7  -6   10.18    5.34
  -1  -6  -6    5.40    6.80
   7  -1  -6    6.96    3.82
   6  -7  -6   11.95    5.61
   6  -7   6   13.15   10.67
  -1  -6   6    6.11    8.49
   0   7   0   48.91    7.39
  -7   7   0   67.79    9.38
  -7   0   0   98.06   15.90
  -7   7   0   63.00    5.89
  -7   0   0   77.55   10.74
   0  -7   0   67.20   12.11
   7   0   0   55.56    7.78
   7  -7   0   70.98   10.90
   0  -7   0   65.84   10.29
   7   0   1   20.71    7.61
   0   7   1   21.49    6.49
  -7   7   1   13.84    6.17
  -7   7  -1   17.03    5.94
  -7   0   1   21.34   11.00
  -7   7  -1   15.07    3.38
  -7   0  -1    9.40    5.87
  -7   0   1    4.41    4.83
   0  -7  -1   22.35   12.90
   7   0  -1   15.13    6.84
   7  -7  -1   20.69    6.89
   7  -7   1   33.29   12.19
   0  -7  -1   16.87    5.94
   0  -7   1   17.79    9.04
   7   0   2   74.69   29.84
   0   7   2   24.06    7.58
  -7   7   2   57.42    9.83
  -7   0   2   70.25   11.59
  -7   7  -2   56.85    9.53
  -7   7  -2   49.95    7.02
  -7   0  -2   59.14    9.64
   0  -7  -2   30.20   11.03
  -7   0   2   63.14   10.47
   7   0  -2   47.82   17.96
   7  -7  -2   43.34   16.87
   7  -7   2   53.65   11.00
   0  -7  -2   37.52    7.56
   0  -7   2   34.23   10.58
   7   0   3    5.36    5.20
   0   7   3    2.85    6.70
  -7   7   3    0.83    3.77
  -7   0   3    4.86    6.77
   7   0  -3    1.31    1.28
   0   7  -3    4.56    3.70
  -7   7  -3    5.27    3.32
  -7   0  -3   -1.46    5.36
   0  -7  -3    6.14   10.30
   7   0  -3    1.28    1.64
   0  -7  -3    4.71    5.17
   7  -7   3    6.37    9.09
   0  -7   3    6.61   11.33
   7   0   4   47.79   16.55
   0   7   4   23.09    9.57
  -7   7   4   35.28    8.51
  -7   0   4   52.49   10.80
   0   7  -4   24.99    7.54
  -7   7  -4   39.60    8.33
  -7   0  -4   40.64   22.46
   0  -7  -4   35.11   12.41
   7   0  -4   23.53   23.56
   7  -7  -4   36.87   16.44
   7  -7   4   28.85   10.77
   0  -7   4   29.18   11.23
   7   0   5    8.62    5.15
   0   7   5   13.62    9.85
  -7   7   5   17.71    8.88
  -7   0   5   11.76    5.99
   0   7  -5   11.33    5.95
  -7   7  -5   12.58    5.75
  -7   0  -5   11.38    7.80
   0  -7  -5   10.98    9.43
   7   0  -5    8.18    4.96
   7  -7  -5   17.55    8.19
   7  -7   5    9.79    7.10
   0  -7   5   20.99   12.31
   7   0   6   26.87   15.28
   0   7   6    6.25    8.94
  -7   7   6   20.27    8.64
  -7   0   6   28.37    7.61
   0   7  -6    5.57    3.72
  -7   7  -6   14.41    6.08
  -7   0  -6   22.05    9.76
   0  -7  -6   10.21   10.84
   7   0  -6   12.15    7.97
   7  -7  -6   13.14    7.48
   7  -7   6   11.47   10.53
   0  -7   6   12.79   13.66
   7   1   0  167.68   35.34
  -1   8   0   67.16    9.03
  -8   7   0   92.41   13.68
  -1   8   0   70.97   11.16
  -8   7   0   92.08    9.48
  -7  -1   0  139.89   18.60
   7   1   0   70.05   10.39
   8  -7   0   94.09   13.77
   1  -8   0  108.05   15.14
   7   1   1   28.10    8.58
  -1   8   1   26.96    8.74
  -8   7   1   16.68    6.93
  -8   7  -1   18.51    7.33
  -7  -1   1   34.43   10.45
  -1   8  -1   25.81    9.45
  -8   7  -1   18.34    8.06
  -7  -1  -1   32.75    8.99
  -7  -1   1   38.28   11.27
   1  -8  -1   44.36   10.71
   7   1  -1   15.64    7.70
   8  -7  -1   27.07   10.32
   8  -7   1   20.74   11.13
   1  -8  -1   42.80    8.41
   1  -8   1   49.09   11.43
   7   1   2  152.47   44.24
  -1   8   2  127.39   19.39
  -8   7   2  145.54   18.00
  -8   7  -2  144.03   18.60
  -7  -1   2  171.40   21.53
  -1   8  -2  103.82   25.75
  -8   7  -2  138.66   14.99
  -7  -1  -2  103.90   15.80
   1  -8  -2  206.03   26.03
  -7  -1   2  139.60   20.92
   7   1  -2  105.13   12.85
   8  -7  -2  142.27   18.20
   8  -7   2  137.82   19.90
   1  -8  -2  175.20   20.79
   1  -8   2  168.28   22.27
   7   1   3   15.42    9.69
  -1   8   3   19.23    8.52
  -8   7   3   12.59    6.09
  -7  -1   3   17.76    6.44
   7   1  -3   11.43    5.87
  -1   8  -3   20.26   10.13
  -8   7  -3   11.68    4.87
  -7  -1  -3   14.82    6.79
   1  -8  -3   39.78   14.76
   7   1  -3   12.30    6.44
   8  -7  -3   24.10   11.49
   1  -8  -3   34.76    8.62
   8  -7   3   23.50   11.60
   1  -8   3   29.01    9.16
   8  -7   4   41.64   25.54
   7   1   4   76.77   29.18
  -1   8   4   45.34   11.42
  -8   7   4   60.79   12.44
  -7  -1   4   98.17   16.06
  -1   8  -4   37.12   21.32
  -8   7  -4   58.67   27.32
  -7  -1  -4   87.59   16.35
   1  -8  -4   91.64   20.89
   7   1  -4   49.73   10.47
   8  -7   4   50.86   13.30
   1  -8   4   69.77   15.62
   7   1   5   20.92   11.79
  -1   8   5   17.36    9.95
  -8   7   5   11.94    6.74
  -7  -1   5   14.44    6.50
  -1   8  -5   15.47    6.42
  -8   7  -5   18.85    8.66
  -7  -1  -5   31.71   12.16
   1  -8  -5   31.92   13.92
   7   1  -5    7.19    4.75
   8  -7  -5   24.02   10.75
   8  -7   5   17.89   10.74
   7   1   6   65.42   30.68
  -1   8   6   78.89   20.14
  -8   7   6   69.16   15.91
  -1   8  -6   60.90   23.74
  -8   7  -6   75.18   17.04
  -7  -1  -6   66.69   40.05
   7   1  -6   37.74   20.03
   8  -7  -6   74.50   35.43
   1  -8   6   83.00   20.16
   6   2   0  165.03   39.63
  -8   6   0  118.77   15.72
  -2   8   0   68.61   12.02
  -8   6   0  108.08   10.72
   6   2   0   85.33   11.16
   8  -6   0   98.23   13.47
   2  -8   0  106.15   15.44
   6   2   1   35.76    9.81
  -2   8   1   33.43   10.20
  -8   6   1   27.91    8.14
  -8   6  -1   28.62    9.59
  -2   8  -1   31.10    7.27
  -8   6  -1   23.35   11.57
  -6  -2  -1   53.55   11.98
  -6  -2   1   64.05   14.37
   6   2  -1   19.07    3.85
   8  -6  -1   29.71    8.16
   8  -6   1   30.82    9.93
   2  -8  -1   58.01   10.91
   2  -8   1   62.24   12.67
   6   2   2   22.21    7.98
  -2   8   2    1.14    5.05
  -8   6   2   24.18    7.78
  -8   6  -2   40.43   11.91
  -6  -2   2   19.41    6.39
  -2   8  -2    7.64    4.40
  -8   6  -2   23.95    6.15
  -6  -2  -2   14.33    5.81
  -6  -2   2   22.74    9.32
   2  -8  -2   16.14    9.85
   8  -6  -2   14.33    5.99
   8  -6   2   13.74    7.53
   2  -8  -2   17.70    6.44
   2  -8   2   14.44    8.04
  -6  -2   2   14.06    6.11
   8  -6   3   42.59   22.66
   6   2   3   75.08   24.55
  -2   8   3   52.00   10.74
  -8   6   3   46.78   11.22
  -6  -2   3  106.40   18.22
   6   2  -3   51.07   18.50
  -8   6  -3   57.58   10.07
  -6  -2  -3   81.07   15.03
   2  -8  -3  104.88   19.78
   8  -6  -3   52.65   19.16
   2  -8  -3  102.44   16.38
   8  -6   3   38.21   11.21
   2  -8   3   93.38   17.77
  -6  -2   3   69.17   11.85
   8  -6   4   39.59   17.33
   6   2   4   91.49   30.04
  -2   8   4   32.99   10.11
  -8   6   4   80.88   15.36
  -6  -2   4  104.37   16.67
   6   2  -4   47.44   17.53
  -2   8  -4   43.12   18.13
  -8   6  -4   63.83   11.18
   2  -8  -4   69.93   15.97
   8  -6  -4   62.13   25.72
   2  -8  -4   64.44   11.82
   8  -6   4   61.85   14.44
  -6  -2   4   68.30   12.48
   8  -6   5   12.42    7.21
   6   2   5   13.34    7.74
  -2   8   5   22.37   10.99
  -8   6   5   12.49    8.41
  -6  -2   5   21.50    7.20
  -2   8  -5   13.97    6.37
  -8   6  -5   10.64    6.57
  -6  -2  -5   22.29    8.29
   2  -8  -5   28.51   11.40
   2  -8  -5   15.86    5.87
   8  -6   5   15.85    8.61
   2  -8   5   20.44   11.92
  -6  -2   5   25.45   10.94
   6   2   6   13.97   12.70
  -2   8   6   -7.55    8.43
  -8   6   6    5.77    5.45
  -2   8  -6    4.00    2.92
  -8   6  -6   15.54    7.78
  -6  -2  -6   12.28    7.96
   8  -6  -6    5.36    4.48
   2  -8   6    1.59    8.24
  -6  -2   6    1.23    6.77
   5   3   0   45.39   18.88
  -3   8   0   21.65    4.40
  -8   5   0   35.41    7.70
  -3   8   0   34.01   13.09
  -8   5   0   29.32    3.94
  -5  -3   0   57.38   14.26
   8  -5   0   36.05   18.55
   3  -8   0   31.32   10.82
  -5  -3   0   34.47    5.37
   5   3  -1   22.96    8.13
   5   3   1   20.16    8.07
  -3   8   1   16.54    5.49
  -8   5   1   22.88    8.34
  -8   5  -1   21.53   11.01
  -3   8   1   13.96    5.61
  -3   8  -1   10.48    4.96
  -8   5  -1   13.89    5.31
  -5  -3  -1   15.98   10.41
  -5  -3   1   19.77   12.33
   8  -5  -1   10.87    8.53
   8  -5   1   14.62    8.47
   3  -8  -1   16.26    8.94
   3  -8   1   21.82    9.78
  -5  -3   1   15.84    5.02
   5   3   2  364.83   36.82
  -3   8   2  345.96   33.24
  -8   5   2  314.38   31.00
  -8   5  -2  361.89   37.97
  -3   8  -2  335.80   31.97
  -8   5  -2  345.38   31.66
  -5  -3  -2  270.41   29.11
  -5  -3   2  319.88   34.21
   3  -8  -2  384.94   37.45
   8  -5  -2  340.21   33.34
   3  -8  -2  444.26   42.14
   8  -5   2  323.40   32.61
   3  -8   2  413.45   41.44
  -5  -3   2  245.95   24.96
   8  -5   3    7.18    3.48
   5   3   3   15.81    5.91
  -3   8   3    8.48    5.77
  -8   5   3   11.50    7.64
  -5  -3   3   22.64    7.66
   5   3  -3   10.32    4.31
  -3   8  -3    4.89    3.14
  -8   5  -3   10.11    6.04
   3  -8  -3   13.84    7.21
   8  -5  -3    8.71    3.40
   3  -8  -3   15.94    7.33
   8  -5   3    5.57    7.93
   3  -8   3   14.90   11.27
  -5  -3   3   13.92    5.76
   8  -5   4   16.91    8.94
   5   3   4   38.26   16.29
  -3   8   4   18.36    8.31
  -5  -3   4   43.81    9.71
   5   3  -4   22.69    8.66
  -8   5  -4   28.31   13.42
  -5  -3  -4   34.58    9.37
   3  -8  -4   47.73   13.26
   8  -5  -4   35.36   15.90
   3  -8  -4   30.28    7.54
   8  -5   4   19.21    7.38
   3  -8   4   28.78    9.92
  -5  -3   4   23.23    7.88
   8  -5   5   13.87    7.83
   5   3   5   10.48    6.64
  -3   8   5    4.30    5.94
  -8   5   5    9.57    8.01
   5   3  -5    8.54    3.30
  -3   8  -5    8.29    5.41
  -8   5  -5    6.02    4.80
  -5  -3  -5    9.90    6.78
   8  -5  -5   15.54    6.42
   3  -8  -5    9.16    5.34
   3  -8   5    8.38    9.44
  -5  -3   5    8.37    7.09
   8  -5   6  142.02   40.95
  -3   8   6  177.51   33.94
  -8   5   6  163.93   30.64
  -3   8  -6  171.82   32.66
  -8   5  -6  168.94   31.11
  -5  -3  -6  156.00   31.33
   8  -5  -6  195.53   36.26
   3  -8   6  187.50   36.45
  -5  -3   6  119.99   24.46
  -8   4   0  937.01   83.87
  -4   8   0  740.15   49.75
  -8   4   0  814.06   69.89
   8  -4   0  732.93   50.04
   4  -8   0  962.45   86.39
  -4  -4   0  837.83   72.89
   4   4  -1   20.59    8.14
   4   4   1   19.29    9.01
  -4   8   1    5.51    4.03
  -4   8  -1   10.55    2.57
  -8   4   1   17.14    7.83
  -8   4  -1   15.76    8.48
  -4   8   1   10.56    3.70
  -4   8  -1   13.79    4.90
  -8   4  -1   11.46    3.33
  -4  -4  -1   19.55    9.17
  -4  -4   1   23.83   10.25
   8  -4  -1   15.57    6.98
   8  -4   1    9.59    4.27
   4  -8  -1   16.31    7.41
   4  -8   1    9.72    7.76
  -4  -4   1   15.38    5.33
   4   4  -2   69.29   21.24
   4   4   2   65.56   20.00
  -4   8   2   39.72    8.17
  -8   4   2   53.13   12.12
  -8   4  -2   59.66   15.76
  -4   8   2   45.82   17.46
  -4   8  -2   53.82   24.07
  -8   4  -2   53.78    7.42
  -4  -4  -2   66.91   13.31
  -4  -4   2   54.01   11.11
   8  -4  -2   55.30   19.29
   4  -8  -2   64.72   11.34
   8  -4   2   52.49    9.78
   4  -8   2   57.71   11.32
  -4  -4   2   52.88    8.97
   4   4  -3    3.44    3.53
   8  -4   3    2.18    5.03
   4   4   3   -3.17    5.74
  -4   8   3    5.09    5.97
   4   4  -3    0.60    4.71
  -4   8  -3   -1.45    4.23
  -8   4  -3    1.39    4.31
  -4  -4  -3    3.61    6.61
   8  -4  -3    2.56    4.73
   4  -8  -3    3.17    5.93
   8  -4   3   -1.81    4.22
   4  -8   3   -1.51    7.36
  -4  -4   3    4.11    6.56
   8  -4   4  510.78   64.33
   4   4   4  762.11   96.18
  -4   8   4  548.72   66.00
  -8   4   4  762.00   94.53
   4   4  -4  549.04   65.32
  -4   8  -4  589.13   69.67
  -8   4  -4  754.02   92.81
  -4  -4  -4  687.63   86.58
   8  -4  -4  725.80   93.64
   4  -8  -4  728.54   90.30
   4  -8   4  778.25   98.91
  -4  -4   4  659.74   79.14
   8  -4   5   11.97    6.84
   4   4   5   22.76   12.52
  -4   8   5    7.08    6.10
  -8   4   5   17.92    9.10
   4   4  -5   10.62    4.99
  -8   4  -5   13.77    6.06
  -4  -4  -5   14.57    9.18
   8  -4  -5   12.66    6.35
   4  -8  -5    9.91    4.80
   4  -8   5   19.67   12.64
  -4  -4   5   13.04    7.52
   8  -4   6    9.85    4.29
   4   4   6   22.89   10.42
  -4   8   6   12.85    7.36
  -8   4   6   14.89    7.68
   4   4  -6    8.79    5.13
  -4   8  -6   12.79    6.96
  -8   4  -6   13.21    5.94
  -4  -4  -6   20.76    9.99
   8  -4  -6   15.31    8.63
   4  -8  -6   12.30    5.51
   4  -8   6   30.20   14.94
  -4  -4   6   19.32    8.68
   3   5   0    2.87    2.14
  -5   8   0    4.11    3.14
  -8   3   0    3.80    8.30
  -5   8   0    2.94    1.64
  -8   3   0    3.61    3.49
  -3  -5   0   -2.32   10.62
   8  -3   0    1.10    2.88
   5  -8   0    0.67    8.41
  -3  -5   0    4.58    4.64
   3   5  -1   42.07   11.17
   3   5   1   43.04   15.51
  -5   8   1   29.94    5.72
  -5   8  -1   25.14    4.13
  -8   3   1   36.33    9.74
  -8   3  -1   46.99   14.18
  -5   8   1   33.79   12.10
  -5   8  -1   45.64    9.81
  -8   3  -1   24.38    4.40
  -8   3   1   25.99    4.69
  -3  -5  -1   39.10   11.10
  -3  -5   1   41.44   10.98
   8  -3  -1   31.37    9.13
   8  -3   1   23.13    7.72
   5  -8  -1   48.90    9.87
   5  -8   1   46.00   11.15
  -3  -5  -1   37.32    6.85
  -3  -5   1   37.04    7.09
   3   5  -2  204.62   37.91
  -8   3   2  155.70   19.05
   3   5  -2  163.97   18.75
  -5   8   2   96.77   10.46
  -5   8  -2  103.89   15.54
  -8   3  -2  134.18   14.53
  -3  -5  -2  203.44   25.91
   8  -3  -2  119.51   14.42
   5  -8  -2  124.51   16.20
   8  -3   2  101.86   12.94
   5  -8   2  116.93   17.74
  -3  -5   2  176.57   19.98
   8  -3   3   27.87    7.27
   3   5   3   33.86    9.47
  -5   8   3   32.68    8.17
  -8   3   3   30.88    9.15
   3   5  -3   32.27    9.39
  -5   8  -3   36.43   14.01
  -8   3  -3   25.65    5.98
  -3  -5  -3   29.24    8.82
   8  -3  -3   32.53   10.75
   5  -8  -3   28.89   13.56
   5  -8   3   40.31   10.27
  -3  -5   3   38.31   10.58
   8  -3   4    2.50    2.59
   3   5   4   -0.90    6.29
  -5   8   4    5.22    5.82
  -8   3   4   -0.73    5.05
   3   5  -4    0.65    3.24
  -5   8  -4    3.27    3.53
  -8   3  -4   -1.44    4.62
  -3  -5  -4    7.50    6.86
   8  -3  -4    3.42    2.87
   5  -8  -4    0.26    3.41
   5  -8   4   -1.10    9.23
  -3  -5   4    4.31    7.11
   8  -3   5   14.96    7.38
   3   5   5   21.89   11.38
  -5   8   5   25.05   10.46
  -8   3   5   14.37    6.33
   3   5  -5   16.16    7.27
  -5   8  -5   21.08   11.71
  -8   3  -5   13.98    6.04
  -3  -5  -5   16.71    9.63
   8  -3  -5   13.83    5.62
   5  -8  -5   22.12    7.91
   5  -8   5   20.18   10.56
  -3  -5   5   18.98    8.90
   8  -3   6   53.04   24.94
   3   5   6   71.24   18.33
  -5   8   6   34.18   11.42
  -8   3   6   95.78   19.35
   3   5  -6   66.62   24.14
  -8   3  -6   85.31   17.89
  -3  -5  -6   92.90   19.64
   8  -3  -6   56.24   31.10
   5  -8  -6   56.66   21.24
   5  -8   6   61.29   17.10
  -3  -5   6   92.34   21.90
   2   6   0  154.54   16.52
  -6   8   0  131.48   14.44
  -8   2   0  216.63   26.63
  -6   8   0  154.69   22.03
  -8   2   0  147.10   15.62
  -2  -6   0  160.14   23.28
   8  -2   0  124.82   18.46
   6  -8   0  164.07   20.88
  -2  -6   0  145.70   16.97
   2   6  -1  106.17   30.87
   2   6   1  123.88   14.72
  -6   8   1   88.89   11.88
  -6   8  -1   71.90    9.58
  -8   2   1   82.52   13.57
  -8   2  -1  111.78   20.33
  -6   8   1   84.82    9.40
  -6   8  -1   89.78   20.06
  -8   2  -1   76.24   10.25
  -8   2   1   89.00   11.76
  -2  -6  -1  150.36   21.41
   8  -2  -1   77.21   16.09
   8  -2   1   66.09   20.90
   6  -8  -1  109.23   14.39
   6  -8   1  117.34   16.79
  -2  -6  -1  116.46   13.46
  -2  -6   1  119.87   15.37
   8  -2   2    2.54    4.04
   2   6   2    6.97    6.67
  -6   8   2    2.64    4.85
  -8   2   2    4.44    5.98
  -6   8  -2    1.77    3.11
   2   6  -2   10.72    5.64
  -6   8  -2    5.00    4.98
  -8   2  -2    6.37    4.05
  -2  -6  -2    9.66   15.66
   8  -2  -2   -0.22    3.82
   6  -8  -2    9.69    8.93
   6  -8   2    1.71    9.85
  -2  -6   2   14.95    5.94
   8  -2   3   65.57   35.09
   2   6   3   95.65   16.19
  -6   8   3   66.47   12.16
  -8   2   3   59.52   11.60
   2   6  -3   64.04   24.26
  -6   8  -3   72.18   25.76
  -8   2  -3   58.99   10.91
  -2  -6  -3   84.15   19.16
   8  -2  -3   59.60   20.66
   6  -8  -3   77.77   14.73
   6  -8   3   84.10   15.37
  -2  -6   3   93.00   17.17
   8  -2   4  137.48   26.01
   2   6   4  119.21   19.47
  -6   8   4  119.31   17.47
  -8   2   4  153.29   21.55
   2   6  -4   81.80   23.77
  -6   8  -4  127.70   17.72
  -8   2  -4  160.18   21.76
  -2  -6  -4  130.58   22.22
   8  -2  -4  136.02   19.72
   6  -8  -4  141.37   43.42
   6  -8   4  124.88   20.48
  -2  -6   4  130.78   21.44
   8  -2   5   44.58   23.13
   2   6   5   67.06   16.61
  -6   8   5   51.61   13.70
  -8   2   5   59.90   14.62
   2   6  -5   52.68   21.71
  -6   8  -5   55.29   12.43
  -8   2  -5   45.27   10.50
  -2  -6  -5   75.20   17.69
   8  -2  -5   54.67   14.30
   6  -8  -5   57.32   28.39
   6  -8   5   69.60   17.25
  -2  -6   5   67.50   16.47
   8  -2   6    1.41    2.58
   2   6   6    5.83    8.49
  -6   8   6   -2.82    6.42
  -8   2   6   12.60    8.48
   2   6  -6   -0.21    4.60
  -6   8  -6    4.79    6.96
  -8   2  -6    6.68    7.16
  -2  -6  -6    0.87    7.46
   8  -2  -6    6.40    4.47
   6  -8  -6    2.10    2.91
   6  -8   6    0.84    7.80
  -2  -6   6    0.98    7.94
   1   7   0  273.25   26.05
  -7   8   0  286.73   28.06
  -8   1   0  357.66   37.22
  -7   8   0  309.44   27.68
  -8   1   0  316.31   30.87
  -1  -7   0  378.12   40.68
   8  -1   0  249.95   23.48
   7  -8   0  354.34   36.39
  -1  -7   0  340.31   33.33
   1   7   1   16.61    5.46
  -7   8   1    6.43    5.66
  -7   8  -1    6.31    4.17
  -8   1   1   19.73    8.35
   1   7  -1   21.55    6.89
  -7   8   1    7.52    3.68
  -7   8  -1    7.19    2.92
  -8   1  -1    6.85    3.80
  -8   1   1   19.06    6.90
  -1  -7  -1   31.48   15.79
   8  -1  -1    8.32    2.84
   8  -1   1    4.27    1.78
   7  -8  -1   15.20    7.18
   7  -8   1   10.08    8.40
  -1  -7  -1   20.23    6.47
  -1  -7   1   19.07    7.31
   8  -1   2   15.71    8.68
   1   7   2    9.02    5.94
  -7   8   2    2.79    5.80
  -8   1   2   20.79    9.09
  -7   8  -2    0.50    4.56
   1   7  -2    9.07    4.92
  -7   8  -2    4.78    1.89
  -8   1  -2   12.64    6.34
  -1  -7  -2   18.45   14.15
  -8   1   2   11.15    5.20
   8  -1  -2    6.18    2.28
   7  -8   2    2.68   10.08
  -1  -7  -2   10.24    4.36
  -1  -7   2   18.52    8.53
   8  -1   3    3.43    3.70
   1   7   3    3.57    4.87
  -7   8   3    0.32    5.89
  -8   1   3   11.45    7.50
   1   7  -3    3.95    4.20
  -7   8  -3    2.57    3.07
  -8   1  -3    1.84    5.65
  -1  -7  -3    6.97   10.84
   8  -1  -3    2.21    2.83
   7  -8  -3    3.26    2.85
   7  -8   3   -0.26    9.27
   8  -1   4  224.93   35.40
   1   7   4  202.05   28.78
  -7   8   4  236.95   32.74
  -8   1   4  270.38   36.58
   1   7  -4  152.97   21.95
  -7   8  -4  227.28   30.28
  -8   1  -4  267.85   36.38
  -1  -7  -4  249.22   36.52
   8  -1  -4  216.85   30.19
   7  -8  -4  264.20   35.53
   7  -8   4  255.93   36.99
  -1  -7   4  233.22   33.82
   8  -1   5    9.86    5.41
   1   7   5   16.76    9.85
  -7   8   5    5.23    5.41
  -8   1   5    7.35    4.59
   1   7  -5   10.08    4.57
  -7   8  -5   15.00    7.05
  -8   1  -5   11.05    6.26
  -1  -7  -5   17.08    9.19
   8  -1  -5    6.66    3.90
   7  -8  -5    6.97    3.57
   7  -8   5   11.80   10.15
  -1  -7   5   12.06    8.26
   8  -1   6   14.49    7.66
   1   7   6    6.25    7.57
  -7   8   6    3.25    5.64
  -8   1   6   17.38    8.49
   1   7  -6    7.34    4.52
  -7   8  -6    7.27    4.80
  -8   1  -6   12.50    8.41
  -1  -7  -6    9.12    8.52
   8  -1  -6    6.14    4.30
   7  -8  -6    7.04    5.63
   7  -8   6    6.93    7.56
  -1  -7   6   25.95   12.89
   0   8   0  138.84   18.35
  -8   8   0  194.05   26.01
  -8   0   0  288.60   41.17
  -8   8   0  166.69   20.45
  -8   0   0  290.13   38.91
   0  -8   0  246.59   35.38
   8   0   0  161.23   20.43
   8  -8   0  213.45   30.84
   0  -8   0  239.77   32.40
   8   0   1    4.15    6.63
   0   8   1   -0.12    4.39
  -8   8   1    1.88    4.90
  -8   8  -1    4.13    4.80
  -8   0   1   -5.30    7.69
   0   8  -1    3.37    2.88
  -8   8  -1   -0.90    2.25
  -8   0  -1   -0.66    4.29
  -8   0   1    3.81    9.29
   0  -8  -1   13.39   10.88
   8   0  -1    2.80    2.39
   8  -8  -1   -2.09    7.60
   8  -8   1    5.68   10.36
   0  -8  -1   -0.09    4.39
   0  -8   1   11.39    9.03
   8   0   2  505.51   65.60
   0   8   2  424.68   51.39
  -8   8   2  404.41   49.76
  -8   0   2  589.92   72.38
  -8   8  -2  371.51   46.45
   0   8  -2  352.58   46.72
  -8   8  -2  364.72   43.29
  -8   0  -2  434.94   53.11
   0  -8  -2  775.29  101.05
  -8   0   2  548.94   66.51
   8   0  -2  342.84   41.87
   8  -8  -2  408.28   50.22
   8  -8   2  503.33   64.06
   0  -8  -2  598.82   71.14
   0  -8   2  584.06   70.84
   8   0   3    0.57    2.37
   0   8   3    0.27    5.29
  -8   8   3   -0.22    5.84
  -8   0   3    3.54    5.83
   0   8  -3    2.49    2.08
  -8   8  -3   -1.57    3.30
  -8   0  -3    0.98    5.56
   0  -8  -3    2.60   11.08
   8   0  -3   -0.74    3.28
   8  -8   3    4.87    9.38
   0  -8   3    4.62   10.36
   8   0   4  152.60   70.02
   0   8   4   99.80   21.69
  -8   8   4  151.90   30.14
  -8   0   4  176.18   33.66
   0   8  -4   70.51   24.69
  -8   8  -4  129.74   24.57
  -8   0  -4  167.76   32.80
   0  -8  -4  142.47   32.22
   8   0  -4  105.92   24.86
   8  -8  -4  132.16   37.00
   8  -8   4  125.91   27.61
   0  -8   4  134.26   28.13
   8   0   5    3.88    3.61
   0   8   5   -1.49    6.35
  -8   8   5    3.51    4.46
  -8   0   5    3.35    6.82
   0   8  -5    3.12    3.03
  -8   8  -5    3.62    4.75
  -8   0  -5   -2.57    6.40
   0  -8  -5    5.78   10.14
   8   0  -5    3.04    2.76
   8  -8  -5    3.18    2.92
   8  -8   5    1.39    8.12
   8   1   0    3.05    7.55
  -9   8   0    6.05    5.57
  -1   9   0   10.85    7.23
  -8  -1   0   13.92    7.83
   9  -8   0    4.69    8.34
   1  -9   0   18.03    9.00
   8   1   1    7.80    4.38
  -1   9   1   10.89    4.67
  -9   8   1   14.36    7.87
  -9   8  -1    6.05    5.24
  -8  -1   1   14.12   10.29
  -1   9  -1   10.99    3.80
  -9   8  -1    8.47    2.62
  -8  -1  -1    9.50    5.47
  -8  -1   1    9.95    6.58
   1  -9  -1   10.24    8.26
   8   1  -1    5.03    2.72
   9  -8  -1   14.94    9.61
   9  -8   1   19.43   12.52
   1  -9  -1   13.91    7.61
   1  -9   1   17.95    9.83
   8   1   2  113.69   43.50
  -1   9   2   44.62   11.91
  -9   8   2   82.26   14.63
  -9   8  -2   94.65   16.87
  -8  -1   2  148.08   23.94
  -1   9  -2   40.03   16.10
  -9   8  -2   79.56   12.00
  -8  -1  -2  103.35   17.84
  -8  -1   2  154.94   24.54
   1  -9  -2  116.05   21.83
   8   1  -2   71.27   11.76
   9  -8  -2   59.48   33.06
   9  -8   2   85.64   17.05
   1  -9  -2   97.57   16.36
   1  -9   2   91.68   17.56
   8   1   3   12.45    7.23
  -1   9   3    5.00    5.35
  -9   8   3    8.86    7.09
  -8  -1   3   16.31    9.42
  -1   9  -3    6.51    3.58
  -9   8  -3    6.35    3.38
  -8  -1  -3    3.58    5.99
   1  -9  -3   11.20   11.36
   8   1  -3    4.32    2.26
   9  -8  -3   10.45    7.12
   9  -8   3   16.66   10.38
   1  -9   3    6.96    8.06
  -1   9   4    4.19    6.10
  -9   8   4    6.63    6.40
  -8  -1   4    9.33    9.36
  -1   9  -4    3.52    4.57
  -9   8  -4    1.34    3.70
  -8  -1  -4   10.12    8.79
   1  -9  -4    9.54   11.41
   8   1  -4    1.58    1.98
   9  -8   4    1.73    7.38
   1  -9   4    1.34    8.01
   8   1   5   -1.61    8.41
  -1   9   5   11.70    8.93
  -9   8   5    3.20    6.27
  -8  -1   5    3.42    5.61
  -1   9  -5    6.18    5.31
  -9   8  -5    3.99    5.25
  -8  -1  -5   -0.05    7.06
   1  -9  -5   17.64   12.24
   8   1  -5    2.81    2.42
   9  -8  -5    5.08    5.52
   9  -8   5   11.61    7.57
   1  -9   5    6.45    8.42
   7   2   0  114.93   48.00
  -9   7   0   99.57   16.45
  -2   9   0  125.90   18.55
  -7  -2   0  132.11   22.17
   9  -7   0  122.35   19.62
   2  -9   0  173.56   25.90
   7   2  -1  177.39   62.86
   7   2   1  124.54   48.01
  -2   9   1   80.64   12.91
  -9   7   1  116.89   19.27
  -9   7  -1  131.30   21.26
  -2   9   1   88.50   32.73
  -2   9  -1   78.72   25.84
  -9   7  -1  123.34   16.12
  -7  -2  -1  111.11   18.94
  -7  -2   1  161.38   26.16
   7   2  -1   75.93   10.98
   9  -7  -1  112.64   18.13
   9  -7   1  124.48   20.02
   2  -9  -1  133.75   21.31
   2  -9   1  111.00   18.87
   7   2   2    4.44    6.29
  -2   9   2    0.42    5.38
  -9   7  -2    8.91   13.05
  -7  -2   2   12.64    8.83
  -2   9  -2    2.29    1.81
  -9   7  -2    0.64    3.33
  -7  -2  -2    6.24    8.23
  -7  -2   2    7.97    8.12
   2  -9  -2   10.10    9.65
   7   2  -2    1.39    1.50
   9  -7  -2    3.57    4.75
   9  -7   2   -0.03    7.57
   2  -9  -2    8.54    9.64
   2  -9   2   12.34   11.94
   9  -7   3   66.41   27.73
   7   2   3  103.45   46.81
  -2   9   3   69.22   13.28
  -9   7   3   94.24   16.46
  -7  -2   3   95.61   16.99
   7   2  -3   55.98   19.83
  -2   9  -3   53.59   17.42
  -9   7  -3   97.11   14.85
  -7  -2  -3   79.33   14.84
   2  -9  -3  116.70   21.69
   7   2  -3   60.57   12.16
   9  -7  -3   69.93   27.85
   2  -9  -3  119.55   19.41
   9  -7   3   81.59   15.35
   2  -9   3   85.87   18.36
   9  -7   4   47.97   27.49
   7   2   4   82.60   37.75
  -2   9   4   92.27   20.18
  -9   7   4   79.80   17.51
  -7  -2   4  100.08   21.71
  -2   9  -4   81.08   34.92
  -9   7  -4   78.58   16.11
  -7  -2  -4   68.53   16.62
   2  -9  -4  156.70   33.68
   7   2  -4   44.23   10.72
   9  -7  -4   84.66   44.15
   2  -9  -4  111.23   22.56
   9  -7   4   65.48   16.57
   2  -9   4  111.73   23.69
   7   2   5   75.28   38.72
  -2   9   5   62.81   16.43
  -9   7   5   83.43   18.36
  -2   9  -5   48.01   21.40
  -9   7  -5   60.65   19.01
   7   2  -5   38.43   22.58
   6   3   0   89.52   30.60
  -9   6   0   85.33   15.25
  -3   9   0   76.70   31.11
  -6  -3   0   90.78   18.63
   9  -6   0   79.60   14.20
   3  -9   0   86.51   15.99
   6   3  -1  112.18   35.73
   6   3   1  104.48   33.41
  -3   9   1   63.74   12.09
  -9   6   1   80.65   14.28
  -9   6  -1  114.24   19.97
  -3   9   1   68.63   22.93
  -3   9  -1   57.94   24.12
  -9   6  -1   82.79   11.49
  -6  -3  -1  114.52   20.53
  -6  -3   1  140.03   24.18
   9  -6  -1   83.67   37.76
   9  -6   1   83.30   15.29
   3  -9  -1  100.36   16.63
   3  -9   1   96.53   17.72
  -6  -3   1   75.36   12.03
   6   3  -2  180.41   59.74
   6   3   2  125.27   45.43
  -3   9   2   65.07   11.41
  -9   6   2  112.73   17.67
  -9   6  -2  135.27   23.02
  -3   9   2   90.42   14.88
  -3   9  -2   70.85   14.95
  -9   6  -2  114.22   15.62
  -6  -3  -2  128.76   20.41
  -6  -3   2  179.18   27.19
   9  -6  -2  102.43   29.03
   9  -6   2   94.89   17.05
   3  -9  -2  137.38   21.25
   3  -9   2  124.00   20.80
  -6  -3   2  108.24   17.45
   9  -6   3   43.63   20.48
   6   3   3   67.29   20.00
  -3   9   3   36.50   12.07
  -9   6   3   60.34   12.89
  -6  -3   3   69.50   13.03
   6   3  -3   43.44   13.25
  -3   9  -3   39.79   14.93
  -9   6  -3   59.02   10.29
  -6  -3  -3   45.34   12.77
   3  -9  -3   57.47   13.79
   9  -6  -3   52.64   23.11
   3  -9  -3   59.18   12.29
   9  -6   3   57.53   14.10
   3  -9   3   62.26   15.79
  -6  -3   3   47.19   11.20
   9  -6   4   39.50   26.88
   6   3   4   71.30   35.56
  -3   9   4   49.34   27.08
  -9   6   4   57.70   16.86
  -6  -3   4   83.16   22.01
   6   3  -4   31.51   15.82
  -3   9  -4   56.36   25.29
  -9   6  -4   63.08   16.80
   3  -9  -4   99.23   26.35
   9  -6  -4   63.05   44.33
   3  -9  -4   90.87   23.39
   9  -6   4   43.09   13.48
   3  -9   4   75.38   22.07
  -6  -3   4   53.12   15.91
   9  -6   5   34.29   20.65
   6   3   5   46.65   28.19
  -3   9   5   36.13   20.70
  -3   9  -5   37.55   20.86
  -9   6  -5   60.11   13.31
  -6  -3  -5   61.33   16.28
   9  -6  -5   58.58   22.21
   3  -9  -5   63.39   13.73
   3  -9   5   56.40   17.00
  -6  -3   5   42.47   12.24
   5   4   0  117.21   40.40
  -4   9   0  103.96   11.59
  -9   5   0   90.42   14.98
  -4   9   0  127.95   14.79
  -9   5   0   80.82    8.92
  -5  -4   0  147.00   22.70
   9  -5   0   97.88   16.79
   4  -9   0  161.26   21.24
  -5  -4   0   78.91   10.06
   5   4  -1    1.88    2.77
   5   4   1    1.80    2.30
  -4   9   1    1.22    3.73
  -9   5   1    9.01    8.86
  -9   5  -1    3.72    9.71
  -4   9   1    1.87    2.65
  -4   9  -1    2.08    2.45
  -9   5  -1    4.23    4.04
  -5  -4  -1   13.62   13.67
  -5  -4   1   -1.83   11.11
   9  -5  -1    5.28    3.30
   9  -5   1    7.52    6.62
   4  -9  -1    6.27    8.72
   4  -9   1    9.81    8.92
  -5  -4   1    4.76    5.44
   5   4   2  443.45   55.99
  -4   9   2  236.12   30.28
  -9   5   2  309.33   39.95
  -9   5  -2  398.89   53.06
  -4   9   2  272.90   35.27
  -4   9  -2  240.42   30.83
  -9   5  -2  313.93   38.59
  -5  -4  -2  402.41   52.13
  -5  -4   2  458.19   59.14
   9  -5  -2  280.50   36.35
   9  -5   2  255.80   34.11
   4  -9  -2  385.77   49.19
   4  -9   2  388.26   51.22
  -5  -4   2  334.13   58.70
   5   4   3   -0.74    5.14
  -4   9   3   -0.47    5.26
  -9   5   3   -2.52    5.96
  -4   9   3    1.40    1.37
   5   4  -3    0.71    2.83
  -4   9  -3    1.79    2.94
  -9   5  -3   -1.27    3.73
   9  -5  -3    1.19    4.35
   4  -9  -3   -5.79    6.08
   9  -5   3    5.72    5.17
   4  -9   3    7.50    9.32
  -5  -4   3    6.11    3.35
   9  -5   4   46.63   31.61
   5   4   4   62.14   32.62
  -4   9   4   67.16   18.30
  -9   5   4   53.02   14.72
   5   4  -4   35.78   14.86
  -4   9  -4   81.71   32.31
  -9   5  -4   54.52   14.63
  -5  -4  -4   57.79   17.60
   9  -5  -4   59.99   35.15
   4  -9  -4   91.34   23.18
   4  -9   4   93.83   26.71
  -5  -4   4   49.31   14.98
   9  -5   5    5.62    3.15
   5   4   5   -1.55    8.68
  -4   9   5   -0.43    5.37
  -9   5   5    7.12    8.27
   5   4  -5    1.31    1.61
  -4   9  -5    5.51    4.89
  -9   5  -5    2.54    4.63
  -5  -4  -5    2.33   10.17
   9  -5  -5   -0.64    5.95
   4  -9  -5    1.24    4.63
   4  -9   5    2.00    8.80
  -5  -4   5    4.54    7.33
   4   5   0   36.57   12.54
  -5   9   0    5.85    3.65
  -9   4   0   18.15   11.67
  -5   9   0   11.57    4.04
  -9   4   0   12.96    3.51
  -4  -5   0   54.50   17.03
   9  -4   0   10.39    3.46
   5  -9   0   19.70   10.79
   4   5  -1   18.91    8.30
   4   5   1   22.42    8.20
  -5   9   1   18.54    5.08
  -9   4   1   24.25    9.04
  -9   4  -1   35.31   14.69
  -5   9   1   18.74    8.38
  -5   9  -1   17.13    7.08
  -9   4  -1   17.13    3.82
  -4  -5  -1   34.40   15.24
  -4  -5   1   21.43   10.62
   9  -4  -1   21.63    6.52
   9  -4   1   11.60    4.09
   5  -9  -1   28.29   11.48
   5  -9   1   23.69    9.50
  -4  -5   1   14.66    5.51
   4   5  -2  302.11   40.83
   4   5   2  269.73   36.09
  -5   9   2  175.08   23.75
  -9   4   2  211.43   28.63
  -9   4  -2  293.36   42.12
   4   5  -2  233.50   31.18
  -5   9   2  196.98   25.21
  -5   9  -2  210.98   36.47
  -9   4  -2  223.31   28.37
  -4  -5  -2  282.43   39.91
   9  -4  -2  203.95   33.63
   5  -9  -2  259.18   34.28
   9  -4   2  162.53   22.51
   5  -9   2  254.20   35.56
  -4  -5   2  205.13   28.17
   9  -4   3    8.99    4.44
   4   5   3   15.30    7.29
  -5   9   3    9.34    5.02
  -9   4   3   13.68    7.74
   4   5  -3    9.21    3.93
  -5   9  -3   13.24    4.22
  -9   4  -3   11.41    5.33
  -4  -5  -3    5.43    8.54
   9  -4  -3   13.22    4.62
   5  -9  -3   10.52    6.35
   5  -9   3   14.44   14.40
  -4  -5   3    6.00    5.19
   9  -4   4   12.85    6.73
   4   5   4   27.62   10.68
  -5   9   4    3.21    6.31
  -9   4   4   16.02    8.41
   4   5  -4   20.04   10.03
  -5   9  -4   13.07    6.37
  -9   4  -4   17.24    7.35
  -4  -5  -4   39.96   14.36
   9  -4  -4    6.65    5.11
   5  -9  -4   18.15    8.11
   5  -9   4   19.13   13.29
  -4  -5   4   40.60   13.15
   9  -4   5    6.48    3.30
   4   5   5   15.80   11.20
  -5   9   5   16.74    9.21
  -9   4   5    9.34    7.89
   4   5  -5    9.13    4.75
  -5   9  -5    7.07    5.19
  -9   4  -5   11.73    5.85
  -4  -5  -5   11.99    9.59
   9  -4  -5   12.76   10.10
   5  -9  -5   16.39    7.40
   5  -9   5   12.27    8.65
  -4  -5   5   10.65    7.21
   3   6   0   15.84    5.99
  -6   9   0    3.98    2.72
  -9   3   0   17.31   12.04
  -6   9   0    6.05    1.94
  -9   3   0    9.76    3.30
   9  -3   0    9.97    3.06
  -3  -6   0   14.17    4.76
   3   6  -1   85.73   24.69
   3   6   1   90.27   19.55
  -6   9   1   62.39   10.19
  -6   9  -1   52.07    8.47
  -9   3   1   89.66   16.65
  -9   3  -1  123.59   22.42
  -6   9   1   59.64   21.87
  -6   9  -1   71.78   11.05
  -9   3  -1   83.79   12.58
  -3  -6  -1  100.70   21.80
  -3  -6   1   97.47   18.75
   9  -3  -1   57.32   29.55
   9  -3   1   57.21   10.26
   6  -9  -1   76.08   15.59
   6  -9   1   93.48   20.06
  -3  -6   1   72.77   12.43
   9  -3   2  269.01   45.80
   3   6   2  236.64   31.64
  -6   9   2  193.05   26.73
  -9   3   2  211.58   29.01
   3   6  -2  209.96   28.48
  -6   9  -2  216.93   27.84
  -9   3  -2  237.71   31.19
  -3  -6  -2  272.88   40.38
   9  -3  -2  217.29   28.82
   6  -9  -2  239.90   31.94
   6  -9   2  261.33   37.24
  -3  -6   2  212.55   30.39
   9  -3   3   42.11   16.76
   3   6   3   45.81   12.02
  -6   9   3   33.65    9.61
  -9   3   3   39.79   10.94
   3   6  -3   28.80   11.01
  -6   9  -3   31.91   14.07
  -9   3  -3   45.74    9.80
  -3  -6  -3   43.80   13.37
   9  -3  -3   35.59    9.80
   6  -9  -3   32.90    8.98
   6  -9   3   39.20   11.90
  -3  -6   3   32.62    8.82
   9  -3   4   17.38    7.76
   3   6   4   10.65    5.87
  -6   9   4   10.82    9.06
  -9   3   4   24.70    8.84
   3   6  -4   10.07    3.88
  -6   9  -4   12.66    5.93
  -9   3  -4   13.96    7.22
  -3  -6  -4   20.79   12.38
   9  -3  -4   15.27    7.63
   6  -9  -4   10.10    5.75
   6  -9   4   14.74   14.46
  -3  -6   4   25.71   11.25
   9  -3   5   40.00   18.15
   3   6   5   54.09   15.47
  -6   9   5   40.02   11.39
  -9   3   5   67.22   15.67
   3   6  -5   32.21   11.62
  -6   9  -5   40.24   22.31
  -9   3  -5   71.37   15.60
  -3  -6  -5   42.10   13.90
   9  -3  -5   49.83   32.90
   6  -9  -5   45.59   28.89
   6  -9   5   61.44   16.14
  -3  -6   5   53.12   13.76
   2   7   0   73.40   11.99
  -7   9   0   21.72    6.33
  -7   9   0   26.54   11.67
  -9   2   0   50.37    9.61
  -2  -7   0   96.58   19.57
   9  -2   0   26.38   11.27
   7  -9   0   43.30   11.85
   2   7   1   39.62    8.50
  -7   9   1   33.85    7.76
  -7   9  -1   30.90    7.32
  -9   2   1   51.13   14.02
  -9   2  -1   68.26   18.75
  -7   9   1   22.24    9.31
  -7   9  -1   29.86   13.01
  -9   2  -1   46.83    9.25
  -9   2   1   63.79   11.89
  -2  -7  -1   82.52   21.92
   9  -2  -1   31.46   15.00
   7  -9   1   52.92   15.78
  -2  -7  -1   34.11    7.08
  -2  -7   1   30.93    8.33
   9  -2   2    6.67    5.49
   2   7   2   10.58    5.22
  -7   9   2    5.65    4.39
  -9   2   2    7.93    8.89
   2   7  -2    8.35    3.05
  -7   9  -2    6.35    2.66
  -9   2  -2    5.22    5.58
  -2  -7  -2   10.89   10.30
   9  -2  -2    3.76    2.31
   7  -9  -2    7.45    7.89
   7  -9   2   17.49   16.12
  -2  -7   2   13.88    7.99
   9  -2   3   42.83   15.57
   2   7   3   41.69   10.42
  -7   9   3   36.92   11.96
  -9   2   3   53.43   10.48
   2   7  -3   30.83   11.05
  -7   9  -3   36.43    8.36
  -9   2  -3   54.31   25.01
  -2  -7  -3   49.78   14.05
   9  -2  -3   35.63   21.02
   7  -9  -3   37.02   23.92
   7  -9   3   42.25   12.10
  -2  -7   3   48.79   12.18
   9  -2   4   23.29    8.30
   2   7   4   38.86   10.52
  -7   9   4   25.87    9.74
  -9   2   4   25.35    7.75
   2   7  -4   29.46   12.40
  -7   9  -4   13.53    5.11
  -9   2  -4   29.63    8.62
  -2  -7  -4   71.48   21.51
   9  -2  -4   22.28    7.50
   7  -9  -4   20.81    8.55
   7  -9   4   37.32   14.54
  -2  -7   4   59.13   14.93
   9  -2   5   16.63    8.18
   2   7   5   14.03    9.13
  -7   9   5   25.51   10.19
  -9   2   5   30.86    9.57
   2   7  -5   13.21    6.73
  -7   9  -5   18.88    6.86
  -9   2  -5   30.10   10.08
  -2  -7  -5   18.64   11.39
   9  -2  -5   16.74    5.67
   7  -9  -5   11.18    5.82
   7  -9   5   21.98   13.91
  -2  -7   5   13.60   10.29
  -8   9   0   32.90    8.63
  -9   1   0   39.21   13.69
  -8   9   0   38.60    8.04
  -9   1   0   36.77    9.45
  -1  -8   0   92.75   19.77
   9  -1   0   21.01    7.02
   8  -9   0   68.01   16.75
  -1  -8   0   71.73   12.30
   9  -1   1   -1.40    6.81
   1   8   1    1.13    3.87
  -8   9   1    2.02    4.73
  -8   9  -1   -2.49    4.30
  -9   1   1    5.87    8.93
   1   8  -1    2.43    3.42
  -8   9  -1    0.23    1.51
  -9   1  -1    3.31    4.90
  -9   1   1    3.99    5.41
  -1  -8  -1   -2.43   11.53
   9  -1  -1    0.42    2.00
   8  -9  -1   -8.43    8.57
   8  -9   1   10.49   15.15
  -1  -8  -1    4.38    3.95
  -1  -8   1   -1.66    5.50
   9  -1   2  395.57   92.47
   1   8   2  260.93   34.77
  -8   9   2  337.19   44.52
  -9   1   2  421.23   98.14
   1   8  -2  256.86   34.66
  -8   9  -2  285.64   38.22
  -9   1  -2  291.00   38.93
  -1  -8  -2  437.31  103.51
   9  -1  -2  263.58   34.65
   8  -9   2  395.93   93.30
  -1  -8   2  339.67   45.18
   1   8   3    8.31    5.90
  -8   9   3    8.80    8.26
  -9   1   3    0.62    5.76
   1   8  -3    1.26    3.06
  -8   9  -3    5.80    4.14
  -9   1  -3   13.85    8.33
  -1  -8  -3   12.77   10.80
   9  -1  -3    3.35    3.05
   8  -9  -3    3.72    6.54
   8  -9   3    8.54   10.57
  -1  -8   3    6.90    8.77
   9  -1   4   32.12   17.23
   1   8   4   56.32   15.16
  -8   9   4   38.45   12.47
  -9   1   4   30.76    9.56
   1   8  -4   30.60   14.25
  -8   9  -4   31.52    9.15
  -9   1  -4   33.63   15.61
  -1  -8  -4   93.88   26.76
   9  -1  -4   24.96   12.16
   8  -9  -4   39.24   23.11
   8  -9   4   52.78   18.19
  -1  -8   4   66.69   17.98
   9  -1   5   -0.45    7.39
   1   8   5    2.59    6.20
  -8   9   5    7.05    6.98
  -9   1   5    0.16    4.40
   1   8  -5    2.77    3.17
  -8   9  -5    0.99    4.41
  -9   1  -5   -1.66    6.47
  -1  -8  -5    2.95    9.88
   9  -1  -5    3.10    3.17
   8  -9  -5    3.33    5.22
   8  -9   5   -0.05    8.91
  -1  -8   5   -2.44    7.10
   9   0   0  584.11  106.52
  -9   9   0  291.78   67.92
   0   9   0  407.07   94.17
  -9   0   0  476.17   86.11
   9  -9   0  387.42   90.80
   0  -9   0  527.23   94.79
   9   0   1   10.44    7.25
   0   9   1    6.51    4.81
  -9   9   1    4.23    5.25
  -9   9  -1   -1.01    4.99
  -9   0   1    4.43    7.47
   0   9  -1    6.29    6.10
  -9   9  -1    2.70    1.93
  -9   0  -1    8.14    5.00
  -9   0   1    9.43    9.81
   0  -9  -1   11.91    9.98
   9   0  -1    5.01    2.80
   9  -9  -1    5.52    8.70
   9  -9   1   10.29   14.32
   0  -9  -1   13.28    7.85
   0  -9   1   18.98    8.70
   9   0   2    6.17    5.02
   0   9   2    7.64    4.38
  -9   9   2    5.09    5.96
  -9   9  -2    5.67    5.84
  -9   0   2    9.59   12.16
   0   9  -2    5.64    3.71
  -9   9  -2    2.52    2.75
  -9   0  -2    3.02    4.88
   0  -9  -2   15.80   13.21
   9   0  -2    4.21    3.07
   9  -9  -2    4.44    8.32
   9  -9   2    9.73   10.83
   0  -9   2   18.87   10.67
   9   0   3    4.06    6.67
   0   9   3    8.20    7.62
  -9   9   3    7.40    6.56
  -9   0   3   13.44   11.01
   0   9  -3    5.70    4.87
  -9   9  -3    5.05    3.27
  -9   0  -3    9.59    6.92
   0  -9  -3   25.37   17.89
   9   0  -3    2.60    2.59
   9  -9  -3    1.97    3.67
   9  -9   3    5.30   10.42
   0  -9   3   10.71    9.98
   0   9   4  248.67   57.64
  -9   9   4  241.25   47.18
  -9   0   4  330.30   62.27
   0   9  -4  159.06   58.33
  -9   9  -4  203.44   37.99
  -9   0  -4  291.85   55.15
   0  -9  -4  411.06   79.22
   9   0  -4  164.90   31.84
   9  -9  -4  227.28   44.12
   9  -9   4  268.73   53.00
   0  -9   4  341.00   64.75
   9   1   0   21.65   12.47
 -10   9   0   16.87    6.76
  -1  10   0   20.60   11.01
  -9  -1   0   20.70    9.88
  10  -9   0   27.33   13.32
   1 -10   0   21.39   10.02
   9   1  -1   23.39   18.55
   9   1   1   23.47   11.31
 -10   9   1   23.97    9.95
 -10   9  -1   20.39    9.77
  -1  10   1   11.12    4.81
  -1  10  -1   10.47    5.06
  -9  -1  -1   30.15   11.11
  -9  -1   1   21.92   10.34
  10  -9  -1   15.98    8.44
  10  -9   1   14.02   13.27
   1 -10  -1   16.03    7.19
   1 -10   1   17.51    9.47
   9   1   2    1.68    3.61
 -10   9   2    2.66    6.23
 -10   9  -2    8.83    9.48
  -9  -1   2    9.68    9.43
  -1  10  -2    3.01    2.11
 -10   9  -2    0.37    2.45
  -9  -1  -2    8.64    6.81
   1 -10  -2   31.66   15.18
   9   1  -2    2.09    2.03
  10  -9  -2   -0.34    4.28
  10  -9   2    9.00   11.43
   1 -10   2    4.87    6.58
   9   1   3   21.38   12.37
  -1  10   3   10.82    6.56
 -10   9   3   23.25   10.06
  -9  -1   3   43.19   14.16
 -10   9  -3   19.97    6.40
  -9  -1  -3   30.55   10.90
   1 -10  -3   51.75   18.51
   9   1  -3    9.92    7.29
  10  -9  -3   14.08    9.02
  10  -9   3   27.95   13.86
   1 -10   3   25.86   12.27
   8   2   0   23.04   11.24
 -10   8   0   18.07    9.60
  -2  10   0    6.97    2.63
  -8  -2   0   11.76   10.00
  10  -8   0   15.42   11.70
   2 -10   0   13.10    9.10
   8   2  -1  121.79   48.34
   8   2   1   97.03   38.38
 -10   8   1   83.12   22.29
 -10   8  -1   96.29   25.44
  -2  10   1  104.87   30.68
  -2  10  -1   87.27   24.40
  -8  -2  -1  115.67   30.34
  -8  -2   1  148.36   37.95
  10  -8  -1   93.93   24.57
  10  -8   1   99.06   26.96
   2 -10  -1  131.65   33.02
   2 -10   1  156.96   39.77
   8   2   2  157.08   40.77
  -2  10   2  114.61   23.04
 -10   8   2  127.69   25.96
 -10   8  -2  158.04   32.81
  -2  10   2  123.99   24.88
  -2  10  -2   89.52   40.89
 -10   8  -2  138.49   25.80
  -8  -2  -2  143.79   29.69
  -8  -2   2  197.23   39.32
   8   2  -2   65.58   34.07
  10  -8  -2  127.92   38.00
  10  -8   2  145.99   31.16
   2 -10  -2  216.18   41.84
   2 -10   2  202.87   40.72
  10  -8   3   64.86   37.58
   8   2   3  110.27   49.43
  -2  10   3   65.88   33.94
 -10   8   3   99.17   22.81
  -8  -2   3  128.66   28.42
  -2  10  -3   72.18   30.79
 -10   8  -3   94.00   19.82
  -8  -2  -3   74.12   17.94
   2 -10  -3  182.00   35.97
   8   2  -3   56.64   17.26
  10  -8  -3   84.62   41.66
  10  -8   3  108.52   26.70
   2 -10   3  132.36   29.36
   8   2   4    6.11    7.87
  -2  10   4    0.91    3.66
 -10   8   4   15.68    9.53
  -8  -2   4   12.97    6.77
 -10   8  -4    8.61    6.07
  -8  -2  -4   13.32    9.27
   2 -10  -4    9.79    9.52
   8   2  -4   10.26    5.08
  10  -8  -4    8.25    4.08
  10  -8   4    6.11    6.89
   2 -10   4    2.22    7.54
   7   3   0  277.50   69.36
 -10   7   0  172.90   26.64
  -3  10   0   95.18   34.13
  -7  -3   0  297.02   43.94
  10  -7   0  145.80   23.39
   3 -10   0  209.66   31.38
   7   3  -1  235.89   68.62
   7   3   1  185.39   70.83
 -10   7   1  121.82   30.65
 -10   7  -1  177.82   44.42
  -3  10   1  116.75   34.66
  -3  10  -1  110.24   31.22
  -7  -3  -1  204.00   50.61
  -7  -3   1  296.21   71.39
  10  -7  -1  129.76   32.11
  10  -7   1  141.75   35.35
   3 -10  -1  213.52   51.37
   3 -10   1  197.29   48.00
   7   3  -2    3.91    4.51
   7   3   2    5.43    4.92
  -3  10   2   14.71    6.61
 -10   7   2    9.76    7.56
 -10   7  -2   -1.47    7.86
  -3  10   2   14.04    7.74
  -3  10  -2   10.62    4.69
 -10   7  -2    5.81    3.33
  -7  -3  -2   -0.22    7.15
  -7  -3   2    2.83    6.35
   7   3  -2    2.39    3.18
  10  -7  -2   11.70    5.89
  10  -7   2    4.28    6.72
   3 -10  -2   19.75    9.55
   3 -10   2   24.57   11.36
  10  -7   3  112.12   59.22
   7   3   3  190.05   65.59
  -3  10   3  119.23   23.90
 -10   7   3  156.56   30.92
   7   3  -3  115.27   37.29
  -3  10  -3  106.38   38.79
 -10   7  -3  145.68   27.38
  -7  -3  -3  162.27   32.88
   3 -10  -3  226.29   41.82
  10  -7  -3  141.36   29.31
   3 -10  -3  213.47   39.37
  10  -7   3  129.80   27.18
   3 -10   3  207.48   39.62
  -7  -3   3  159.91   31.07
  10  -7   4   51.08   26.52
   7   3   4  157.88   44.91
  -3  10   4   66.41   15.14
 -10   7   4  124.49   25.50
  -3  10  -4   59.81   23.04
 -10   7  -4  111.97   21.24
  -7  -3  -4  144.36   28.93
  10  -7  -4   80.63   46.40
   3 -10   4  119.83   25.63
  -7  -3   4  117.71   23.15
   6   4   0   27.27    9.58
 -10   6   0   27.25    8.85
  -4  10   0   16.50    7.03
  -6  -4   0   33.09   14.50
  10  -6   0   18.85    7.74
   4 -10   0   26.72    9.43
   6   4   1    2.12    5.49
  -4  10   1    2.21    4.35
 -10   6   1    4.08    6.51
 -10   6  -1    0.65    8.74
  -4  10   1    1.95    3.19
  -4  10  -1    1.49    2.49
 -10   6  -1    1.78    2.42
  -6  -4  -1    2.93    9.63
  -6  -4   1   13.41    9.83
  10  -6  -1    2.02    2.80
  10  -6   1    3.71    5.94
   4 -10  -1    8.04    8.17
   4 -10   1    9.59    9.62
  -6  -4   1    3.20    2.86
   6   4  -2    2.35    3.40
   6   4   2    6.17    7.13
  -4  10   2    8.98    4.64
 -10   6  -2    9.42   10.74
  -4  10   2   10.31    6.15
  -4  10  -2    9.36    3.39
 -10   6  -2    5.64    3.48
  -6  -4  -2    3.06    8.66
  -6  -4   2    1.46    8.12
  10  -6  -2    9.18    5.72
  10  -6   2    5.86    6.19
   4 -10  -2    6.06    7.31
   4 -10   2   10.52    8.62
  -6  -4   2    1.78    4.47
  10  -6   3    4.94    4.82
   6   4   3    2.93    5.27
  -4  10   3    1.01    4.54
 -10   6   3   -1.82    5.85
   6   4  -3    2.81    3.12
  -4  10  -3    0.40    2.28
 -10   6  -3    3.78    3.66
  -6  -4  -3    2.94    7.50
  10  -6  -3    3.46    4.28
   4 -10  -3    1.16    5.68
  10  -6   3   -3.48    5.54
   4 -10   3    6.27    9.65
  -6  -4   3   13.44    8.25
  10  -6   4   20.34   14.88
   6   4   4   30.63   14.83
  -4  10   4   21.35    7.37
 -10   6   4   33.43   11.22
   6   4  -4   12.39    7.32
  -4  10  -4   23.94   12.01
 -10   6  -4   28.27    8.60
  -6  -4  -4   23.31   11.12
  10  -6  -4   32.15   13.15
   4 -10  -4   26.47   10.00
   4 -10   4   27.49   11.83
  -6  -4   4   19.08    7.62
   5   5   0  134.22   51.69
 -10   5   0  109.32   19.29
  -5  10   0   68.05   21.15
  -5  -5   0  186.07   31.45
  10  -5   0   60.03   31.22
   5 -10   0  133.96   23.48
   5   5  -1   44.00   17.23
   5   5   1   45.78   16.11
  -5  10   1   18.25    4.57
 -10   5   1   40.81   11.68
 -10   5  -1   54.24   17.07
  -5  10   1   21.01   10.33
  -5  10  -1   21.86   10.42
 -10   5  -1   41.94    7.59
  -5  -5  -1   35.41   12.18
  -5  -5   1   51.76   17.02
  10  -5  -1   26.77    9.86
  10  -5   1   22.60    6.72
   5 -10  -1   45.59   13.07
   5 -10   1   34.81   10.57
  -5  -5   1   29.52    6.96
   5   5  -2   97.75   39.43
   5   5   2  102.50   45.63
  -5  10   2   63.91   16.97
 -10   5   2   99.73   25.57
 -10   5  -2  163.61   43.70
   5   5  -2   67.17   18.17
  -5  10   2   52.33   25.73
  -5  10  -2   65.01   27.41
 -10   5  -2   99.03   23.94
  -5  -5  -2   71.04   22.07
  10  -5  -2   78.69   27.04
  10  -5   2   71.68   18.82
   5 -10  -2   86.50   23.61
   5 -10   2   94.96   26.19
  -5  -5   2   58.43   16.18
  10  -5   3   27.52    9.90
   5   5   3   29.83   14.47
  -5  10   3   22.10    7.85
 -10   5   3   28.65    9.38
   5   5  -3   23.61    9.90
  -5  10  -3   20.51    5.90
 -10   5  -3   26.44    6.83
  -5  -5  -3   27.54   10.80
  10  -5  -3   22.52   12.94
   5 -10  -3   27.19   10.59
   5 -10   3   26.79   10.58
  -5  -5   3   27.11    8.85
  10  -5   4   38.79   18.57
   5   5   4   69.18   17.14
  -5  10   4   43.15   11.40
 -10   5   4   48.41   12.86
   5   5  -4   42.08   17.72
  -5  10  -4   46.92   18.71
 -10   5  -4   49.52   11.02
  -5  -5  -4   73.70   18.62
  10  -5  -4   40.62   26.87
   5 -10  -4   70.07   16.08
   5 -10   4   75.49   21.25
  -5  -5   4   51.64   29.47
   4   6   0  125.20   37.55
 -10   4   0  122.78   23.22
  -6  10   0   76.92   12.68
  -4  -6   0  173.47   30.70
  10  -4   0   67.42   27.49
   6 -10   0  120.05   21.15
   4   6  -1   74.66   29.37
   4   6   1   83.50   28.49
  -6  10   1   66.04   10.95
 -10   4   1   68.81   13.72
 -10   4  -1   94.20   21.42
  -6  10   1   68.16   15.56
  -6  10  -1   86.72   33.79
 -10   4  -1   66.86   10.91
  -4  -6   1  100.87   22.00
  10  -4  -1   54.33   30.21
  10  -4   1   58.76   10.56
   6 -10  -1  102.05   19.67
  -4  -6   1   63.30   11.93
   4   6   2    4.85    6.36
  -6  10   2    3.80    3.88
 -10   4   2    4.85    6.50
   4   6  -2    3.99    6.21
  -6  10  -2    5.51    2.61
 -10   4  -2    4.94    4.36
  -4  -6  -2    5.06   11.12
  10  -4  -2    5.35    5.17
   6 -10  -2    7.67    7.31
   6 -10   2    5.22   10.90
  -4  -6   2    2.06    4.55
  10  -4   3   48.78   19.22
   4   6   3   56.11   14.42
  -6  10   3   49.36   12.52
 -10   4   3   42.81   12.46
   4   6  -3   36.98   15.63
  -6  10  -3   51.77   17.01
 -10   4  -3   48.04   11.32
  -4  -6  -3   45.83   14.26
  10  -4  -3   50.04   15.39
   6 -10  -3   61.19   15.19
   6 -10   3   62.03   18.61
  -4  -6   3   48.51   13.00
  10  -4   4   45.53   29.62
   4   6   4   76.50   17.57
  -6  10   4   45.04   12.30
 -10   4   4   69.55   16.40
   4   6  -4   39.07   20.15
  -6  10  -4   49.27   18.19
 -10   4  -4   66.50   14.70
  -4  -6  -4   87.88   22.26
  10  -4  -4   51.97   22.58
   6 -10  -4   65.32   15.54
   6 -10   4   77.69   20.92
  -4  -6   4   82.52   18.65
   3   7   0  117.58   20.03
  -7  10   0  104.07   15.23
 -10   3   0  196.48   32.05
  -7  10   0  120.48   17.90
  10  -3   0   74.97   31.79
  -3  -7   0  105.17   15.88
   3   7   1  207.00   48.92
  -7  10   1  116.61   28.14
 -10   3  -1  241.06   60.00
  -7  10  -1  139.84   33.17
 -10   3  -1  150.70   35.98
  -3  -7  -1  275.03   67.58
  -3  -7   1  271.90   65.85
  10  -3  -1  128.81   31.00
   7 -10  -1  198.03   48.55
   7 -10   1  183.72   45.63
  -3  -7   1  198.66   46.98
  10  -3   2    6.59    6.59
   3   7   2   16.03    8.25
  -7  10   2    2.05    4.87
 -10   3   2   16.51    9.83
   3   7  -2   14.69    7.89
  -7  10  -2    4.25    3.33
  -3  -7  -2   11.56   11.46
  10  -3  -2    5.12    3.97
   7 -10  -2   16.46   12.56
   7 -10   2    8.66   12.09
  -3  -7   2   14.15    8.01
  10  -3   3  115.23   43.88
   3   7   3  135.79   46.91
  -7  10   3   85.81   39.24
 -10   3   3  111.92   23.59
   3   7  -3   99.69   33.48
  -7  10  -3  103.46   33.21
 -10   3  -3  140.32   27.32
  -3  -7  -3  186.69   39.40
  10  -3  -3  100.84   20.85
   7 -10  -3  138.30   28.02
   7 -10   3  135.76   30.03
  -3  -7   3  149.82   29.46
  10  -3   4   89.96   38.71
   3   7   4   86.10   19.49
  -7  10   4   98.30   20.34
 -10   3   4  101.18   20.81
   3   7  -4   50.24   21.70
  -7  10  -4  105.08   19.99
 -10   3  -4  115.38   22.94
  -3  -7  -4  103.21   26.41
  10  -3  -4   82.79   30.77
   7 -10  -4  119.58   24.27
   7 -10   4  148.97   32.32
  -3  -7   4   74.40   18.05
  -8  10   0   26.74    8.81
 -10   2   0   31.89    9.97
  -2  -8   0   71.18   25.04
   8 -10   0   47.37   15.97
  -2  -8   0   48.03   13.44
   2   8   1   45.48   13.48
  -8  10   1   14.77    5.93
 -10   2   1   48.87   18.11
   2   8  -1   52.07   14.49
  -8  10  -1   16.02    8.21
 -10   2  -1   30.96    9.38
  -2  -8  -1   92.73   29.06
  10  -2  -1   20.44    7.29
   8 -10  -1   34.68   12.98
   8 -10   1   47.55   20.68
  -2  -8   1   54.02   15.41
   2   8   2   97.58   20.25
  -8  10   2   81.00   17.58
 -10   2   2  154.25   31.60
   2   8  -2   80.52   33.63
  -8  10  -2   78.52   20.37
 -10   2  -2  110.53   22.31
  -2  -8  -2  132.94   31.56
  10  -2  -2   76.36   31.20
   8 -10  -2   84.62   18.94
   8 -10   2  115.78   25.58
  -2  -8   2  125.83   26.58
  10  -2   3   31.32   22.49
   2   8   3   39.62   11.57
  -8  10   3   16.50    8.29
 -10   2   3   34.58   12.14
   2   8  -3   24.77   12.65
  -8  10  -3   14.04    8.45
 -10   2  -3   33.38    9.87
  -2  -8  -3   51.87   20.22
  10  -2  -3   23.10    9.67
   8 -10  -3   32.26   12.33
   8 -10   3   21.45   11.72
  -2  -8   3   46.96   14.36
  10  -2   4   24.05   14.41
   2   8   4   28.16   11.54
  -8  10   4   13.71    9.44
 -10   2   4   25.09    8.42
   2   8  -4   13.96    6.69
  -8  10  -4   19.23    6.73
 -10   2  -4   25.71    9.43
  -2  -8  -4   38.46   17.53
  10  -2  -4   19.13   12.62
   8 -10  -4   17.56   13.20
   8 -10   4   34.68   15.14
  -2  -8   4   31.97   11.58
  -9  10   0    0.47    4.37
 -10   1   0    4.87    9.14
   1   9   0    7.63    7.05
 -10   1   0   10.25    6.63
   9 -10   0    7.83   10.77
  -1  -9   0    1.07    4.12
  10  -1   1   11.79    6.44
  -9  10   1   14.65    7.13
 -10   1   1   14.85    9.50
   1   9  -1    7.86    3.18
 -10   1  -1    9.69    4.94
  -1  -9  -1   26.89   13.19
   9 -10  -1   12.61    8.58
   9 -10   1    2.30   11.06
  -1  -9   1   10.49    5.82
  10  -1   2   20.75   11.44
   1   9   2   42.23   10.92
  -9  10   2   20.45    8.54
 -10   1   2   26.79   13.23
   1   9  -2   31.03   15.63
  -9  10  -2   16.84    4.49
 -10   1  -2   15.29    6.22
  -1  -9  -2   73.05   22.98
  10  -1  -2   12.70    7.62
   9 -10  -2   31.86   10.94
   9 -10   2   39.91   16.62
  -1  -9   2   53.41   15.26
   1   9   3   18.98    8.92
  -9  10   3   21.15   10.19
 -10   1   3   33.70   12.93
   1   9  -3   14.26    6.59
  -9  10  -3   14.73    5.50
 -10   1  -3   14.31    8.78
  -1  -9  -3   13.40   10.93
  10  -1  -3   11.57    7.52
   9 -10  -3   17.94    8.47
   9 -10   3   22.53   11.14
  -1  -9   3   19.03   10.00
  10   0   0   97.29   49.12
 -10  10   0   71.94   15.71
   0  10   0   32.33   16.99
 -10   0   0   84.60   20.16
  10 -10   0   72.17   21.17
   0 -10   0   53.99   13.67
  10   0   1   10.86    9.09
 -10  10   1   10.09    5.87
 -10   0   1   14.78    9.02
   0  10   1   14.16    6.44
   0  10  -1   11.81    7.73
 -10   0  -1    5.17    5.94
  10 -10  -1   15.42   12.39
  10 -10   1   15.97   10.89
   0 -10   1   15.05    8.16
  10   0   2    6.93    5.04
 -10  10   2    4.68    5.55
 -10   0   2   17.33   12.60
 -10   0  -2    0.91    5.27
   0 -10  -2   12.25   11.72
  10 -10  -2    1.01    8.65
  10 -10   2   10.41   11.11
   0 -10   2    8.35    6.91
   9   2   0   67.24   39.88
 -11   9   0   51.23   14.42
  -2  11   0   22.60   11.19
  -9  -2   0   87.00   22.14
  11  -9   0   35.20   11.79
   2 -11   0   70.19   19.10
   9   2  -1   29.06   14.92
   9   2   1   34.65   19.08
 -11   9   1   18.74   10.12
 -11   9  -1   26.07   11.73
  -2  11   1   12.94    6.14
  -2  11  -1   10.63    6.94
  -9  -2  -1   29.15   12.80
  -9  -2   1   42.92   14.71
  11  -9  -1   15.42    8.39
  11  -9   1   18.85   13.07
   2 -11  -1   32.93   12.30
   2 -11   1   21.89   10.01
   8   3   0   10.90    5.27
 -11   8   0    3.33    7.45
  -3  11   0   11.84    6.20
  -8  -3   0   45.79   17.63
  11  -8   0   11.75    7.77
   3 -11   0   25.23   12.52
   8   3  -1   10.56   10.18
   8   3   1    6.17    4.15
 -11   8   1    6.49    6.78
 -11   8  -1    8.45    8.61
  -3  11   1    6.76    4.56
  -3  11  -1   -1.31    3.66
  -8  -3  -1    0.48    7.52
  -8  -3   1    2.41    8.97
  11  -8  -1    6.32    7.45
  11  -8   1    2.85    7.49
   3 -11  -1    4.03    7.40
   3 -11   1   13.60   10.56
   8   3  -2    9.75    8.48
   8   3   2   11.56    7.23
 -11   8   2   13.27    7.51
 -11   8  -2   23.27   12.20
  -3  11   2   12.11    8.57
  -3  11  -2   10.88    7.33
  -8  -3  -2    7.21    9.04
  -8  -3   2   -0.41    7.12
  11  -8  -2   13.16    9.45
  11  -8   2   20.29   11.50
   3 -11  -2    9.61    7.30
   3 -11   2   16.63   12.36
   7   4   0   27.12   13.46
 -11   7   0   32.21   12.94
  -4  11   0   12.71    6.35
  -7  -4   0   29.21   15.11
  11  -7   0   25.04   10.33
   4 -11   0   21.63   11.90
   7   4  -1    8.90    6.59
   7   4   1    9.11    4.68
 -11   7   1   11.74    7.51
 -11   7  -1    9.45    8.90
  -4  11   1   10.39    5.26
  -4  11  -1    8.26    6.96
  -7  -4  -1    1.03    9.37
  -7  -4   1    8.65    9.36
  11  -7  -1    5.50   10.31
  11  -7   1   12.54    9.49
   4 -11  -1   16.69   11.60
   4 -11   1    6.78    8.33
   7   4  -2   76.57   40.24
   7   4   2   88.80   35.83
 -11   7   2   73.49   17.47
 -11   7  -2   94.42   23.03
  -4  11   2   40.57   29.92
  -4  11  -2   47.67   16.81
  -7  -4  -2  110.35   25.05
  -7  -4   2  137.23   28.89
  11  -7  -2   52.83   28.13
  11  -7   2   66.97   16.72
   4 -11  -2  119.01   25.68
   4 -11   2   99.81   23.39
  11  -7   3   10.54    6.83
  -4  11   3    8.05    4.61
 -11   7   3   10.87    9.67
   7   4  -3    5.35    3.46
  -4  11  -3    7.08    3.86
 -11   7  -3   11.91    4.66
  -7  -4  -3    2.15    7.76
  11  -7  -3    7.57    5.55
   4 -11  -3   13.28    7.22
   4 -11   3   24.17   13.73
  -7  -4   3    5.12    5.49
   6   5   0  140.05   47.41
 -11   6   0  125.08   28.68
  -5  11   0   35.17   17.51
  -6  -5   0  185.13   39.89
  11  -6   0   69.05   16.28
   5 -11   0   89.51   20.93
   6   5  -1  157.58   59.22
   6   5   1  160.49   66.11
 -11   6   1  137.47   30.42
 -11   6  -1  196.04   39.66
  -5  11   1  115.66   23.79
  -5  11  -1   92.35   40.76
  -6  -5  -1  212.62   42.52
  -6  -5   1  252.63   48.56
  11  -6  -1  111.18   49.28
  11  -6   1  124.60   26.92
   5 -11  -1  173.28   33.76
   5 -11   1  205.48   39.15
   6   5   2    4.68    5.95
  -5  11   2    6.56    4.57
 -11   6   2   19.15   10.42
 -11   6  -2   19.66   12.46
   6   5  -2    6.64    4.76
  -5  11   2    7.26    4.48
  -5  11  -2   12.81    5.21
  -6  -5  -2   15.14   10.68
  11  -6  -2   10.87    5.24
   5 -11  -2   18.82   11.59
   5 -11   2    8.22    9.29
  -6  -5   2   -0.70    4.12
  11  -6   3  100.81   52.92
   6   5   3  145.58   55.66
  -5  11   3  112.17   22.74
 -11   6   3  152.33   31.54
   6   5  -3   90.66   48.41
  -5  11  -3   96.85   37.03
 -11   6  -3  128.11   24.90
  -6  -5  -3  162.90   35.89
  11  -6  -3  109.59   52.82
   5 -11  -3  158.82   32.52
  -6  -5   3  127.62   26.61
   5   6   0  141.58   57.64
 -11   5   0  188.05   38.66
  -6  11   0  125.75   26.53
  -5  -6   0  197.63   42.06
  11  -5   0  102.51   20.32
   6 -11   0  164.51   33.97
   5   6   1   93.88   34.18
 -11   5   1   77.20   20.25
 -11   5  -1  123.53   30.36
  -6  11   1   29.50   16.72
  -6  11  -1   47.23   12.83
  -5  -6  -1  129.77   30.43
  -5  -6   1  133.88   31.96
  11  -5  -1   48.00   24.78
  11  -5   1   47.66   11.68
   6 -11  -1   86.74   21.88
   6 -11   1   90.64   23.94
   5   6   2   17.26    9.79
  -6  11   2    3.07    4.15
 -11   5   2   11.99   10.38
   5   6  -2   14.10    7.94
 -11   5  -2   10.46    5.72
  11  -5  -2    4.66    3.16
   6 -11  -2   10.43    8.64
  -5  -6   2   15.12    6.88
  11  -5   3   34.44   20.66
   5   6   3   58.68   18.00
  -6  11   3   28.68    8.97
   5   6  -3   36.01   16.02
  -6  11  -3   26.71   10.26
 -11   5  -3   36.51    9.29
  -5  -6  -3   63.59   20.95
  11  -5  -3   24.28    9.10
   6 -11  -3   39.76   12.73
   6 -11   3   44.74   17.25
  -5  -6   3   47.04   13.03
 -11   4   0   94.28   24.93
  -7  11   0   28.95   15.55
  -4  -7   0   53.21   17.05
  11  -4   0   24.60   14.00
   7 -11   0   40.96   14.38
   4   7   1   17.49    7.11
 -11   4   1   31.34   14.55
 -11   4  -1   19.97   15.24
  -7  11  -1   19.70   11.12
  -4  -7  -1   27.34   13.03
  -4  -7   1   36.37   14.89
  11  -4  -1   12.25    6.07
   7 -11  -1   39.58   15.31
   7 -11   1   24.27   12.03
  11  -4   2   51.18   27.49
   4   7   2   69.84   16.36
  -7  11   2   42.29   10.58
   4   7  -2   46.88   20.88
  -7  11  -2   39.48   16.89
 -11   4  -2   44.80   24.39
  -4  -7  -2   74.29   22.43
  11  -4  -2   37.83   15.01
   7 -11  -2   70.86   18.89
   7 -11   2   62.53   17.92
  -4  -7   2   71.70   16.09
  11  -4   3   23.99   15.25
   4   7   3   24.48    9.69
  -7  11   3   16.46    9.81
 -11   4   3   21.87    9.91
   4   7  -3   13.08    8.41
  -7  11  -3   15.38    9.99
 -11   4  -3   13.69    9.77
  -4  -7  -3   41.38   18.22
  11  -4  -3   13.43    7.04
   7 -11  -3   39.87   12.51
   7 -11   3   38.80   14.01
  -4  -7   3   21.86    8.67
 -11   3   0    5.69   10.33
  -3  -8   0   10.32   12.87
   8 -11   0   11.88   10.28
  -8  11   1    2.22    3.84
 -11   3   1   10.70   12.98
   3   8  -1   17.66    9.53
  -8  11  -1    0.42    1.25
  -3  -8  -1    8.48   11.51
  11  -3  -1    1.45    1.63
   8 -11  -1   14.21   10.79
   8 -11   1    8.97   12.71
  11  -3   2    2.33    5.26
   3   8   2    3.31    7.33
  -8  11   2   -0.24    4.37
 -11   3   2    5.86   11.99
   3   8  -2    1.04    2.51
  -8  11  -2    2.88    1.89
 -11   3  -2    3.03    4.37
  -3  -8  -2    6.73   12.59
  11  -3  -2    1.18    4.16
   8 -11  -2    7.47   12.05
   8 -11   2    3.09   12.03
  -3  -8   2    4.70    5.43
 -11   2   0  186.12   39.74
  -2  -9   0  157.22   35.24
   9 -11   0  117.13   26.80
  11  -2   1  149.38   77.99
  -9  11   1   95.07   20.34
 -11   2   1  162.16   34.79
   2   9  -1  112.79   46.22
  -2  -9  -1  186.60   41.03
   9 -11  -1  150.25   33.80
   9 -11   1  170.57   38.54
 -12   6   0    9.78    9.95
  -6  12   0    5.51    3.09
  -6  -6   0   10.02   11.67
  12  -6   0    2.56    4.79
   6 -12   0   -0.17    9.20
   0   0   0    0.00    0.00
;
_shelx_hkl_checksum              70938
loop_
_space_group_symop_operation_xyz
'x, y, z'
'-y, x-y, z'
'-x+y, -x, z'
'-x, -y, z+1/2'
'y, -x+y, z+1/2'
'x-y, x, z+1/2'
'-x, -y, -z'
'y, -x+y, -z'
'x-y, x, -z'
'x, y, -z-1/2'
'-y, x-y, -z-1/2'
'-x+y, -x, -z-1/2'
loop_
_atom_site_label
_atom_site_type_symbol
_atom_site_fract_x
_atom_site_fract_y
_atom_site_fract_z
_atom_site_U_iso_or_equiv
_atom_site_adp_type
_atom_site_occupancy
_atom_site_site_symmetry_order
_atom_site_calc_flag
_atom_site_refinement_flags_posn
_atom_site_refinement_flags_adp
_atom_site_refinement_flags_occupancy
_atom_site_disorder_assembly
_atom_site_disorder_group
Tb1 Tb 0.75848(10) 0.76602(10) 0.2500 0.0127(4) Uani 1 2 d S T P . .
Tb2 Tb 0.3333 0.6667 -0.00072(17) 0.0195(4) Uani 1 3 d S T P . .
Si1 Si 0.6294(7) 1.0298(7) 0.2500 0.0062(11) Uani 0.6667 2 d S T P . .
B1 B 0.6294(7) 1.0298(7) 0.2500 0.0062(11) Uani 0.3333 2 d S T P . .
O1 O 0.5139(16) 0.8376(14) 0.2500 0.013(2) Uani 1 2 d S T P . .
O2 O 0.5297(15) 1.1282(14) 0.2500 0.016(3) Uani 1 2 d S T P . .
O3 O 1.0000 1.0000 0.2500 0.019(5) Uani 1 6 d S T P . .
O4 O 0.9099(10) 0.6550(12) 0.0626(12) 0.0153(19) Uani 1 1 d . . . . .
loop_
_atom_site_aniso_label
_atom_site_aniso_U_11
_atom_site_aniso_U_22
_atom_site_aniso_U_33
_atom_site_aniso_U_23
_atom_site_aniso_U_13
_atom_site_aniso_U_12
Tb1 0.0103(5) 0.0133(5) 0.0109(5) 0.000 0.000 0.0032(4)
Tb2 0.0254(5) 0.0254(5) 0.0078(5) 0.000 0.000 0.0127(3)
Si1 0.006(3) 0.006(3) 0.007(3) 0.000 0.000 0.004(2)
B1 0.006(3) 0.006(3) 0.007(3) 0.000 0.000 0.004(2)
O1 0.017(6) 0.009(6) 0.016(6) 0.000 0.000 0.008(5)
O2 0.016(6) 0.003(5) 0.024(7) 0.000 0.000 0.000(5)
O3 0.016(7) 0.016(7) 0.026(12) 0.000 0.000 0.008(3)
O4 0.014(4) 0.031(5) 0.004(4) 0.000(4) 0.001(3) 0.013(4)
loop_
_atom_type_symbol
_atom_type_description
_atom_type_scat_dispersion_real
_atom_type_scat_dispersion_imag
_atom_type_scat_source
B B 0.0013 0.0007 'International Tables Vol C Tables 4.2.6.8 and 6.1.1.4'
O O 0.0106 0.0060 'International Tables Vol C Tables 4.2.6.8 and 6.1.1.4'
Si Si 0.0817 0.0704 'International Tables Vol C Tables 4.2.6.8 and 6.1.1.4'
Tb Tb -0.1723 4.1537 'International Tables Vol C Tables 4.2.6.8 and 6.1.1.4'
loop_
_geom_angle_atom_site_label_1
_geom_angle_atom_site_label_2
_geom_angle_atom_site_label_3
_geom_angle
_geom_angle_site_symmetry_1
_geom_angle_site_symmetry_3
O3 Tb1 O4 104.9(2) . 8_565
O3 Tb1 O4 104.9(2) . 5_565
O4 Tb1 O4 135.3(5) 8_565 5_565
O3 Tb1 O2 151.1(3) . 3_565
O4 Tb1 O2 84.8(2) 8_565 3_565
O4 Tb1 O2 84.8(2) 5_565 3_565
O3 Tb1 O4 84.3(2) . .
O4 Tb1 O4 77.52(17) 8_565 .
O4 Tb1 O4 137.9(3) 5_565 .
O2 Tb1 O4 71.1(3) 3_565 .
O3 Tb1 O4 84.3(2) . 10_556
O4 Tb1 O4 137.9(3) 8_565 10_556
O4 Tb1 O4 77.52(17) 5_565 10_556
O2 Tb1 O4 71.1(3) 3_565 10_556
O4 Tb1 O4 62.4(4) . 10_556
O3 Tb1 O1 109.1(3) . .
O4 Tb1 O1 69.6(2) 8_565 .
O4 Tb1 O1 69.6(2) 5_565 .
O2 Tb1 O1 99.8(4) 3_565 .
O4 Tb1 O1 146.6(2) . .
O4 Tb1 O1 146.6(2) 10_556 .
O3 Tb1 B1 84.47(11) . 2_765
O4 Tb1 B1 107.7(2) 8_565 2_765
O4 Tb1 B1 107.7(2) 5_565 2_765
O2 Tb1 B1 66.7(3) 3_565 2_765
O4 Tb1 B1 31.2(2) . 2_765
O4 Tb1 B1 31.2(2) 10_556 2_765
O1 Tb1 B1 166.4(3) . 2_765
O3 Tb1 Si1 84.47(11) . 2_765
O4 Tb1 Si1 107.7(2) 8_565 2_765
O4 Tb1 Si1 107.7(2) 5_565 2_765
O2 Tb1 Si1 66.7(3) 3_565 2_765
O4 Tb1 Si1 31.2(2) . 2_765
O4 Tb1 Si1 31.2(2) 10_556 2_765
O1 Tb1 Si1 166.4(3) . 2_765
B1 Tb1 Si1 0.00(13) 2_765 2_765
O3 Tb1 Si1 80.38(10) . .
O4 Tb1 Si1 76.5(2) 8_565 .
O4 Tb1 Si1 76.5(2) 5_565 .
O2 Tb1 Si1 128.5(3) 3_565 .
O4 Tb1 Si1 145.2(2) . .
O4 Tb1 Si1 145.2(2) 10_556 .
O1 Tb1 Si1 28.7(3) . .
B1 Tb1 Si1 164.85(13) 2_765 .
Si1 Tb1 Si1 164.85(13) 2_765 .
O3 Tb1 Tb1 30.0 . 3_675
O4 Tb1 Tb1 94.7(2) 8_565 3_675
O4 Tb1 Tb1 94.7(2) 5_565 3_675
O2 Tb1 Tb1 178.9(3) 3_565 3_675
O4 Tb1 Tb1 109.8(2) . 3_675
O4 Tb1 Tb1 109.8(2) 10_556 3_675
O1 Tb1 Tb1 79.1(3) . 3_675
B1 Tb1 Tb1 114.47(11) 2_765 3_675
Si1 Tb1 Tb1 114.47(11) 2_765 3_675
Si1 Tb1 Tb1 50.38(10) . 3_675
O3 Tb1 Tb1 30.0 . 2_765
O4 Tb1 Tb1 111.3(2) 8_565 2_765
O4 Tb1 Tb1 111.3(2) 5_565 2_765
O2 Tb1 Tb1 121.1(3) 3_565 2_765
O4 Tb1 Tb1 59.3(2) . 2_765
O4 Tb1 Tb1 59.3(2) 10_556 2_765
O1 Tb1 Tb1 139.1(3) . 2_765
B1 Tb1 Tb1 54.47(11) 2_765 2_765
Si1 Tb1 Tb1 54.47(11) 2_765 2_765
Si1 Tb1 Tb1 110.38(10) . 2_765
Tb1 Tb1 Tb1 60.0 3_675 2_765
O1 Tb2 O1 73.3(3) 2_665 3_565
O1 Tb2 O1 73.3(3) 2_665 .
O1 Tb2 O1 73.3(3) 3_565 .
O1 Tb2 O2 93.9(3) 2_665 8_455
O1 Tb2 O2 125.9(4) 3_565 8_455
O1 Tb2 O2 153.6(4) . 8_455
O1 Tb2 O2 125.9(4) 2_665 7_675
O1 Tb2 O2 153.6(4) 3_565 7_675
O1 Tb2 O2 93.9(3) . 7_675
O2 Tb2 O2 74.8(3) 8_455 7_675
O1 Tb2 O2 153.6(4) 2_665 9_655
O1 Tb2 O2 93.9(3) 3_565 9_655
O1 Tb2 O2 125.9(4) . 9_655
O2 Tb2 O2 74.8(3) 8_455 9_655
O2 Tb2 O2 74.8(3) 7_675 9_655
O1 Tb2 O4 67.7(3) 2_665 9
O1 Tb2 O4 140.0(3) 3_565 9
O1 Tb2 O4 87.2(3) . 9
O2 Tb2 O4 66.6(3) 8_455 9
O2 Tb2 O4 59.1(3) 7_675 9
O2 Tb2 O4 125.4(3) 9_655 9
O1 Tb2 O4 87.2(3) 2_665 7_665
O1 Tb2 O4 67.7(3) 3_565 7_665
O1 Tb2 O4 140.0(3) . 7_665
O2 Tb2 O4 59.1(3) 8_455 7_665
O2 Tb2 O4 125.4(3) 7_675 7_665
O2 Tb2 O4 66.6(4) 9_655 7_665
O4 Tb2 O4 117.63(9) 9 7_665
O1 Tb2 O4 140.0(3) 2_665 8_565
O1 Tb2 O4 87.2(3) 3_565 8_565
O1 Tb2 O4 67.7(3) . 8_565
O2 Tb2 O4 125.4(3) 8_455 8_565
O2 Tb2 O4 66.6(4) 7_675 8_565
O2 Tb2 O4 59.1(3) 9_655 8_565
O4 Tb2 O4 117.63(9) 9 8_565
O4 Tb2 O4 117.63(9) 7_665 8_565
O1 Tb2 Si1 94.0(2) 2_665 8_455
O1 Tb2 Si1 97.7(3) 3_565 8_455
O1 Tb2 Si1 165.9(2) . 8_455
O2 Tb2 Si1 29.4(3) 8_455 8_455
O2 Tb2 Si1 98.5(2) 7_675 8_455
O2 Tb2 Si1 64.5(3) 9_655 8_455
O4 Tb2 Si1 93.5(2) 9 8_455
O4 Tb2 Si1 30.09(19) 7_665 8_455
O4 Tb2 Si1 123.6(2) 8_565 8_455
O1 Tb2 Si1 97.7(3) 2_665 7_675
O1 Tb2 Si1 165.9(2) 3_565 7_675
O1 Tb2 Si1 94.0(2) . 7_675
O2 Tb2 Si1 64.5(3) 8_455 7_675
O2 Tb2 Si1 29.4(3) 7_675 7_675
O2 Tb2 Si1 98.5(2) 9_655 7_675
O4 Tb2 Si1 30.09(19) 9 7_675
O4 Tb2 Si1 123.6(2) 7_665 7_675
O4 Tb2 Si1 93.5(2) 8_565 7_675
Si1 Tb2 Si1 93.59(8) 8_455 7_675
O1 Tb2 Si1 165.9(2) 2_665 9_655
O1 Tb2 Si1 94.0(2) 3_565 9_655
O1 Tb2 Si1 97.7(3) . 9_655
O2 Tb2 Si1 98.5(2) 8_455 9_655
O2 Tb2 Si1 64.5(3) 7_675 9_655
O2 Tb2 Si1 29.4(3) 9_655 9_655
O4 Tb2 Si1 123.6(2) 9 9_655
O4 Tb2 Si1 93.5(2) 7_665 9_655
O4 Tb2 Si1 30.09(19) 8_565 9_655
Si1 Tb2 Si1 93.59(8) 8_455 9_655
Si1 Tb2 Si1 93.59(8) 7_675 9_655
O1 Si1 O4 111.2(4) . 12_676
O1 Si1 O4 111.2(4) . 3_675
O4 Si1 O4 108.1(7) 12_676 3_675
O1 Si1 O2 113.1(7) . .
O4 Si1 O2 106.4(5) 12_676 .
O4 Si1 O2 106.4(5) 3_675 .
O1 Si1 Tb1 130.6(5) . 3_675
O4 Si1 Tb1 54.1(3) 12_676 3_675
O4 Si1 Tb1 54.1(3) 3_675 3_675
O2 Si1 Tb1 116.3(5) . 3_675
O1 Si1 Tb2 136.7(3) . 4_675
O4 Si1 Tb2 59.7(4) 12_676 4_675
O4 Si1 Tb2 111.7(4) 3_675 4_675
O2 Si1 Tb2 47.6(3) . 4_675
Tb1 Si1 Tb2 81.24(13) 3_675 4_675
O1 Si1 Tb2 136.7(3) . 7_675
O4 Si1 Tb2 111.7(4) 12_676 7_675
O4 Si1 Tb2 59.7(4) 3_675 7_675
O2 Si1 Tb2 47.6(3) . 7_675
Tb1 Si1 Tb2 81.24(13) 3_675 7_675
Tb2 Si1 Tb2 65.36(12) 4_675 7_675
O1 Si1 Tb1 55.5(5) . .
O4 Si1 Tb1 79.9(4) 12_676 .
O4 Si1 Tb1 79.9(4) 3_675 .
O2 Si1 Tb1 168.6(5) . .
Tb1 Si1 Tb1 75.15(13) 3_675 .
Tb2 Si1 Tb1 139.57(12) 4_675 .
Tb2 Si1 Tb1 139.57(12) 7_675 .
Si1 O1 Tb2 128.3(3) . 10_556
Si1 O1 Tb2 128.3(3) . .
Tb2 O1 Tb2 92.9(4) 10_556 .
Si1 O1 Tb1 95.8(6) . .
Tb2 O1 Tb1 103.8(3) 10_556 .
Tb2 O1 Tb1 103.8(3) . .
Si1 O2 Tb1 122.9(6) . 2_665
Si1 O2 Tb2 103.1(5) . 4_675
Tb1 O2 Tb2 115.7(4) 2_665 4_675
Si1 O2 Tb2 103.1(5) . 7_675
Tb1 O2 Tb2 115.7(4) 2_665 7_675
Tb2 O2 Tb2 90.9(4) 4_675 7_675
Tb1 O3 Tb1 120.0 3_675 2_765
Tb1 O3 Tb1 120.0 3_675 .
Tb1 O3 Tb1 120.0 2_765 .
B1 O4 Si1 0.0(4) 2_765 2_765
B1 O4 Tb1 141.8(5) 2_765 9_655
Si1 O4 Tb1 141.8(5) 2_765 9_655
B1 O4 Tb1 94.7(4) 2_765 .
Si1 O4 Tb1 94.7(4) 2_765 .
Tb1 O4 Tb1 116.5(4) 9_655 .
B1 O4 Tb2 90.2(4) 2_765 7_665
Si1 O4 Tb2 90.2(4) 2_765 7_665
Tb1 O4 Tb2 103.4(3) 9_655 7_665
Tb1 O4 Tb2 101.8(3) . 7_665
loop_
_geom_bond_atom_site_label_1
_geom_bond_atom_site_label_2
_geom_bond_distance
_geom_bond_site_symmetry_2
Tb1 O3 2.2017(8) .
Tb1 O4 2.308(8) 8_565
Tb1 O4 2.308(8) 5_565
Tb1 O2 2.373(13) 3_565
Tb1 O4 2.469(8) .
Tb1 O4 2.469(8) 10_556
Tb1 O1 2.658(12) .
Tb1 B1 3.039(6) 2_765
Tb1 Si1 3.039(6) 2_765
Tb1 Si1 3.211(6) .
Tb1 Tb1 3.8134(14) 3_675
Tb1 Tb1 3.8134(14) 2_765
Tb2 O1 2.363(9) 2_665
Tb2 O1 2.363(9) 3_565
Tb2 O1 2.363(9) .
Tb2 O2 2.389(8) 8_455
Tb2 O2 2.389(8) 7_675
Tb2 O2 2.389(8) 9_655
Tb2 O4 2.722(9) 9
Tb2 O4 2.722(9) 7_665
Tb2 O4 2.722(9) 8_565
Tb2 Si1 3.153(5) 8_455
Tb2 Si1 3.153(5) 7_675
Tb2 Si1 3.153(5) 9_655
Si1 O1 1.551(13) .
Si1 O4 1.581(9) 12_676
Si1 O4 1.581(9) 3_675
Si1 O2 1.588(13) .
Si1 Tb1 3.039(6) 3_675
Si1 Tb2 3.153(5) 4_675
Si1 Tb2 3.153(5) 7_675
O1 Tb2 2.363(9) 10_556
O2 Tb1 2.373(12) 2_665
O2 Tb2 2.389(8) 4_675
O2 Tb2 2.389(8) 7_675
O3 Tb1 2.2017(8) 3_675
O3 Tb1 2.2017(8) 2_765
O4 B1 1.581(9) 2_765
O4 Si1 1.581(9) 2_765
O4 Tb1 2.308(8) 9_655
O4 Tb2 2.722(9) 7_665
