#------------------------------------------------------------------------------
#$Date: 2021-03-03 12:35:44 +0200 (Wed, 03 Mar 2021) $
#$Revision: 262397 $
#$URL: file:///home/coder/svn-repositories/cod/cif/1/56/07/1560796.cif $
#------------------------------------------------------------------------------
#
# This file is available in the Crystallography Open Database (COD),
# http://www.crystallography.net/
#
# All data on this site have been placed in the public domain by the
# contributors.
#
data_1560796
loop_
_publ_author_name
'Zhuravlev, V.D.'
'Kellerman, D.G.'
'Tyutyunnik, A.P.'
'Chufarov, A.Yu.'
'Samigullina, R.F.'
_publ_section_title
;
 Synthesis, structure and magnetic properties of new \g-Ba(CoV1-xPxO4)2
 x&#x202F;=&#x202F;0.4--0.5
;
_journal_name_full               'Journal of Solid State Chemistry'
_journal_page_first              174
_journal_page_last               180
_journal_paper_doi               10.1016/j.jssc.2018.07.017
_journal_volume                  266
_journal_year                    2018
_chemical_formula_structural     'Ba Co2 V2 O8'
_chemical_formula_sum            'Ba Co2 O8 V2'
_chemical_formula_weight         485.07
_space_group_IT_number           142
_space_group_name_Hall           '-I 4bd 2c'
_space_group_name_H-M_alt        'I 41/a c d :2'
_symmetry_cell_setting           tetragonal
_symmetry_space_group_name_Hall  '-I 4bd 2c'
_symmetry_space_group_name_H-M   'I 41/a c d :2'
_cell_angle_alpha                90.0
_cell_angle_beta                 90.0
_cell_angle_gamma                90.0
_cell_formula_units_Z            8
_cell_length_a                   12.45181(9)
_cell_length_b                   12.45181
_cell_length_c                   8.41844(7)
_cell_measurement_temperature    298(2)
_cell_volume                     1305.259(14)
_computing_data_collection
'STOE Powder Software Package (STOE, Germany)'
_computing_data_reduction
'STOE Powder Software Package (STOE, Germany)'
_computing_structure_refinement  GSAS
_computing_structure_solution
'GSAS (A.C. Larson and R.B. Von Dreele, 2004), EXPGUI (Toby, B.H., 2001)'
_diffrn_ambient_temperature      298
_diffrn_detector                 'position sensitive detector'
_diffrn_detector_type            'linear mini-PSD (STOE)'
_diffrn_measurement_device_type  'transmission diffractometer Stadi-P (STOE)'
_diffrn_radiation_monochromator  'Primary, curved Ge 111'
_diffrn_radiation_polarisn_ratio 0.8
_diffrn_radiation_probe          x-ray
_diffrn_radiation_type           'Cu K\a~1~'
_diffrn_radiation_wavelength     1.54056
_diffrn_source                   'sealed X-ray tube'
_diffrn_source_target            Cu
_diffrn_source_type              'PHILIPS PW 2283/20'
_exptl_absorpt_correction_T_max  2.64758
_exptl_absorpt_correction_T_min  1.62079
_exptl_absorpt_process_details
;   GSAS Absorption/surface roughness correction: function number 4
 Flat plate transmission absorption correction
Terms =    -0.31106         0.0000    
Correction is not refined.
;
_exptl_crystal_density_diffrn    4.937
_exptl_crystal_density_method    'not measured'
_pd_calc_method                  'Rietveld Refinement'
_pd_char_colour                  white
_pd_instr_dist_mono/spec         130
_pd_instr_dist_spec/detc         220
_pd_instr_dist_src/mono          260
_pd_instr_location               ' ?'
_pd_meas_2theta_range_inc        0.02
_pd_meas_2theta_range_max        119.98
_pd_meas_2theta_range_min        5.0
_pd_meas_number_of_points        5750
_pd_meas_scan_method             step
_pd_phase_name
'from C:/GSAS/MyWork/Zhuravlev/BaCo2V2-2xP2xO8/BaCo2V2O8/BACO2V2O8.'
_pd_proc_2theta_range_inc        0.02
_pd_proc_2theta_range_max        119.92117
_pd_proc_2theta_range_min        4.94117
_pd_proc_info_datetime           2018-05-04T20:01:57
_pd_proc_info_excluded_regions   ' ?'
_pd_proc_ls_background_function
;   GSAS Background function number 1 with 36 terms.
 Shifted Chebyshev function of 1st kind
      1:    9094.23     2:   -4949.50     3:   -117.731     4:   -497.806    
      5:    125.946     6:    12.3196     7:   -17.9979     8:    16.5743    
      9:    19.0536    10:   -16.4305    11:    17.1987    12:   -2.02684    
     13:   -16.8406    14:   -7.76355    15:   0.748619    16:    11.6183    
     17:    14.0646    18:   -9.63645    19:   -9.87470    20:    6.65681    
     21:    5.73176    22:   -13.1712    23:    14.4480    24:   -1.68128    
     25:   -11.0816    26:    14.9126    27:   -8.89196    28:    1.51614    
     29:    3.84159    30:   -10.8593    31:   0.260115    32:    3.16853    
     33:   -6.19642    34:    1.33143    35:   -1.42418    36:   -3.22912    
;
_pd_proc_ls_peak_cutoff          0.00100
_pd_proc_ls_profile_function
;
 CW Profile function number 4 with  16 terms
 Pseudovoigt profile coefficients as parameterized in
 P. Thompson, D.E. Cox & J.B. Hastings (1987). J. Appl. Cryst.,20,79-83.
 Asymmetry correction of L.W. Finger, D.E. Cox & A. P. Jephcoat (1994).
 J. Appl. Cryst.,27,892-900.
 Microstrain broadening by P.W. Stephens,  (1999). J. Appl. Cryst.,32,281-289.
 #1(GU)   =   15.269 #2(GV)   =  -12.798 #3(GW)   =   15.954
 #4(GP)   =    0.000 #5(LX)   =    1.573 #6(ptec) =    -1.35
 #7(trns) =     0.00 #8(shft) =   0.0000 #9(sfec) =     0.00
 #10(S/L) =   0.0289 #11(H/L) =   0.0328 #12(eta) =   1.0000
 #13(S400 ) =  9.5E-04 #14(S004 ) =  5.0E-03
 #15(S220 ) =  1.8E-03 #16(S202 ) =  2.3E-03
 Peak tails are ignored  where the intensity is below 0.0010 times the peak
   Aniso. broadening axis   0.0   0.0   1.0
;
_pd_proc_ls_prof_R_factor        0.0089
_pd_proc_ls_prof_wR_expected     0.0103
_pd_proc_ls_prof_wR_factor       0.0117
_pd_proc_number_of_points        5750
_pd_spec_mounting                'powder on Mylar film'
_pd_spec_mount_mode              transmission
_pd_spec_shape                   flat_sheet
_pd_spec_size_axial              7
_pd_spec_size_equat              0.1
_refine_ls_goodness_of_fit_all   1.14
_refine_ls_matrix_type           full
_refine_ls_number_parameters     17
_refine_ls_number_restraints     0
_refine_ls_R_Fsqd_factor         0.06110
_refine_ls_shift/su_max          0.03
_refine_ls_shift/su_mean         0.01
_reflns_d_resolution_high        0.891
_reflns_d_resolution_low         6.226
_reflns_limit_h_max              14
_reflns_limit_h_min              0
_reflns_limit_k_max              9
_reflns_limit_k_min              0
_reflns_limit_l_max              9
_reflns_limit_l_min              0
_reflns_number_total             245
_cod_data_source_file            mmc5.cif
_cod_data_source_block           BACO2V2O8_01344_publ
_cod_depositor_comments
;
The following automatic conversions were performed:

data item '_geom_angle_publ_flag' value 'N' was changed to 'n' in
accordance with the built-in table derived from the CIF Core
dictionary named 'cif_core.dic' version 2.4.5 last updated on
2014-11-21 (21 times).

data item '_geom_bond_publ_flag' value 'N' was changed to 'n' in
accordance with the built-in table derived from the CIF Core
dictionary named 'cif_core.dic' version 2.4.5 last updated on
2014-11-21 (22 times).

Automatic conversion script
Id: cif_fix_values 8369 2020-08-20 11:38:08Z andrius 
;
_cod_original_cell_volume        1305.258(27)
_cod_original_sg_symbol_H-M      'I 41/a c d'
_cod_database_code               1560796
_gsas_exptl_extinct_corr_t_min   1.00000
_gsas_exptl_extinct_corr_t_max   1.00000
loop_
_symmetry_equiv_pos_site_id
_symmetry_equiv_pos_as_xyz
1 +x,+y,+z
2 -y+1/4,+x+3/4,+z+1/4
3 -x+1/2,-y,+z+1/2
4 +y+1/4,-x+1/4,+z+3/4
5 -x,+y,+z+1/2
6 -y+1/4,-x+3/4,+z+3/4
7 +x+1/2,-y,+z
8 +y+1/4,+x+1/4,+z+1/4
-1 -x,-y,-z
-2 +y+3/4,-x+1/4,-z+3/4
-3 +x+1/2,+y,-z+1/2
-4 -y+3/4,+x+3/4,-z+1/4
-5 +x,-y,-z+1/2
-6 +y+3/4,+x+1/4,-z+1/4
-7 -x+1/2,+y,-z
-8 -y+3/4,-x+3/4,-z+3/4
101 +x+1/2,+y+1/2,+z+1/2
102 -y+3/4,+x+1/4,+z+3/4
103 -x,-y+1/2,+z
104 +y+3/4,-x+3/4,+z+1/4
105 -x+1/2,+y+1/2,+z
106 -y+3/4,-x+1/4,+z+1/4
107 +x,-y+1/2,+z+1/2
108 +y+3/4,+x+3/4,+z+3/4
-101 -x+1/2,-y+1/2,-z+1/2
-102 +y+1/4,-x+3/4,-z+1/4
-103 +x,+y+1/2,-z
-104 -y+1/4,+x+1/4,-z+3/4
-105 +x+1/2,-y+1/2,-z
-106 +y+1/4,+x+3/4,-z+3/4
-107 -x,+y+1/2,-z+1/2
-108 -y+1/4,-x+1/4,-z+1/4
loop_
_atom_site_type_symbol
_atom_site_label
_atom_site_fract_x
_atom_site_fract_y
_atom_site_fract_z
_atom_site_occupancy
_atom_site_thermal_displace_type
_atom_site_U_iso_or_equiv
_atom_site_symmetry_multiplicity
Ba Ba 0.0 0.25 0.375 1.0 Uiso 0.03660(30) 8
V V 0.58020(22) 0.0 0.25 1.0 Uiso 0.0391(7) 16
Co Co 0.83166(11) 0.08166(11) 0.125 1.0 Uiso 0.0360(6) 16
O O1 0.1570(4) 0.0746(4) 0.3804(6) 1.0 Uiso 0.0388(13) 32
O O2 0.4994(5) 0.08854(32) 0.3459(5) 1.0 Uiso 0.0385(14) 32
loop_
_atom_type_symbol
_atom_type_number_in_cell
_atom_type_scat_dispersion_real
_atom_type_scat_dispersion_imag
_atom_type_scat_Cromer_Mann_a1
_atom_type_scat_Cromer_Mann_a2
_atom_type_scat_Cromer_Mann_a3
_atom_type_scat_Cromer_Mann_a4
_atom_type_scat_Cromer_Mann_b1
_atom_type_scat_Cromer_Mann_b2
_atom_type_scat_Cromer_Mann_b3
_atom_type_scat_Cromer_Mann_b4
_atom_type_scat_Cromer_Mann_c
_atom_type_scat_source
Ba 8.0 0.000 0.000 20.3361 3.21600 19.2970 0.27560 10.8880 20.2073 2.69590
167.202 2.77310 International_Tables_Vol_C
V 16.0 0.000 0.000 10.2971 6.86570 7.35110 0.43850 2.07030 26.8938 2.05710
102.478 1.21990 International_Tables_Vol_C
Co 16.0 0.000 0.000 12.2841 4.27910 7.34090 0.27840 4.00340 13.5359 2.34880
71.1692 1.01180 International_Tables_Vol_C
O 64.0 0.000 0.000 3.04850 13.2771 2.28680 5.70110 1.54630 0.32390 0.86700
32.9089 0.25080 International_Tables_Vol_C
loop_
_geom_angle_atom_site_label_1
_geom_angle_atom_site_label_2
_geom_angle_atom_site_label_3
_geom_angle
_geom_angle_site_symmetry_1
_geom_angle_site_symmetry_2
_geom_angle_site_symmetry_3
_geom_angle_publ_flag
O1 V O1 112.75(31) 7_555 . -3_555 n
O1 V O2 112.04(19) 7_555 . 1_555 n
O1 V O2 106.33(22) 7_555 . -5_555 n
O1 V O2 106.33(22) -3_555 . 1_555 n
O1 V O2 112.04(19) -3_555 . -5_555 n
O2 V O2 107.3(4) 1_555 . -5_555 n
O1 Co O1 177.90(21) 5_654 . -2_555 n
O1 Co O1 92.62(19) 5_654 . -3_555 n
O1 Co O1 88.92(19) 5_654 . 108_544 n
O1 Co O2 92.85(17) 5_654 . -3_555 n
O1 Co O2 85.61(17) 5_654 . 108_544 n
O1 Co O1 88.92(19) -2_555 . -3_555 n
O1 Co O1 92.62(19) -2_555 . 108_544 n
O1 Co O2 85.61(17) -2_555 . -3_555 n
O1 Co O2 92.85(17) -2_555 . 108_544 n
O1 Co O1 85.41(26) -3_555 . 108_544 n
O1 Co O2 174.52(16) -3_555 . -3_555 n
O1 Co O2 94.48(17) -3_555 . 108_544 n
O1 Co O2 94.49(17) 108_544 . -3_555 n
O1 Co O2 174.52(16) 108_544 . 108_544 n
O2 Co O2 86.14(20) -3_555 . 108_544 n
loop_
_geom_bond_atom_site_label_1
_geom_bond_atom_site_label_2
_geom_bond_distance
_geom_bond_site_symmetry_1
_geom_bond_site_symmetry_2
_geom_bond_publ_flag
Ba O1 2.931(4) . 1_555 n
Ba O1 2.931(4) . -2_455 n
Ba O1 2.931(4) . 103_555 n
Ba O1 2.931(4) . -104_555 n
Ba O2 2.739(4) . 2_545 n
Ba O2 3.092(4) . 6_554 n
Ba O2 2.739(4) . -3_455 n
Ba O2 3.092(4) . -7_556 n
Ba O2 2.739(4) . 104_455 n
Ba O2 3.092(4) . 108_444 n
Ba O2 2.739(4) . -101_555 n
Ba O2 3.092(4) . -105_456 n
V O1 1.727(6) . 7_555 n
V O1 1.727(6) . -3_555 n
V O2 1.697(4) . 1_555 n
V O2 1.697(4) . -5_555 n
Co O1 2.066(5) . 5_654 n
Co O1 2.066(5) . -2_555 n
Co O1 2.177(5) . -3_555 n
Co O1 2.177(5) . 108_544 n
Co O2 2.105(6) . -3_555 n
Co O2 2.105(6) . 108_544 n
loop_
_pd_meas_counts_total
_pd_proc_ls_weight
_pd_proc_intensity_bkg_calc
_pd_calc_intensity_total
14677.0 0.0000681 14549.49121 14549.49121
14718.0 0.0000679 14546.62500 14546.62500
14606.0 0.0000685 14543.55762 14543.55762
14314.0 0.0000699 14540.30176 14540.30176
14718.0 0.0000679 14536.86914 14536.86914
14607.0 0.0000685 14533.27344 14533.27344
14383.0 0.0000695 14529.52539 14529.52539
14343.0 0.0000697 14525.63672 14525.63672
14602.0 0.0000685 14521.61621 14521.61621
14491.0 0.0000690 14517.47559 14517.47559
14357.0 0.0000697 14513.22461 14513.22461
14390.0 0.0000695 14508.87207 14508.87207
14340.0 0.0000697 14504.42676 14504.42676
14543.0 0.0000688 14499.89648 14499.89648
14765.0 0.0000677 14495.29199 14495.29199
14542.0 0.0000688 14490.61816 14490.61816
14346.0 0.0000697 14485.88379 14485.88379
14413.0 0.0000694 14481.09570 14481.09570
14425.0 0.0000693 14476.25977 14476.25977
14591.0 0.0000685 14471.38379 14471.38379
14567.0 0.0000686 14466.47363 14466.47363
14449.0 0.0000692 14461.53418 14461.53418
14331.0 0.0000698 14456.57031 14456.57031
14525.0 0.0000688 14451.58984 14451.58984
14298.0 0.0000699 14446.59473 14446.59473
14266.0 0.0000701 14441.59082 14441.59082
14472.0 0.0000691 14436.58301 14436.58301
14449.0 0.0000692 14431.57422 14431.57422
14318.0 0.0000698 14426.56934 14426.56934
14623.0 0.0000684 14421.57129 14421.57129
14424.0 0.0000693 14416.58398 14416.58398
14546.0 0.0000687 14411.61035 14411.61035
14365.0 0.0000696 14406.65332 14406.65332
14292.0 0.0000700 14401.71582 14401.71582
14358.0 0.0000696 14396.79980 14396.79980
14493.0 0.0000690 14391.90918 14391.90918
14540.0 0.0000688 14387.04492 14387.04492
14348.0 0.0000697 14382.20898 14382.20898
14464.0 0.0000691 14377.40332 14377.40332
14421.0 0.0000693 14372.62988 14372.62988
14289.0 0.0000700 14367.89160 14367.89160
14516.0 0.0000689 14363.18652 14363.18652
14280.0 0.0000700 14358.51953 14358.51953
14223.0 0.0000703 14353.88965 14353.88965
14290.0 0.0000700 14349.29785 14349.29785
14578.0 0.0000686 14344.74707 14344.74707
14374.0 0.0000696 14340.23535 14340.23535
14409.0 0.0000694 14335.76563 14335.76563
14421.0 0.0000693 14331.33594 14331.33594
14539.0 0.0000688 14326.94922 14326.94922
14208.0 0.0000704 14322.60547 14322.60547
14354.0 0.0000697 14318.30273 14318.30273
14110.0 0.0000709 14314.04395 14314.04395
14431.0 0.0000693 14309.82813 14309.82813
14424.0 0.0000693 14305.65430 14305.65430
14240.0 0.0000702 14301.52441 14301.52441
14222.0 0.0000703 14297.43652 14297.43652
14317.0 0.0000698 14293.39160 14293.39160
14100.0 0.0000709 14289.38867 14289.38867
14223.0 0.0000703 14285.42871 14285.42871
14232.0 0.0000703 14281.50879 14281.50879
14176.0 0.0000705 14277.63086 14277.63086
14290.0 0.0000700 14273.79297 14273.79297
14203.0 0.0000704 14269.99609 14269.99609
14492.0 0.0000690 14266.23828 14266.23828
14175.0 0.0000705 14262.51953 14262.51953
14461.0 0.0000692 14258.83887 14258.83887
14273.0 0.0000701 14255.19629 14255.19629
14186.0 0.0000705 14251.58984 14251.58984
14355.0 0.0000697 14248.02051 14248.02051
14133.0 0.0000708 14244.48633 14244.48633
14238.0 0.0000702 14240.98730 14240.98730
14250.0 0.0000702 14237.52148 14237.52148
14223.0 0.0000703 14234.08887 14234.08887
14216.0 0.0000703 14230.68848 14230.68848
14333.0 0.0000698 14227.31934 14227.31934
14093.0 0.0000710 14223.98145 14223.98145
14043.0 0.0000712 14220.67188 14220.67188
14132.0 0.0000708 14217.39160 14217.39160
14279.0 0.0000700 14214.13965 14214.13965
14238.0 0.0000702 14210.91406 14210.91406
14402.0 0.0000694 14207.71484 14207.71484
14163.0 0.0000706 14204.54004 14204.54004
14301.0 0.0000699 14201.39063 14201.39063
14093.0 0.0000710 14198.26270 14198.26270
14218.0 0.0000703 14195.15820 14195.15820
14265.0 0.0000701 14192.07520 14192.07520
14315.0 0.0000699 14189.01172 14189.01172
14207.0 0.0000704 14185.96875 14185.96875
14215.0 0.0000703 14182.94434 14182.94434
14160.0 0.0000706 14179.93750 14179.93750
14108.0 0.0000709 14176.94727 14176.94727
14093.0 0.0000710 14173.97363 14173.97363
14175.0 0.0000705 14171.01465 14171.01465
14161.0 0.0000706 14168.07031 14168.07031
14345.0 0.0000697 14165.13965 14165.13965
14130.0 0.0000708 14162.22070 14162.22070
14249.0 0.0000702 14159.31348 14159.31348
13946.0 0.0000717 14156.41797 14156.41797
14017.0 0.0000713 14153.53223 14153.53223
14083.0 0.0000710 14150.65625 14150.65625
13961.0 0.0000716 14147.78809 14147.78809
14206.0 0.0000704 14144.92773 14144.92773
14209.0 0.0000704 14142.07520 14142.07520
14266.0 0.0000701 14139.22852 14139.22852
14177.0 0.0000705 14136.38770 14136.38770
14159.0 0.0000706 14133.55078 14133.55078
14231.0 0.0000703 14130.71973 14130.71973
14096.0 0.0000709 14127.89063 14127.89063
14266.0 0.0000701 14125.06543 14125.06543
14169.0 0.0000706 14122.24219 14122.24219
14084.0 0.0000710 14119.41992 14119.41992
13994.0 0.0000715 14116.59961 14116.59961
14146.0 0.0000707 14113.77930 14113.77930
14324.0 0.0000698 14110.95801 14110.95801
14085.0 0.0000710 14108.13672 14108.13672
13971.0 0.0000716 14105.31445 14105.31445
14351.0 0.0000697 14102.49023 14102.49023
13955.0 0.0000717 14099.66406 14099.66406
13965.0 0.0000716 14096.83398 14096.83398
14199.0 0.0000704 14094.00195 14094.00195
13924.0 0.0000718 14091.16602 14091.16602
13941.0 0.0000717 14088.32617 14088.32617
13978.0 0.0000715 14085.48047 14085.48047
13985.0 0.0000715 14082.63086 14082.63086
14028.0 0.0000713 14079.77637 14079.77637
14030.0 0.0000713 14076.91504 14076.91504
14184.0 0.0000705 14074.04883 14074.04883
14070.0 0.0000711 14071.17480 14071.17480
13939.0 0.0000717 14068.29590 14068.29590
14125.0 0.0000708 14065.40820 14065.40820
14252.0 0.0000702 14062.51465 14062.51465
14126.0 0.0000708 14059.61230 14059.61230
13820.0 0.0000724 14056.70313 14056.70313
14135.0 0.0000707 14053.78516 14053.78516
14195.0 0.0000704 14050.85938 14050.85938
13902.0 0.0000719 14047.92480 14047.92480
13969.0 0.0000716 14044.98145 14044.98145
14083.0 0.0000710 14042.02832 14042.02832
13928.0 0.0000718 14039.06738 14039.06738
13974.0 0.0000716 14036.09668 14036.09668
14061.0 0.0000711 14033.11719 14033.11719
14059.0 0.0000711 14030.12695 14030.12695
13980.0 0.0000715 14027.12793 14027.12793
14019.0 0.0000713 14024.11914 14024.11914
14033.0 0.0000713 14021.10059 14021.10059
13976.0 0.0000716 14018.07129 14018.07129
13964.0 0.0000716 14015.03223 14015.03223
13997.0 0.0000714 14011.98438 14011.98438
13920.0 0.0000718 14008.92480 14008.92480
13971.0 0.0000716 14005.85547 14005.85547
14064.0 0.0000711 14002.77637 14002.77637
13757.0 0.0000727 13999.68652 13999.68652
13680.0 0.0000731 13996.58594 13996.58594
14014.0 0.0000714 13993.47559 13993.47559
14178.0 0.0000705 13990.35547 13990.35547
14189.0 0.0000705 13987.22461 13987.22461
14162.0 0.0000706 13984.08398 13984.08398
13850.0 0.0000722 13980.93262 13980.93262
13888.0 0.0000720 13977.77148 13977.77148
13940.0 0.0000717 13974.60059 13974.60059
14295.0 0.0000700 13971.41895 13971.41895
13925.0 0.0000718 13968.22754 13968.22754
13907.0 0.0000719 13965.02637 13965.02637
14049.0 0.0000712 13961.81543 13961.81543
13928.0 0.0000718 13958.59570 13958.59570
14110.0 0.0000709 13955.36523 13955.36523
14045.0 0.0000712 13952.12500 13952.12500
14000.0 0.0000714 13948.87598 13948.87598
13930.0 0.0000718 13945.61719 13945.61719
13926.0 0.0000718 13942.35059 13942.35059
13932.0 0.0000718 13939.07324 13939.07324
13898.0 0.0000720 13935.78809 13935.78809
13950.0 0.0000717 13932.49316 13932.49316
13867.0 0.0000721 13929.19043 13929.19043
13967.0 0.0000716 13925.87891 13925.87891
14031.0 0.0000713 13922.55859 13922.55859
13925.0 0.0000718 13919.23047 13919.23047
13981.0 0.0000715 13915.89453 13915.89453
13926.0 0.0000718 13912.55078 13912.55078
13946.0 0.0000717 13909.19824 13909.19824
13882.0 0.0000720 13905.83887 13905.83887
13971.0 0.0000716 13902.47168 13902.47168
13938.0 0.0000717 13899.09766 13899.09766
13899.0 0.0000719 13895.71680 13895.71680
14052.0 0.0000712 13892.32813 13892.32813
14024.0 0.0000713 13888.93359 13888.93359
14012.0 0.0000714 13885.53223 13885.53223
13666.0 0.0000732 13882.12402 13882.12402
13902.0 0.0000719 13878.70996 13878.70996
14088.0 0.0000710 13875.29004 13875.29004
13956.0 0.0000717 13871.86426 13871.86426
13826.0 0.0000723 13868.43262 13868.43262
13711.0 0.0000729 13864.99512 13864.99512
13846.0 0.0000722 13861.55371 13861.55371
13898.0 0.0000720 13858.10547 13858.10547
14082.0 0.0000710 13854.65430 13854.65430
13699.0 0.0000730 13851.19727 13851.19727
13917.0 0.0000719 13847.73535 13847.73535
13751.0 0.0000727 13844.26953 13844.26953
13822.0 0.0000723 13840.79980 13840.79980
13617.0 0.0000734 13837.32617 13837.32617
13872.0 0.0000721 13833.84766 13833.84766
13806.0 0.0000724 13830.36719 13830.36719
14043.0 0.0000712 13826.88281 13826.88281
13642.0 0.0000733 13823.39453 13823.39453
13718.0 0.0000729 13819.90430 13819.90430
13981.0 0.0000715 13816.41016 13816.41016
13797.0 0.0000725 13812.91406 13812.91406
13776.0 0.0000726 13809.41602 13809.41602
13908.0 0.0000719 13805.91504 13805.91504
13767.0 0.0000726 13802.41211 13802.41211
14165.0 0.0000706 13798.90723 13798.90723
13861.0 0.0000721 13795.40137 13795.40137
13818.0 0.0000724 13791.89258 13791.89258
13640.0 0.0000733 13788.38379 13788.38379
13610.0 0.0000735 13784.87305 13784.87305
13944.0 0.0000717 13781.36230 13781.36230
13782.0 0.0000726 13777.85059 13777.85059
13585.0 0.0000736 13774.33691 13774.33691
13618.0 0.0000734 13770.82422 13770.82422
13724.0 0.0000729 13767.31055 13767.31055
13725.0 0.0000729 13763.79688 13763.79688
13728.0 0.0000728 13760.28418 13760.28418
13617.0 0.0000734 13756.77051 13756.77051
13607.0 0.0000735 13753.25781 13753.25781
13690.0 0.0000730 13749.74609 13749.74609
13861.0 0.0000721 13746.23438 13746.23438
13854.0 0.0000722 13742.72461 13742.72461
13928.0 0.0000718 13739.21484 13739.21484
13930.0 0.0000718 13735.70703 13735.70703
13679.0 0.0000731 13732.20020 13732.20020
13817.0 0.0000724 13728.69434 13728.69434
13497.0 0.0000741 13725.19141 13725.19141
13998.0 0.0000714 13721.68945 13721.68945
13827.0 0.0000723 13718.19043 13718.19043
13617.0 0.0000734 13714.69238 13714.69238
13485.0 0.0000742 13711.19824 13711.19824
13828.0 0.0000723 13707.70508 13707.70508
13805.0 0.0000724 13704.21582 13704.21582
13702.0 0.0000730 13700.72754 13700.72754
13601.0 0.0000735 13697.24316 13697.24316
13667.0 0.0000732 13693.76172 13693.76172
13656.0 0.0000732 13690.28418 13690.28418
13684.0 0.0000731 13686.80859 13686.80859
13667.0 0.0000732 13683.33691 13683.33691
13636.0 0.0000733 13679.86914 13679.86914
13750.0 0.0000727 13676.40527 13676.40527
13713.0 0.0000729 13672.94434 13672.94434
13670.0 0.0000732 13669.48828 13669.48828
13607.0 0.0000735 13666.03516 13666.03516
13584.0 0.0000736 13662.58691 13662.58691
13497.0 0.0000741 13659.14258 13659.14258
13712.0 0.0000729 13655.70313 13655.70313
13577.0 0.0000737 13652.26758 13652.26758
13531.0 0.0000739 13648.83789 13648.83789
13543.0 0.0000738 13645.41211 13645.41211
13817.0 0.0000724 13641.99121 13641.99121
13838.0 0.0000723 13638.57520 13638.57520
13791.0 0.0000725 13635.16406 13635.16406
13565.0 0.0000737 13631.75879 13631.75879
13568.0 0.0000737 13628.35840 13628.35840
13609.0 0.0000735 13624.96289 13624.96289
13656.0 0.0000732 13621.57324 13621.57324
13667.0 0.0000732 13618.18945 13618.18945
13659.0 0.0000732 13614.81152 13614.81152
13582.0 0.0000736 13611.43848 13611.43848
13479.0 0.0000742 13608.07227 13608.07227
13557.0 0.0000738 13604.71191 13604.71191
13790.0 0.0000725 13601.35742 13601.35742
13714.0 0.0000729 13598.00879 13598.00879
13607.0 0.0000735 13594.66602 13594.66602
13542.0 0.0000738 13591.33008 13591.33008
13489.0 0.0000741 13588.00098 13588.00098
13529.0 0.0000739 13584.67773 13584.67773
13582.0 0.0000736 13581.36133 13581.36133
13622.0 0.0000734 13578.05176 13578.05176
13649.0 0.0000733 13574.74805 13574.74805
13390.0 0.0000747 13571.45215 13571.45215
13570.0 0.0000737 13568.16211 13568.16211
13356.0 0.0000749 13564.87988 13564.87988
13530.0 0.0000739 13561.60449 13561.60449
13520.0 0.0000740 13558.33594 13558.33594
13610.0 0.0000735 13555.07520 13555.07520
13551.0 0.0000738 13551.82031 13551.82031
13568.0 0.0000737 13548.57422 13548.57422
13453.0 0.0000743 13545.33496 13545.33496
13552.0 0.0000738 13542.10254 13542.10254
13652.0 0.0000732 13538.87793 13538.87793
13810.0 0.0000724 13535.66113 13535.66113
13588.0 0.0000736 13532.45215 13532.45215
13470.0 0.0000742 13529.25000 13529.25000
13665.0 0.0000732 13526.05566 13526.05566
13461.0 0.0000743 13522.87012 13522.87012
13480.0 0.0000742 13519.69141 13519.69141
13455.0 0.0000743 13516.52148 13516.52148
13408.0 0.0000746 13513.35840 13513.35840
13465.0 0.0000743 13510.20410 13510.20410
13535.0 0.0000739 13507.05762 13507.05762
13597.0 0.0000735 13503.91895 13503.91895
13429.0 0.0000745 13500.78906 13500.78906
13483.0 0.0000742 13497.66602 13497.66602
13578.0 0.0000736 13494.55273 13494.55273
13507.0 0.0000740 13491.44727 13491.44727
13525.0 0.0000739 13488.34961 13488.34961
13573.0 0.0000737 13485.26074 13485.26074
13291.0 0.0000752 13482.18066 13482.18066
13439.0 0.0000744 13479.10840 13479.10840
13400.0 0.0000746 13476.04492 13476.04492
13247.0 0.0000755 13472.98926 13472.98926
13501.0 0.0000741 13469.94336 13469.94336
13599.0 0.0000735 13466.90527 13466.90527
13243.0 0.0000755 13463.87598 13463.87598
13288.0 0.0000753 13460.85547 13460.85547
13503.0 0.0000741 13457.84375 13457.84375
13394.0 0.0000747 13454.83984 13454.83984
13377.0 0.0000748 13451.84570 13451.84570
13455.0 0.0000743 13448.86035 13448.86035
13347.0 0.0000749 13445.88281 13445.88281
13447.0 0.0000744 13442.91504 13442.91504
13563.0 0.0000737 13439.95605 13439.95605
13394.0 0.0000747 13437.00586 13437.00586
13482.0 0.0000742 13434.06445 13434.06445
13468.0 0.0000743 13431.13184 13431.13184
13449.0 0.0000744 13428.20898 13428.20898
13465.0 0.0000743 13425.29395 13425.29395
13502.0 0.0000741 13422.38867 13422.38867
13483.0 0.0000742 13419.49219 13419.49219
13424.0 0.0000745 13416.60547 13416.60547
13442.0 0.0000744 13413.72656 13413.72656
13572.0 0.0000737 13410.85742 13410.85742
13434.0 0.0000744 13407.99805 13407.99805
13470.0 0.0000742 13405.14648 13405.14648
13404.0 0.0000746 13402.30469 13402.30469
13322.0 0.0000751 13399.47168 13399.47168
13412.0 0.0000746 13396.64746 13396.64746
13534.0 0.0000739 13393.83301 13393.83301
13372.0 0.0000748 13391.02734 13391.02734
13280.0 0.0000753 13388.23145 13388.23145
13371.0 0.0000748 13385.44434 13385.44434
13089.0 0.0000764 13382.66602 13382.66602
13464.0 0.0000743 13379.89746 13379.89746
13375.0 0.0000748 13377.13770 13377.13770
13392.0 0.0000747 13374.38770 13374.38770
13405.0 0.0000746 13371.64648 13371.64648
13204.0 0.0000757 13368.91406 13368.91406
13383.0 0.0000747 13366.19141 13366.19141
13337.0 0.0000750 13363.47754 13363.47754
13431.0 0.0000745 13360.77246 13360.77246
13328.0 0.0000750 13358.07715 13358.07715
13370.0 0.0000748 13355.39063 13355.39063
13608.0 0.0000735 13352.71289 13352.71289
13231.0 0.0000756 13350.04492 13350.04492
13182.0 0.0000759 13347.38574 13347.38574
13407.0 0.0000746 13344.73535 13344.73535
13134.0 0.0000761 13342.09473 13342.09473
13548.0 0.0000738 13339.46289 13339.46289
13332.0 0.0000750 13336.83984 13336.83984
13221.0 0.0000756 13334.22656 13334.22656
13396.0 0.0000746 13331.62207 13331.62207
13342.0 0.0000750 13329.02637 13329.02637
13255.0 0.0000754 13326.43945 13326.43945
13257.0 0.0000754 13323.86133 13323.86133
13334.0 0.0000750 13321.29297 13321.29297
13229.0 0.0000756 13318.73242 13318.73242
13402.0 0.0000746 13316.18164 13316.18164
13312.0 0.0000751 13313.63867 13313.63867
13184.0 0.0000758 13311.10547 13311.10547
13325.0 0.0000750 13308.58105 13308.58105
13258.0 0.0000754 13306.06445 13306.06445
13243.0 0.0000755 13303.55762 13303.55762
13113.0 0.0000763 13301.05859 13301.05859
13232.0 0.0000756 13298.56934 13298.56934
13367.0 0.0000748 13296.08789 13296.08789
13322.0 0.0000751 13293.61523 13293.61523
13212.0 0.0000757 13291.15039 13291.15039
13446.0 0.0000744 13288.69434 13288.69434
13424.0 0.0000745 13286.24805 13286.24805
13409.0 0.0000746 13283.80859 13283.80859
13487.0 0.0000741 13281.37793 13281.37793
13275.0 0.0000753 13278.95605 13278.95605
13214.0 0.0000757 13276.54199 13276.54199
13240.0 0.0000755 13274.13672 13274.13672
13298.0 0.0000752 13271.73828 13271.73828
13313.0 0.0000751 13269.34961 13269.34961
13205.0 0.0000757 13266.96777 13266.96777
13273.0 0.0000753 13264.59473 13264.59473
13392.0 0.0000747 13262.22852 13262.22852
13231.0 0.0000756 13259.87109 13259.87109
13246.0 0.0000755 13257.52148 13257.52148
13291.0 0.0000752 13255.17969 13255.17969
13509.0 0.0000740 13252.84570 13252.84570
13384.0 0.0000747 13250.51855 13250.51855
13267.0 0.0000754 13248.19922 13248.19922
13442.0 0.0000744 13245.88770 13245.88770
13175.0 0.0000759 13243.58398 13243.58398
13282.0 0.0000753 13241.28711 13241.28711
13216.0 0.0000757 13238.99805 13238.99805
13239.0 0.0000755 13236.71582 13236.71582
13214.0 0.0000757 13234.44043 13234.44043
13161.0 0.0000760 13232.17188 13232.17188
13201.0 0.0000758 13229.91113 13229.91113
13075.0 0.0000765 13227.65723 13227.65723
13359.0 0.0000749 13225.41016 13225.41016
13379.0 0.0000747 13223.16992 13223.16992
13200.0 0.0000758 13220.93555 13220.93555
13145.0 0.0000761 13218.70898 13219.78711
13075.0 0.0000765 13216.48828 13217.60938
13105.0 0.0000763 13214.27441 13215.43945
13056.0 0.0000766 13212.06641 13213.27930
13122.0 0.0000762 13209.86523 13211.12891
13090.0 0.0000764 13207.66992 13208.98730
12935.0 0.0000773 13205.48047 13206.85449
13262.0 0.0000754 13203.29785 13204.73340
13326.0 0.0000750 13201.12012 13202.62109
13276.0 0.0000753 13198.94922 13200.51953
13399.0 0.0000746 13196.78320 13198.42871
13460.0 0.0000743 13194.62305 13196.34961
13204.0 0.0000757 13192.46875 13194.28223
13265.0 0.0000754 13190.31934 13192.22656
13390.0 0.0000747 13188.17480 13190.18359
13259.0 0.0000754 13186.03613 13188.15527
13224.0 0.0000756 13183.90332 13186.14160
13188.0 0.0000758 13181.77441 13184.14355
13251.0 0.0000755 13179.65137 13182.16309
13236.0 0.0000756 13177.53223 13180.20020
13219.0 0.0000756 13175.41797 13178.25781
13192.0 0.0000758 13173.30859 13176.33789
13288.0 0.0000753 13171.20410 13174.44434
13090.0 0.0000764 13169.10352 13172.57813
13216.0 0.0000757 13167.00684 13170.74316
13248.0 0.0000755 13164.91504 13168.94727
13269.0 0.0000754 13162.82715 13167.19434
13305.0 0.0000752 13160.74219 13165.49121
12981.0 0.0000770 13158.66211 13163.85254
13233.0 0.0000756 13156.58594 13162.29297
13001.0 0.0000769 13154.51270 13160.84570
13270.0 0.0000754 13152.44336 13159.58398
12931.0 0.0000773 13150.37695 13158.67383
13289.0 0.0000753 13148.31445 13158.45410
13325.0 0.0000750 13146.25391 13159.48633
13235.0 0.0000756 13144.19727 13162.51855
13108.0 0.0000763 13142.14355 13168.27734
13271.0 0.0000754 13140.09180 13177.17676
13090.0 0.0000764 13138.04395 13189.18555
13083.0 0.0000764 13135.99707 13203.97559
13169.0 0.0000759 13133.95410 13221.22363
13238.0 0.0000755 13131.91211 13240.77246
13319.0 0.0000751 13129.87305 13262.69727
13051.0 0.0000766 13127.83594 13287.26563
13193.0 0.0000758 13125.79980 13314.91504
13135.0 0.0000761 13123.76660 13346.25195
13230.0 0.0000756 13121.73438 13382.09766
13212.0 0.0000757 13119.70410 13423.58984
13442.0 0.0000744 13117.67480 13472.37598
13637.0 0.0000733 13115.64648 13531.00098
13734.0 0.0000728 13113.62012 13603.66602
13762.0 0.0000727 13111.59473 13697.37305
13936.0 0.0000718 13109.56934 13822.42773
14027.0 0.0000713 13107.54492 13988.79688
14187.0 0.0000705 13105.52148 14193.56836
14201.0 0.0000704 13103.49805 14401.74219
14403.0 0.0000694 13101.47559 14537.89063
14621.0 0.0000684 13099.45313 14511.88672
14280.0 0.0000700 13097.43066 14287.68164
13940.0 0.0000717 13095.40723 13944.77344
13860.0 0.0000722 13093.38477 13613.35645
13542.0 0.0000738 13091.36133 13372.10449
13253.0 0.0000755 13089.33887 13231.16113
13240.0 0.0000755 13087.31445 13161.88574
13091.0 0.0000764 13085.28906 13130.74609
13127.0 0.0000762 13083.26367 13115.84277
13201.0 0.0000758 13081.23730 13107.00879
13116.0 0.0000762 13079.20898 13100.53418
13138.0 0.0000761 13077.17969 13095.21777
13045.0 0.0000767 13075.14941 13090.62598
13069.0 0.0000765 13073.11719 13086.54688
13055.0 0.0000766 13071.08398 13082.85059
13201.0 0.0000758 13069.04883 13079.44531
13020.0 0.0000768 13067.01172 13076.26660
13189.0 0.0000758 13064.97266 13073.26563
13064.0 0.0000765 13062.93066 13070.40527
13013.0 0.0000768 13060.88672 13067.65918
12958.0 0.0000772 13058.84082 13065.00684
13082.0 0.0000764 13056.79199 13062.42969
13073.0 0.0000765 13054.74121 13059.91699
13210.0 0.0000757 13052.68652 13057.45410
13134.0 0.0000761 13050.62988 13055.03711
13002.0 0.0000769 13048.56934 13052.65527
12902.0 0.0000775 13046.50586 13050.30469
13131.0 0.0000762 13044.43945 13047.98145
12962.0 0.0000771 13042.36914 13045.67871
13222.0 0.0000756 13040.29590 13043.39551
12951.0 0.0000772 13038.21777 13041.12695
12951.0 0.0000772 13036.13770 13038.87402
12948.0 0.0000772 13034.05176 13036.62988
13021.0 0.0000768 13031.96289 13034.39648
13137.0 0.0000761 13029.87012 13032.17090
12970.0 0.0000771 13027.77246 13029.95020
13052.0 0.0000766 13025.66992 13027.73535
13216.0 0.0000757 13023.56348 13025.52441
12954.0 0.0000772 13021.45215 13023.31738
13127.0 0.0000762 13019.33691 13021.11230
12978.0 0.0000771 13017.21582 13018.90820
13052.0 0.0000766 13015.08984 13016.70508
12913.0 0.0000774 13012.95898 13014.50195
13093.0 0.0000764 13010.82324 13012.29883
13032.0 0.0000767 13008.68164 13010.09375
13210.0 0.0000757 13006.53516 13006.53516
13018.0 0.0000768 13004.38281 13004.38281
12995.0 0.0000770 13002.22461 13002.22461
13010.0 0.0000769 13000.06152 13000.06152
13073.0 0.0000765 12997.89160 12997.89160
12991.0 0.0000770 12995.71582 12995.71582
12900.0 0.0000775 12993.53418 12993.53418
12918.0 0.0000774 12991.34668 12991.34668
12948.0 0.0000772 12989.15234 12989.15234
13024.0 0.0000768 12986.95215 12986.95215
13073.0 0.0000765 12984.74512 12984.74512
13072.0 0.0000765 12982.53125 12982.53125
13060.0 0.0000766 12980.31152 12980.31152
13009.0 0.0000769 12978.08496 12978.08496
13018.0 0.0000768 12975.85059 12975.85059
12896.0 0.0000775 12973.61035 12973.61035
12877.0 0.0000777 12971.36328 12971.36328
13018.0 0.0000768 12969.10840 12969.10840
12716.0 0.0000786 12966.84668 12966.84668
12865.0 0.0000777 12964.57715 12964.57715
13135.0 0.0000761 12962.30078 12962.30078
12753.0 0.0000784 12960.01660 12960.01660
12913.0 0.0000774 12957.72559 12957.72559
12998.0 0.0000769 12955.42676 12955.42676
12886.0 0.0000776 12953.12012 12953.12012
12874.0 0.0000777 12950.80566 12950.80566
12831.0 0.0000779 12948.48340 12948.48340
12783.0 0.0000782 12946.15332 12946.15332
12984.0 0.0000770 12943.81543 12943.81543
12743.0 0.0000785 12941.46973 12941.46973
12741.0 0.0000785 12939.11621 12939.11621
12835.0 0.0000779 12936.75391 12936.75391
12989.0 0.0000770 12934.38379 12934.38379
13000.0 0.0000769 12932.00488 12932.00488
12962.0 0.0000771 12929.61816 12929.61816
12696.0 0.0000788 12927.22266 12927.22266
13015.0 0.0000768 12924.81934 12924.81934
12779.0 0.0000783 12922.40723 12922.40723
12848.0 0.0000778 12919.98633 12919.98633
12778.0 0.0000783 12917.55762 12917.55762
13015.0 0.0000768 12915.12012 12915.12012
13293.0 0.0000752 12912.67383 12912.67383
12911.0 0.0000775 12910.21875 12910.21875
13158.0 0.0000760 12907.75488 12907.75488
12880.0 0.0000776 12905.28223 12905.28223
13114.0 0.0000763 12902.80078 12902.80078
12779.0 0.0000783 12900.31152 12900.31152
12832.0 0.0000779 12897.81152 12897.81152
13070.0 0.0000765 12895.30371 12895.30371
12913.0 0.0000774 12892.78711 12892.78711
12750.0 0.0000784 12890.26172 12890.26172
12901.0 0.0000775 12887.72754 12887.72754
12897.0 0.0000775 12885.18359 12885.18359
12657.0 0.0000790 12882.63086 12882.63086
12794.0 0.0000782 12880.06934 12880.06934
12760.0 0.0000784 12877.49805 12877.49805
12969.0 0.0000771 12874.91895 12874.91895
12784.0 0.0000782 12872.33008 12872.33008
12738.0 0.0000785 12869.73242 12869.73242
12875.0 0.0000777 12867.12598 12867.12598
12735.0 0.0000785 12864.50977 12864.50977
12818.0 0.0000780 12861.88477 12861.88477
13015.0 0.0000768 12859.25098 12859.25098
12844.0 0.0000779 12856.60840 12856.60840
12748.0 0.0000784 12853.95605 12853.95605
12909.0 0.0000775 12851.29492 12851.29492
12814.0 0.0000780 12848.62500 12848.62500
12853.0 0.0000778 12845.94531 12845.94531
12803.0 0.0000781 12843.25781 12843.25781
12745.0 0.0000785 12840.56055 12840.56055
12838.0 0.0000779 12837.85449 12837.85449
12677.0 0.0000789 12835.13965 12835.13965
12839.0 0.0000779 12832.41504 12832.41504
12861.0 0.0000778 12829.68262 12829.68262
12765.0 0.0000783 12826.94043 12826.94043
12624.0 0.0000792 12824.19043 12824.19043
12661.0 0.0000790 12821.43066 12821.43066
12702.0 0.0000787 12818.66211 12818.66211
12687.0 0.0000788 12815.88574 12815.88574
12667.0 0.0000789 12813.09961 12813.09961
12774.0 0.0000783 12810.30566 12810.30566
12758.0 0.0000784 12807.50293 12807.50293
12969.0 0.0000771 12804.69141 12804.69141
12813.0 0.0000780 12801.87207 12801.87207
12816.0 0.0000780 12799.04297 12799.04297
12774.0 0.0000783 12796.20605 12796.20605
12993.0 0.0000770 12793.36133 12793.36133
12777.0 0.0000783 12790.50781 12790.50781
12730.0 0.0000786 12787.64551 12787.64551
12895.0 0.0000775 12784.77539 12784.77539
12697.0 0.0000788 12781.89746 12781.89746
12866.0 0.0000777 12779.01074 12779.01074
12980.0 0.0000770 12776.11719 12776.11719
12850.0 0.0000778 12773.21484 12773.21484
12835.0 0.0000779 12770.30469 12770.30469
12861.0 0.0000778 12767.38672 12767.38672
12794.0 0.0000782 12764.46094 12764.46094
12733.0 0.0000785 12761.52734 12761.52734
12663.0 0.0000790 12758.58691 12758.58691
12737.0 0.0000785 12755.63867 12755.63867
12704.0 0.0000787 12752.68262 12752.68262
12596.0 0.0000794 12749.71875 12749.71875
12848.0 0.0000778 12746.74805 12746.74805
12874.0 0.0000777 12743.77051 12743.77051
12616.0 0.0000793 12740.78613 12740.78613
12825.0 0.0000780 12737.79395 12737.79395
12760.0 0.0000784 12734.79492 12734.79492
12452.0 0.0000803 12731.79004 12731.79004
12708.0 0.0000787 12728.77734 12728.77734
12836.0 0.0000779 12725.75879 12725.75879
12859.0 0.0000778 12722.73340 12722.73340
12617.0 0.0000793 12719.70215 12719.70215
12667.0 0.0000789 12716.66309 12716.66309
12741.0 0.0000785 12713.61914 12713.61914
12565.0 0.0000796 12710.56836 12710.56836
12821.0 0.0000780 12707.51172 12707.51172
12670.0 0.0000789 12704.44922 12704.44922
12826.0 0.0000780 12701.38086 12701.38086
12754.0 0.0000784 12698.30664 12698.30664
12627.0 0.0000792 12695.22754 12695.22754
12886.0 0.0000776 12692.14258 12692.14258
12622.0 0.0000792 12689.05176 12689.05176
12650.0 0.0000791 12685.95605 12685.95605
12739.0 0.0000785 12682.85547 12682.85547
12667.0 0.0000789 12679.75000 12679.75000
12735.0 0.0000785 12676.63867 12676.63867
12921.0 0.0000774 12673.52344 12673.52344
12645.0 0.0000791 12670.40332 12670.40332
12731.0 0.0000785 12667.27930 12667.27930
12720.0 0.0000786 12664.15039 12664.15039
12677.0 0.0000789 12661.01660 12661.01660
12639.0 0.0000791 12657.87891 12657.87891
12721.0 0.0000786 12654.73828 12654.73828
12873.0 0.0000777 12651.59277 12651.59277
12743.0 0.0000785 12648.44336 12648.44336
12503.0 0.0000800 12645.29102 12645.29102
12659.0 0.0000790 12642.13477 12642.13477
12770.0 0.0000783 12638.97461 12638.97461
12609.0 0.0000793 12635.81250 12635.81250
12710.0 0.0000787 12632.64648 12632.64648
12642.0 0.0000791 12629.47754 12629.47754
12467.0 0.0000802 12626.30566 12626.30566
12539.0 0.0000798 12623.13184 12623.13184
12670.0 0.0000789 12619.95508 12619.95508
12486.0 0.0000801 12616.77539 12616.77539
12429.0 0.0000805 12613.59473 12613.59473
12616.0 0.0000793 12610.41113 12610.41113
12619.0 0.0000792 12607.22559 12607.22559
12575.0 0.0000795 12604.03809 12604.03809
12675.0 0.0000789 12600.84961 12600.84961
12620.0 0.0000792 12597.65820 12597.65820
12670.0 0.0000789 12594.46582 12594.46582
12267.0 0.0000815 12591.27246 12591.27246
12688.0 0.0000788 12588.07910 12588.78125
12845.0 0.0000779 12584.88379 12585.62012
12637.0 0.0000791 12581.68750 12582.45996
12563.0 0.0000796 12578.49023 12579.30176
12454.0 0.0000803 12575.29297 12576.14648
12534.0 0.0000798 12572.09570 12572.99414
12805.0 0.0000781 12568.89746 12569.84570
12687.0 0.0000788 12565.70020 12566.70117
12603.0 0.0000793 12562.50195 12563.56152
12541.0 0.0000797 12559.30469 12560.42773
12484.0 0.0000801 12556.10645 12557.29883
12683.0 0.0000788 12552.91016 12554.17773
12535.0 0.0000798 12549.71387 12551.06543
12490.0 0.0000801 12546.51855 12547.96289
12622.0 0.0000792 12543.32422 12544.87012
12560.0 0.0000796 12540.13086 12541.79102
12601.0 0.0000794 12536.93848 12538.72559
12522.0 0.0000799 12533.74902 12535.67871
12627.0 0.0000792 12530.55957 12532.65137
12554.0 0.0000797 12527.37207 12529.64648
12492.0 0.0000801 12524.18652 12526.66992
12506.0 0.0000800 12521.00391 12523.72852
12250.0 0.0000816 12517.82227 12520.82617
12552.0 0.0000797 12514.64355 12517.97656
12525.0 0.0000798 12511.46680 12515.19238
12517.0 0.0000799 12508.29297 12512.50488
12629.0 0.0000792 12505.12207 12509.98535
12468.0 0.0000802 12501.95410 12507.80078
12533.0 0.0000798 12498.78809 12506.30566
12681.0 0.0000789 12495.62695 12506.11914
12623.0 0.0000792 12492.46777 12508.07324
12636.0 0.0000791 12489.31250 12513.00684
12504.0 0.0000800 12486.16113 12521.43945
12818.0 0.0000780 12483.01367 12533.45215
12530.0 0.0000798 12479.87012 12548.91309
12718.0 0.0000786 12476.73047 12567.80176
12720.0 0.0000786 12473.59473 12590.44043
12442.0 0.0000804 12470.46387 12617.62793
12507.0 0.0000800 12467.33691 12650.80859
12725.0 0.0000786 12464.21484 12692.49121
12869.0 0.0000777 12461.09766 12747.02930
12849.0 0.0000778 12457.98438 12821.24609
13069.0 0.0000765 12454.87793 12927.99805
13094.0 0.0000764 12451.77539 13057.09180
13454.0 0.0000743 12448.67871 13192.96387
13652.0 0.0000732 12445.58691 13286.55469
13468.0 0.0000743 12442.50098 13277.52051
13236.0 0.0000756 12439.42188 13141.60254
13015.0 0.0000768 12436.34766 12930.93945
12708.0 0.0000787 12433.27930 12729.56152
12747.0 0.0000784 12430.21680 12586.65234
12423.0 0.0000805 12427.16113 12506.13672
12467.0 0.0000802 12424.11230 12467.93359
12461.0 0.0000803 12421.06934 12450.83691
12659.0 0.0000790 12418.03320 12442.10156
12483.0 0.0000801 12415.00391 12436.30273
12308.0 0.0000812 12411.98047 12431.63281
12462.0 0.0000802 12408.96582 12427.54980
12435.0 0.0000804 12405.95703 12423.85840
12308.0 0.0000812 12402.95605 12420.46680
12446.0 0.0000803 12399.96191 12417.31348
12406.0 0.0000806 12396.97559 12414.36426
12685.0 0.0000788 12393.99707 12411.59277
12587.0 0.0000794 12391.02637 12408.98340
12520.0 0.0000799 12388.06348 12406.52832
12390.0 0.0000807 12385.10840 12404.22461
12318.0 0.0000812 12382.16113 12402.07422
12544.0 0.0000797 12379.22266 12400.08398
12634.0 0.0000792 12376.29199 12398.26465
12255.0 0.0000816 12373.37012 12396.63477
12362.0 0.0000809 12370.45703 12395.21191
12285.0 0.0000814 12367.55273 12394.02539
12559.0 0.0000796 12364.65625 12393.10840
12439.0 0.0000804 12361.76855 12392.50684
12387.0 0.0000807 12358.89063 12392.28027
12263.0 0.0000815 12356.02051 12392.49902
12541.0 0.0000797 12353.16113 12393.26465
12298.0 0.0000813 12350.30957 12394.71289
12292.0 0.0000814 12347.46777 12397.06250
12294.0 0.0000813 12344.63574 12400.71973
12432.0 0.0000804 12341.81250 12406.54590
12450.0 0.0000803 12339.00000 12416.37109
12565.0 0.0000796 12336.19629 12433.65527
12325.0 0.0000811 12333.40234 12463.92969
12470.0 0.0000802 12330.61816 12514.36426
12436.0 0.0000804 12327.84375 12592.01270
12512.0 0.0000799 12325.08008 12701.49707
12287.0 0.0000814 12322.32617 12844.32715
12680.0 0.0000789 12319.58301 13020.71973
12816.0 0.0000780 12316.84863 13232.30078
12956.0 0.0000772 12314.12500 13484.34668
13392.0 0.0000747 12311.41309 13787.29395
14139.0 0.0000707 12308.70996 14162.45508
14669.0 0.0000682 12306.01855 14642.88965
15167.0 0.0000659 12303.33691 15276.54199
16385.0 0.0000610 12300.66602 16106.52539
17642.0 0.0000567 12298.00684 17113.85742
18227.0 0.0000549 12295.35742 18135.23242
19299.0 0.0000518 12292.71973 18828.47461
18781.0 0.0000532 12290.09180 18778.76953
18001.0 0.0000556 12287.47559 17808.74609
16100.0 0.0000621 12284.87012 16279.92480
14564.0 0.0000687 12282.27539 14786.45703
13559.0 0.0000738 12279.69238 13682.52930
12825.0 0.0000780 12277.12012 13021.13086
12631.0 0.0000792 12274.55859 12685.27832
12570.0 0.0000796 12272.00879 12530.00684
12205.0 0.0000819 12269.47070 12455.91113
12295.0 0.0000813 12266.94336 12414.20410
12433.0 0.0000804 12264.42773 12385.88574
12455.0 0.0000803 12261.92285 12364.33691
12328.0 0.0000811 12259.42969 12347.04590
12385.0 0.0000807 12256.94824 12332.77246
12214.0 0.0000819 12254.47852 12320.74609
12413.0 0.0000806 12252.01953 12310.43262
12190.0 0.0000820 12249.57227 12301.45313
12201.0 0.0000820 12247.13672 12293.52539
12237.0 0.0000817 12244.71289 12286.44043
12203.0 0.0000819 12242.30078 12280.03809
12237.0 0.0000817 12239.89941 12274.19336
12164.0 0.0000822 12237.51074 12268.81445
12062.0 0.0000829 12235.13379 12263.82324
12262.0 0.0000816 12232.76758 12259.15723
12060.0 0.0000829 12230.41309 12254.77051
12166.0 0.0000822 12228.07031 12250.62207
12337.0 0.0000811 12225.74023 12246.68066
12212.0 0.0000819 12223.42090 12242.91699
12193.0 0.0000820 12221.11328 12239.30957
12135.0 0.0000824 12218.81738 12235.83984
12226.0 0.0000818 12216.53320 12232.49316
12245.0 0.0000817 12214.26074 12229.25391
12171.0 0.0000822 12212.00000 12226.11230
12198.0 0.0000820 12209.75000 12223.05664
12066.0 0.0000829 12207.51270 12220.08105
12122.0 0.0000825 12205.28613 12217.17676
12279.0 0.0000814 12203.07227 12214.33789
12247.0 0.0000817 12200.86914 12211.55859
12134.0 0.0000824 12198.67773 12208.83301
12161.0 0.0000822 12196.49805 12206.15918
12103.0 0.0000826 12194.33008 12203.53223
12107.0 0.0000826 12192.17285 12200.94824
12117.0 0.0000825 12190.02832 12198.40527
12089.0 0.0000827 12187.89453 12195.90039
12062.0 0.0000829 12185.77246 12193.43164
12279.0 0.0000814 12183.66113 12190.99512
12337.0 0.0000811 12181.56152 12188.59082
12118.0 0.0000825 12179.47266 12186.21582
12300.0 0.0000813 12177.39551 12183.86914
12366.0 0.0000809 12175.33008 12181.55078
12203.0 0.0000819 12173.27539 12179.25781
12288.0 0.0000814 12171.23145 12176.98828
12214.0 0.0000819 12169.19922 12174.74316
12104.0 0.0000826 12167.17773 12172.52148
12274.0 0.0000815 12165.16699 12170.32031
12239.0 0.0000817 12163.16797 12168.14063
12293.0 0.0000813 12161.17969 12161.17969
12145.0 0.0000823 12159.20117 12159.20117
12220.0 0.0000818 12157.23438 12157.23438
12111.0 0.0000826 12155.27832 12155.27832
12318.0 0.0000812 12153.33203 12153.33203
12079.0 0.0000828 12151.39746 12151.39746
12361.0 0.0000809 12149.47266 12149.47266
12228.0 0.0000818 12147.55859 12147.55859
12236.0 0.0000817 12145.65527 12145.65527
12225.0 0.0000818 12143.76172 12143.76172
12204.0 0.0000819 12141.87891 12141.87891
12116.0 0.0000825 12140.00586 12140.00586
12361.0 0.0000809 12138.14258 12138.14258
12344.0 0.0000810 12136.29004 12136.29004
12294.0 0.0000813 12134.44727 12134.44727
12133.0 0.0000824 12132.61426 12132.61426
12233.0 0.0000817 12130.79102 12130.79102
12088.0 0.0000827 12128.97754 12128.97754
12237.0 0.0000817 12127.17285 12127.17285
12176.0 0.0000821 12125.37891 12125.37891
12149.0 0.0000823 12123.59375 12123.59375
12137.0 0.0000824 12121.81836 12121.81836
12074.0 0.0000828 12120.05176 12120.05176
12228.0 0.0000818 12118.29492 12118.29492
12040.0 0.0000831 12116.54688 12116.54688
12242.0 0.0000817 12114.80762 12114.80762
12121.0 0.0000825 12113.07715 12113.07715
11937.0 0.0000838 12111.35645 12111.35645
12112.0 0.0000826 12109.64355 12109.64355
12007.0 0.0000833 12107.93945 12107.93945
12066.0 0.0000829 12106.24414 12106.24414
12214.0 0.0000819 12104.55664 12104.55664
12043.0 0.0000830 12102.87793 12102.87793
12094.0 0.0000827 12101.20703 12101.20703
12108.0 0.0000826 12099.54395 12099.54395
11957.0 0.0000836 12097.88965 12097.88965
12143.0 0.0000824 12096.24219 12096.24219
12034.0 0.0000831 12094.60352 12094.60352
12026.0 0.0000832 12092.97168 12092.97168
12005.0 0.0000833 12091.34766 12091.34766
12083.0 0.0000828 12089.73145 12089.73145
12192.0 0.0000820 12088.12207 12088.12207
12278.0 0.0000814 12086.51953 12086.51953
12106.0 0.0000826 12084.92480 12084.92480
12143.0 0.0000824 12083.33691 12083.33691
12280.0 0.0000814 12081.75586 12081.75586
11935.0 0.0000838 12080.18066 12080.18066
12042.0 0.0000830 12078.61328 12078.61328
12016.0 0.0000832 12077.05078 12077.05078
12169.0 0.0000822 12075.49609 12075.49609
11885.0 0.0000841 12073.94629 12073.94629
12118.0 0.0000825 12072.40430 12072.40430
12128.0 0.0000825 12070.86719 12070.86719
12001.0 0.0000833 12069.33594 12069.33594
12138.0 0.0000824 12067.81055 12067.81055
12083.0 0.0000828 12066.29004 12066.29004
12232.0 0.0000818 12064.77637 12064.77637
12328.0 0.0000811 12063.26660 12063.26660
11947.0 0.0000837 12061.76270 12061.76270
11981.0 0.0000835 12060.26367 12060.26367
12143.0 0.0000824 12058.76953 12058.76953
11885.0 0.0000841 12057.28027 12062.96777
11981.0 0.0000835 12055.79590 12061.75293
12031.0 0.0000831 12054.31641 12060.56250
12034.0 0.0000831 12052.83984 12059.39746
12032.0 0.0000831 12051.36914 12058.26172
12099.0 0.0000827 12049.90137 12057.15527
12022.0 0.0000832 12048.43848 12056.08398
11964.0 0.0000836 12046.97852 12055.04688
12000.0 0.0000833 12045.52344 12054.05176
11983.0 0.0000835 12044.07129 12053.10059
11958.0 0.0000836 12042.62207 12052.19824
12084.0 0.0000828 12041.17676 12051.35059
11985.0 0.0000834 12039.73438 12050.56445
11993.0 0.0000834 12038.29492 12049.84766
12014.0 0.0000832 12036.85840 12049.20898
11926.0 0.0000839 12035.42480 12048.66016
12155.0 0.0000823 12033.99414 12048.21387
11937.0 0.0000838 12032.56543 12047.88574
12151.0 0.0000823 12031.13965 12047.69434
12127.0 0.0000825 12029.71484 12047.66211
12061.0 0.0000829 12028.29297 12047.81934
12071.0 0.0000828 12026.87305 12048.20117
12179.0 0.0000821 12025.45410 12048.85254
11854.0 0.0000844 12024.03809 12049.83008
12213.0 0.0000819 12022.62305 12051.20898
12136.0 0.0000824 12021.20898 12053.08691
12059.0 0.0000829 12019.79590 12055.60156
12130.0 0.0000824 12018.38379 12058.97656
11940.0 0.0000838 12016.97363 12063.68066
12216.0 0.0000819 12015.56348 12070.89746
12045.0 0.0000830 12014.15430 12083.62695
12241.0 0.0000817 12012.74512 12108.40234
12099.0 0.0000827 12011.33691 12156.68750
12213.0 0.0000819 12009.92871 12244.03906
12248.0 0.0000816 12008.52051 12385.94336
12442.0 0.0000804 12007.11230 12592.63672
12371.0 0.0000808 12005.70410 12868.51465
12832.0 0.0000779 12004.29492 13217.83496
13482.0 0.0000742 12002.88574 13653.01270
14259.0 0.0000701 12001.47656 14203.99316
14805.0 0.0000675 12000.06543 14929.83398
16073.0 0.0000622 11998.65430 15924.30273
17286.0 0.0000579 11997.24219 17278.91016
19003.0 0.0000526 11995.82813 18952.24219
20480.0 0.0000488 11994.41309 20583.01563
21219.0 0.0000471 11992.99609 21464.63867
20951.0 0.0000477 11991.57813 20913.24414
18945.0 0.0000528 11990.15918 18948.79102
16725.0 0.0000598 11988.73730 16468.69727
14582.0 0.0000686 11987.31348 14403.66602
13284.0 0.0000753 11985.88867 13119.64941
12631.0 0.0000792 11984.46094 12493.03809
12301.0 0.0000813 11983.03027 12239.20508
12220.0 0.0000818 11981.59766 12142.96094
12134.0 0.0000824 11980.16211 12100.68262
12168.0 0.0000822 11978.72461 12075.90527
12112.0 0.0000826 11977.28320 12058.12793
12206.0 0.0000819 11975.83984 12044.26855
11950.0 0.0000837 11974.39258 12033.07520
12052.0 0.0000830 11972.94238 12023.82422
11888.0 0.0000841 11971.48828 12016.03027
12119.0 0.0000825 11970.03027 12009.34863
12017.0 0.0000832 11968.57031 12003.53418
11962.0 0.0000836 11967.10449 11998.40137
12124.0 0.0000825 11965.63672 11993.81543
12103.0 0.0000826 11964.16406 11989.66992
12191.0 0.0000820 11962.68652 11985.88281
11991.0 0.0000834 11961.20605 11982.39355
12031.0 0.0000831 11959.72070 11979.15039
12161.0 0.0000822 11958.23047 11976.11230
11869.0 0.0000843 11956.73535 11973.24805
12005.0 0.0000833 11955.23633 11970.53125
11900.0 0.0000840 11953.73242 11967.94043
11985.0 0.0000834 11952.22363 11965.45605
11826.0 0.0000846 11950.70898 11963.06348
12041.0 0.0000830 11949.18945 11960.75098
11968.0 0.0000836 11947.66504 11958.50781
11950.0 0.0000837 11946.13477 11956.32324
12121.0 0.0000825 11944.59961 11954.19238
11948.0 0.0000837 11943.05859 11952.10547
11901.0 0.0000840 11941.51074 11950.05762
11824.0 0.0000846 11939.95801 11939.95801
11774.0 0.0000849 11938.39941 11938.39941
11823.0 0.0000846 11936.83496 11936.83496
11809.0 0.0000847 11935.26367 11935.26367
11814.0 0.0000846 11933.68652 11933.68652
11740.0 0.0000852 11932.10352 11932.10352
12006.0 0.0000833 11930.51270 11930.51270
11857.0 0.0000843 11928.91699 11928.91699
11850.0 0.0000844 11927.31348 11927.31348
12090.0 0.0000827 11925.70313 11925.70313
11927.0 0.0000838 11924.08691 11924.08691
12013.0 0.0000832 11922.46289 11922.46289
11908.0 0.0000840 11920.83301 11920.83301
11854.0 0.0000844 11919.19434 11919.19434
11853.0 0.0000844 11917.54980 11917.54980
11858.0 0.0000843 11915.89746 11915.89746
12180.0 0.0000821 11914.23828 11914.23828
12015.0 0.0000832 11912.57129 11912.57129
11853.0 0.0000844 11910.89648 11910.89648
11837.0 0.0000845 11909.21387 11909.21387
11962.0 0.0000836 11907.52441 11907.52441
12055.0 0.0000830 11905.82715 11905.82715
11875.0 0.0000842 11904.12207 11904.12207
12040.0 0.0000831 11902.40820 11902.40820
12149.0 0.0000823 11900.68750 11907.13672
12048.0 0.0000830 11898.95801 11905.70410
11966.0 0.0000836 11897.21973 11904.28418
12116.0 0.0000825 11895.47461 11902.88086
12069.0 0.0000829 11893.72070 11901.49414
11845.0 0.0000844 11891.95801 11900.12695
11854.0 0.0000844 11890.18750 11898.78223
11976.0 0.0000835 11888.40820 11897.46387
11874.0 0.0000842 11886.62109 11896.17578
11917.0 0.0000839 11884.82422 11894.91992
11722.0 0.0000853 11883.01953 11893.70410
11835.0 0.0000845 11881.20605 11892.53320
11988.0 0.0000834 11879.38379 11891.41309
11820.0 0.0000846 11877.55273 11890.35254
11902.0 0.0000840 11875.71191 11889.35840
12026.0 0.0000832 11873.86328 11888.44434
11805.0 0.0000847 11872.00586 11887.62207
11934.0 0.0000838 11870.13867 11886.90430
11647.0 0.0000859 11868.26270 11886.31152
11779.0 0.0000849 11866.37793 11885.86426
11798.0 0.0000848 11864.48438 11885.58887
11785.0 0.0000849 11862.58105 11885.51660
11868.0 0.0000843 11860.66797 11885.68750
11900.0 0.0000840 11858.74609 11886.15234
11873.0 0.0000842 11856.81543 11886.97266
11928.0 0.0000838 11854.87500 11888.22852
11892.0 0.0000841 11852.92480 11890.02539
11907.0 0.0000840 11850.96582 11892.50098
11811.0 0.0000847 11848.99805 11895.85156
11947.0 0.0000837 11847.01953 11900.38379
11860.0 0.0000843 11845.03223 11906.71582
11877.0 0.0000842 11843.03516 11916.34961
12057.0 0.0000829 11841.02930 11932.99609
11785.0 0.0000849 11839.01367 11964.70020
12068.0 0.0000829 11836.98730 12025.72363
12007.0 0.0000833 11834.95215 12135.99512
12356.0 0.0000809 11832.90820 12316.57715
12285.0 0.0000814 11830.85352 12583.56543
12778.0 0.0000783 11828.79004 12947.49707
13275.0 0.0000753 11826.71680 13421.83887
14121.0 0.0000708 11824.63281 14037.23145
14918.0 0.0000670 11822.54102 14857.10254
16461.0 0.0000607 11820.43848 15980.97168
17772.0 0.0000563 11818.32617 17494.29492
19337.0 0.0000517 11816.20410 19319.54492
21329.0 0.0000469 11814.07324 21029.99609
21861.0 0.0000457 11811.93164 21860.15625
21037.0 0.0000475 11809.78125 21129.14453
19110.0 0.0000523 11807.62109 18963.26367
16087.0 0.0000622 11805.45117 16363.92090
14165.0 0.0000706 11803.27148 14259.44336
12845.0 0.0000779 11801.08203 12970.60352
12295.0 0.0000813 11798.88281 12343.33398
12230.0 0.0000818 11796.67480 12085.25195
12027.0 0.0000831 11794.45703 11983.02344
11966.0 0.0000836 11792.22949 11935.13086
11780.0 0.0000849 11789.99219 11905.70801
11931.0 0.0000838 11787.74512 11884.14844
11993.0 0.0000834 11785.48926 11867.15527
11743.0 0.0000852 11783.22266 11853.29883
11913.0 0.0000839 11780.94824 11841.73730
11988.0 0.0000834 11778.66309 11831.89551
11858.0 0.0000843 11776.36914 11823.37305
11964.0 0.0000836 11774.06543 11815.87305
11764.0 0.0000850 11771.75195 11809.18164
11691.0 0.0000855 11769.42969 11803.13477
11785.0 0.0000849 11767.09863 11797.60938
11585.0 0.0000863 11764.75781 11792.50879
11713.0 0.0000854 11762.40820 11787.75781
11687.0 0.0000856 11760.04785 11783.29492
11744.0 0.0000851 11757.67969 11779.07617
11744.0 0.0000851 11755.30273 11775.06152
11749.0 0.0000851 11752.91602 11771.21777
11702.0 0.0000855 11750.52051 11767.52148
11821.0 0.0000846 11748.11523 11763.94922
11676.0 0.0000856 11745.70215 11760.48535
11752.0 0.0000851 11743.27930 11757.11328
11602.0 0.0000862 11740.84766 11753.82129
11634.0 0.0000860 11738.40723 11750.59863
11732.0 0.0000852 11735.95898 11747.43652
11731.0 0.0000852 11733.50098 11744.32617
11815.0 0.0000846 11731.03418 11741.26074
11681.0 0.0000856 11728.55957 11738.23535
11656.0 0.0000858 11726.07617 11735.24512
11733.0 0.0000852 11723.58496 11732.28613
11730.0 0.0000853 11721.08398 11729.35156
11691.0 0.0000855 11718.57520 11726.44141
11590.0 0.0000863 11716.05859 11723.55176
11534.0 0.0000867 11713.53320 11720.67969
11805.0 0.0000847 11711.00000 11717.82324
11596.0 0.0000862 11708.45898 11714.98047
11774.0 0.0000849 11705.90918 11712.14844
11675.0 0.0000857 11703.35156 11703.35156
11727.0 0.0000853 11700.78613 11700.78613
11771.0 0.0000850 11698.21289 11698.21289
11786.0 0.0000848 11695.63184 11695.63184
11708.0 0.0000854 11693.04395 11693.04395
11666.0 0.0000857 11690.44727 11690.44727
12039.0 0.0000831 11687.84375 11687.84375
11850.0 0.0000844 11685.23340 11685.23340
11793.0 0.0000848 11682.61426 11682.61426
11658.0 0.0000858 11679.98926 11679.98926
11820.0 0.0000846 11677.35547 11677.35547
11688.0 0.0000856 11674.71582 11674.71582
11703.0 0.0000854 11672.06836 11672.06836
11650.0 0.0000858 11669.41504 11669.41504
11706.0 0.0000854 11666.75391 11666.75391
11927.0 0.0000838 11664.08594 11664.08594
11711.0 0.0000854 11661.41211 11663.91602
11754.0 0.0000851 11658.73047 11661.32715
11664.0 0.0000857 11656.04297 11658.73633
11732.0 0.0000852 11653.34961 11656.14551
11892.0 0.0000841 11650.64941 11653.55371
11752.0 0.0000851 11647.94238 11650.96191
11683.0 0.0000856 11645.22949 11648.37109
11809.0 0.0000847 11642.51074 11645.78125
11698.0 0.0000855 11639.78711 11643.19531
11590.0 0.0000863 11637.05566 11640.61035
11568.0 0.0000864 11634.32031 11638.03125
11572.0 0.0000864 11631.57813 11635.45605
11651.0 0.0000858 11628.83008 11632.88672
11558.0 0.0000865 11626.07715 11630.32422
11568.0 0.0000864 11623.31934 11627.77148
11672.0 0.0000857 11620.55566 11625.22754
11654.0 0.0000858 11617.78711 11622.69629
11774.0 0.0000849 11615.01367 11620.17773
11604.0 0.0000862 11612.23438 11617.67383
11677.0 0.0000856 11609.45117 11615.18945
11447.0 0.0000874 11606.66309 11612.72559
11716.0 0.0000854 11603.86914 11610.28320
11697.0 0.0000855 11601.07227 11607.87012
11735.0 0.0000852 11598.27051 11605.48828
11443.0 0.0000874 11595.46387 11603.14160
11633.0 0.0000860 11592.65332 11600.83594
11569.0 0.0000864 11589.83887 11598.57813
11390.0 0.0000878 11587.02051 11596.37598
11512.0 0.0000869 11584.19824 11594.23828
11608.0 0.0000861 11581.37207 11592.17480
11463.0 0.0000872 11578.54199 11590.19727
11690.0 0.0000855 11575.70898 11588.32422
11560.0 0.0000865 11572.87207 11586.57129
11723.0 0.0000853 11570.03223 11584.96191
11477.0 0.0000871 11567.18945 11583.52637
11550.0 0.0000866 11564.34277 11582.29688
11503.0 0.0000869 11561.49316 11581.32129
11562.0 0.0000865 11558.64063 11580.65625
11496.0 0.0000870 11555.78613 11582.33105
11435.0 0.0000875 11552.92871 11582.61621
11524.0 0.0000868 11550.06836 11583.54004
11649.0 0.0000858 11547.20605 11585.33496
11573.0 0.0000864 11544.34180 11588.44434
11302.0 0.0000885 11541.47461 11593.83691
11495.0 0.0000870 11538.60547 11603.63281
11727.0 0.0000853 11535.73438 11621.98438
11431.0 0.0000875 11532.86230 11655.79395
11630.0 0.0000860 11529.98828 11714.50195
11705.0 0.0000854 11527.11230 11808.48633
11940.0 0.0000838 11524.23535 11947.18359
12132.0 0.0000824 11521.35645 12139.91211
12461.0 0.0000803 11518.47656 12400.60352
12914.0 0.0000774 11515.59570 12753.31055
13406.0 0.0000746 11512.71387 13229.26855
14100.0 0.0000709 11509.83105 13841.35254
14749.0 0.0000678 11506.94824 14531.37207
15175.0 0.0000659 11504.06348 15123.10254
15180.0 0.0000659 11501.17871 15346.99316
14989.0 0.0000667 11498.29492 14994.11523
13971.0 0.0000716 11495.40918 14164.35449
13034.0 0.0000767 11492.52441 13227.69238
12277.0 0.0000815 11489.63867 12478.39258
11965.0 0.0000836 11486.75391 12006.36230
11558.0 0.0000865 11483.86914 11760.30371
11715.0 0.0000854 11480.98438 11647.06250
11555.0 0.0000865 11478.10059 11595.18750
11581.0 0.0000863 11475.21680 11567.59570
11584.0 0.0000863 11472.33496 11549.54980
11668.0 0.0000857 11469.45313 11536.02051
11714.0 0.0000854 11466.57227 11525.23145
11430.0 0.0000875 11463.69141 11516.37695
11693.0 0.0000855 11460.81348 11508.98926
11492.0 0.0000870 11457.93652 11502.76074
11474.0 0.0000872 11455.06055 11497.48438
11545.0 0.0000866 11452.18652 11493.02930
11664.0 0.0000857 11449.31445 11489.31738
11447.0 0.0000874 11446.44336 11486.31445
11557.0 0.0000865 11443.57520 11484.03516
11614.0 0.0000861 11440.70801 11482.54492
11503.0 0.0000869 11437.84375 11481.99902
11530.0 0.0000867 11434.98145 11482.74707
11494.0 0.0000870 11432.12109 11485.59668
11412.0 0.0000876 11429.26367 11492.30566
11462.0 0.0000872 11426.40918 11506.25684
11479.0 0.0000871 11423.55762 11532.95117
11547.0 0.0000866 11420.70801 11579.80859
11438.0 0.0000874 11417.86230 11654.97266
11612.0 0.0000861 11415.01855 11766.19434
11819.0 0.0000846 11412.17969 11921.94922
12058.0 0.0000829 11409.34277 12135.09180
12153.0 0.0000823 11406.50977 12425.29199
12874.0 0.0000777 11403.68066 12811.41602
13464.0 0.0000743 11400.85547 13284.94043
13738.0 0.0000728 11398.03320 13770.82031
14151.0 0.0000707 11395.21484 14110.43457
14325.0 0.0000698 11392.40039 14111.44238
13798.0 0.0000725 11389.59082 13696.91309
12968.0 0.0000771 11386.78516 13040.54102
12509.0 0.0000799 11383.98438 12408.17871
11979.0 0.0000835 11381.18750 11948.87109
11746.0 0.0000851 11378.39453 11678.66211
11418.0 0.0000876 11375.60742 11543.23535
11406.0 0.0000877 11372.82422 11480.31055
11547.0 0.0000866 11370.04590 11445.51660
11496.0 0.0000870 11367.27344 11426.97656
11387.0 0.0000878 11364.50586 11413.67090
11428.0 0.0000875 11361.74316 11403.09473
11419.0 0.0000876 11358.98535 11394.27051
11318.0 0.0000884 11356.23438 11386.69531
11312.0 0.0000884 11353.48730 11380.04688
11553.0 0.0000866 11350.74609 11374.10742
11362.0 0.0000880 11348.01172 11368.71875
11414.0 0.0000876 11345.28223 11363.76270
11215.0 0.0000892 11342.55957 11359.15430
11506.0 0.0000869 11339.84180 11354.82520
11274.0 0.0000887 11337.13086 11350.72559
11341.0 0.0000882 11334.42578 11346.81738
11259.0 0.0000888 11331.72754 11343.06836
11339.0 0.0000882 11329.03516 11339.45410
11257.0 0.0000888 11326.34961 11335.95410
11228.0 0.0000891 11323.67090 11332.55273
11409.0 0.0000877 11320.99902 11329.23730
11244.0 0.0000889 11318.33301 11325.99512
11288.0 0.0000886 11315.67480 11322.81934
11506.0 0.0000869 11313.02344 11319.70117
11333.0 0.0000882 11310.37891 11316.63379
11431.0 0.0000875 11307.74121 11313.61230
11081.0 0.0000902 11305.11133 11310.63281
11364.0 0.0000880 11302.48828 11307.69043
11231.0 0.0000890 11299.87305 11304.78320
11414.0 0.0000876 11297.26563 11301.90723
11363.0 0.0000880 11294.66602 11299.06055
11355.0 0.0000881 11292.07324 11296.24023
11286.0 0.0000886 11289.48828 11293.44531
11272.0 0.0000887 11286.91211 11290.67383
11335.0 0.0000882 11284.34277 11287.92383
11387.0 0.0000878 11281.78223 11285.19531
11153.0 0.0000897 11279.22949 11282.48633
11350.0 0.0000881 11276.68457 11279.79492
11340.0 0.0000882 11274.14844 11277.12305
11282.0 0.0000886 11271.62109 11274.46777
11409.0 0.0000877 11269.10059 11271.82715
11734.0 0.0000852 11266.58984 11269.20508
11371.0 0.0000879 11264.08789 11266.59766
11377.0 0.0000879 11261.59375 11264.00391
11350.0 0.0000881 11259.10840 11261.42578
11338.0 0.0000882 11256.63184 11258.86035
11286.0 0.0000886 11254.16504 11256.31055
11138.0 0.0000898 11251.70605 11253.77344
11111.0 0.0000900 11249.25684 11251.25000
11117.0 0.0000900 11246.81641 11248.73926
11287.0 0.0000886 11244.38477 11244.38477
11165.0 0.0000896 11241.96289 11241.96289
11217.0 0.0000892 11239.54980 11239.54980
11487.0 0.0000871 11237.14551 11237.14551
11238.0 0.0000890 11234.75195 11234.75195
11289.0 0.0000886 11232.36621 11232.36621
11176.0 0.0000895 11229.99121 11229.99121
11156.0 0.0000896 11227.62500 11227.62500
11146.0 0.0000897 11225.26953 11225.26953
11416.0 0.0000876 11222.92188 11222.92188
11257.0 0.0000888 11220.58496 11220.58496
11182.0 0.0000894 11218.25879 11218.25879
11169.0 0.0000895 11215.94141 11215.94141
11552.0 0.0000866 11213.63379 11213.63379
11216.0 0.0000892 11211.33594 11211.33594
11124.0 0.0000899 11209.04785 11209.04785
11155.0 0.0000896 11206.77051 11206.77051
11260.0 0.0000888 11204.50293 11204.50293
11340.0 0.0000882 11202.24609 11202.24609
11061.0 0.0000904 11199.99902 11229.49414
10897.0 0.0000918 11197.76172 11228.61230
11201.0 0.0000893 11195.53516 11227.83691
11179.0 0.0000895 11193.31836 11227.17578
11298.0 0.0000885 11191.11230 11226.64063
11088.0 0.0000902 11188.91699 11226.24414
11307.0 0.0000884 11186.73047 11225.99609
11243.0 0.0000889 11184.55566 11235.45605
11397.0 0.0000877 11182.39063 11235.90430
10995.0 0.0000910 11180.23730 11236.57520
11359.0 0.0000880 11178.09375 11237.49023
11325.0 0.0000883 11175.96094 11238.67969
11190.0 0.0000894 11173.83789 11240.17188
11097.0 0.0000901 11171.72656 11242.00586
11338.0 0.0000882 11169.62500 11244.22168
11106.0 0.0000900 11167.53516 11246.87012
11191.0 0.0000894 11165.45508 11250.00781
11302.0 0.0000885 11163.38574 11253.70410
11249.0 0.0000889 11161.32813 11258.04199
11292.0 0.0000886 11159.28027 11263.11426
11128.0 0.0000899 11157.24316 11269.04199
11283.0 0.0000886 11155.21777 11275.96387
11221.0 0.0000891 11153.20215 11284.05469
11237.0 0.0000890 11151.19824 11293.52930
11309.0 0.0000884 11149.20410 11304.65430
11214.0 0.0000892 11147.22168 11317.76563
11229.0 0.0000891 11145.25000 11333.29688
11297.0 0.0000885 11143.29004 11351.80371
11368.0 0.0000880 11141.33984 11374.01855
11559.0 0.0000865 11139.40039 11400.93457
11413.0 0.0000876 11137.47266 11433.95898
11510.0 0.0000869 11135.55566 11475.34668
11595.0 0.0000862 11133.65039 11529.51465
11659.0 0.0000858 11131.75488 11606.59863
11912.0 0.0000839 11129.87109 11730.14453
12066.0 0.0000829 11127.99707 11949.00195
12615.0 0.0000793 11126.13477 12348.43750
13070.0 0.0000765 11124.28418 13050.83789
14184.0 0.0000705 11122.44336 14200.36914
15815.0 0.0000632 11120.61426 15947.75000
18448.0 0.0000542 11118.79590 18473.02344
21926.0 0.0000456 11116.98828 22056.84766
26733.0 0.0000374 11115.19141 26989.89258
32529.0 0.0000307 11113.40625 33361.52734
38620.0 0.0000259 11111.63184 40387.80859
44693.0 0.0000224 11109.86816 45977.90234
47636.0 0.0000210 11108.11523 47259.19922
43599.0 0.0000229 11106.37402 42600.69922
34781.0 0.0000288 11104.64258 33928.12109
24964.0 0.0000401 11102.92285 25125.23242
18290.0 0.0000547 11101.21387 18670.68164
14915.0 0.0000670 11099.51563 14969.29590
13379.0 0.0000747 11097.82813 13244.49805
12741.0 0.0000785 11096.15137 12573.28516
12500.0 0.0000800 11094.48633 12383.60156
12482.0 0.0000801 11092.83105 12451.21777
12791.0 0.0000782 11091.18652 12740.73145
13359.0 0.0000749 11089.55371 13288.32031
14199.0 0.0000704 11087.93066 14156.53418
15604.0 0.0000641 11086.31836 15435.10645
17540.0 0.0000570 11084.71777 17242.51367
20277.0 0.0000493 11083.12695 19652.51367
22951.0 0.0000436 11081.54688 22499.19531
25438.0 0.0000393 11079.97754 25156.39648
26530.0 0.0000377 11078.41895 26552.51367
25985.0 0.0000385 11076.87012 25684.23828
22958.0 0.0000436 11075.33301 22650.33594
18968.0 0.0000527 11073.80566 18860.75586
15607.0 0.0000641 11072.28906 15659.14258
13591.0 0.0000736 11070.78320 13562.96875
12439.0 0.0000804 11069.28711 12440.92090
11653.0 0.0000858 11067.80176 11921.46973
11759.0 0.0000850 11066.32617 11691.09473
11568.0 0.0000864 11064.86133 11577.74902
11374.0 0.0000879 11063.40625 11510.50098
11515.0 0.0000868 11061.96191 11464.87598
11355.0 0.0000881 11060.52832 11432.49512
11493.0 0.0000870 11059.10352 11409.84277
11325.0 0.0000883 11057.69043 11395.05859
11417.0 0.0000876 11056.28613 11387.08984
11419.0 0.0000876 11054.89258 11385.44238
11377.0 0.0000879 11053.50781 11390.07715
11404.0 0.0000877 11052.13379 11401.43750
11328.0 0.0000883 11050.76953 11420.60254
11481.0 0.0000871 11049.41504 11449.84668
11308.0 0.0000884 11048.07129 11494.09180
11443.0 0.0000874 11046.73633 11564.05469
11612.0 0.0000861 11045.41113 11681.45313
11965.0 0.0000836 11044.09570 11885.13770
12124.0 0.0000825 11042.79004 12235.18457
12626.0 0.0000792 11041.49316 12811.49316
13358.0 0.0000749 11040.20605 13678.31543
14872.0 0.0000672 11038.92871 15001.21484
16787.0 0.0000596 11037.66113 16879.02148
18962.0 0.0000527 11036.40234 19438.73047
22337.0 0.0000448 11035.15332 22684.85156
25564.0 0.0000391 11033.91309 26270.77539
28679.0 0.0000349 11032.68164 29312.00391
29556.0 0.0000338 11031.45996 30507.30273
28921.0 0.0000346 11030.24707 28848.27148
25328.0 0.0000395 11029.04297 24830.49219
20961.0 0.0000477 11027.84766 20247.69727
16556.0 0.0000604 11026.66211 16508.26953
13586.0 0.0000736 11025.48438 14065.29297
12449.0 0.0000803 11024.31641 12723.38574
11812.0 0.0000847 11023.15625 12067.87988
11305.0 0.0000885 11022.00488 11754.06348
11394.0 0.0000878 11020.86230 11587.01953
11465.0 0.0000872 11019.72852 11481.54492
11334.0 0.0000882 11018.60254 11405.68945
11281.0 0.0000886 11017.48535 11333.22949
11210.0 0.0000892 11016.37598 11287.57813
11233.0 0.0000890 11015.27539 11250.70605
11284.0 0.0000886 11014.18262 11220.45313
11137.0 0.0000898 11013.09766 11195.29199
11065.0 0.0000904 11012.02148 11174.11035
11205.0 0.0000892 11010.95313 11156.08398
10907.0 0.0000917 11009.89258 11140.58887
11365.0 0.0000880 11008.83984 11127.14941
11045.0 0.0000905 11007.79492 11115.39648
11069.0 0.0000903 11006.75781 11105.04102
11062.0 0.0000904 11005.72754 11095.85156
11098.0 0.0000901 11004.70508 11087.64453
11094.0 0.0000901 11003.69141 11080.27148
11019.0 0.0000908 11002.68359 11073.60840
11054.0 0.0000905 11001.68359 11067.55664
11042.0 0.0000906 11000.69043 11062.03320
11173.0 0.0000895 10999.70508 11056.96875
11199.0 0.0000893 10998.72754 11052.30664
11065.0 0.0000904 10997.75586 11047.99414
11152.0 0.0000897 10996.79199 11043.99219
11172.0 0.0000895 10995.83398 11040.26367
11087.0 0.0000902 10994.88379 11036.78027
11147.0 0.0000897 10993.93945 11033.51270
11002.0 0.0000909 10993.00195 11030.44043
10965.0 0.0000912 10992.07129 11027.54297
11106.0 0.0000900 10991.14746 11024.80371
10990.0 0.0000910 10990.22949 11022.20605
11078.0 0.0000903 10989.31836 11019.73828
10990.0 0.0000910 10988.41309 11017.38672
11273.0 0.0000887 10987.51465 11015.14258
11034.0 0.0000906 10986.62207 11012.99609
10966.0 0.0000912 10985.73535 11010.93945
11165.0 0.0000896 10984.85449 11008.96484
11101.0 0.0000901 10983.97949 11007.06543
11082.0 0.0000902 10983.11133 11005.23633
11016.0 0.0000908 10982.24707 11003.47070
10999.0 0.0000909 10981.38965 11001.76563
11044.0 0.0000905 10980.53809 11000.11621
11153.0 0.0000897 10979.69141 10998.51758
11036.0 0.0000906 10978.85059 10996.96680
10972.0 0.0000911 10978.01465 10995.46094
11021.0 0.0000907 10977.18359 10993.99609
10966.0 0.0000912 10976.35840 10992.57129
10922.0 0.0000916 10975.53809 10991.18262
11096.0 0.0000901 10974.72363 10974.72363
10990.0 0.0000910 10973.91309 10973.91309
11036.0 0.0000906 10973.10742 10973.10742
10964.0 0.0000912 10972.30664 10972.30664
10875.0 0.0000920 10971.51074 10971.51074
10947.0 0.0000913 10970.71875 10970.71875
10939.0 0.0000914 10969.93262 10969.93262
11023.0 0.0000907 10969.15039 10969.15039
11005.0 0.0000909 10968.37207 10968.37207
10935.0 0.0000914 10967.59863 10967.59863
10774.0 0.0000928 10966.82813 10966.82813
11089.0 0.0000902 10966.06348 10966.06348
10988.0 0.0000910 10965.30176 10965.30176
11028.0 0.0000907 10964.54395 10964.54395
11109.0 0.0000900 10963.79004 10963.79004
11234.0 0.0000890 10963.04102 10963.04102
11008.0 0.0000908 10962.29492 10962.29492
11145.0 0.0000897 10961.55273 10961.55273
10910.0 0.0000917 10960.81348 10960.81348
10959.0 0.0000912 10960.07813 10960.07813
10988.0 0.0000910 10959.34570 10959.34570
11204.0 0.0000893 10958.61719 10958.61719
10943.0 0.0000914 10957.89160 10957.89160
10799.0 0.0000926 10957.16895 10957.16895
11063.0 0.0000904 10956.45020 10956.45020
11038.0 0.0000906 10955.73340 10955.73340
10998.0 0.0000909 10955.02051 10955.02051
10993.0 0.0000910 10954.30957 10954.30957
10828.0 0.0000924 10953.60156 10953.60156
10863.0 0.0000921 10952.89648 10952.89648
10870.0 0.0000920 10952.19434 10952.19434
11030.0 0.0000907 10951.49414 10951.49414
10951.0 0.0000913 10950.79590 10950.79590
10853.0 0.0000921 10950.10059 10950.10059
10963.0 0.0000912 10949.40820 10949.40820
11023.0 0.0000907 10948.71680 10948.71680
11131.0 0.0000898 10948.02832 10948.02832
10898.0 0.0000918 10947.34180 10947.34180
11172.0 0.0000895 10946.65625 10946.65625
10926.0 0.0000915 10945.97363 10945.97363
10909.0 0.0000917 10945.29297 10945.29297
10903.0 0.0000917 10944.61328 10944.61328
10885.0 0.0000919 10943.93555 10943.93555
10882.0 0.0000919 10943.25879 10943.25879
10874.0 0.0000920 10942.58496 10942.58496
10972.0 0.0000911 10941.91113 10941.91113
11024.0 0.0000907 10941.23926 10941.23926
11013.0 0.0000908 10940.56836 10940.56836
10935.0 0.0000914 10939.89941 10939.89941
10922.0 0.0000916 10939.23047 10939.23047
10964.0 0.0000912 10938.56348 10938.56348
10704.0 0.0000934 10937.89648 10937.89648
10923.0 0.0000915 10937.23145 10937.23145
10844.0 0.0000922 10936.56641 10936.56641
10694.0 0.0000935 10935.90234 10935.90234
11087.0 0.0000902 10935.23926 10935.23926
10996.0 0.0000909 10934.57617 10934.57617
10924.0 0.0000915 10933.91406 10933.91406
10825.0 0.0000924 10933.25293 10933.25293
10912.0 0.0000916 10932.59180 10932.59180
10900.0 0.0000917 10931.92969 10931.92969
10949.0 0.0000913 10931.26953 10931.26953
10995.0 0.0000910 10930.60840 10930.60840
10987.0 0.0000910 10929.94824 10929.94824
10998.0 0.0000909 10929.28711 10929.28711
11152.0 0.0000897 10928.62695 10928.62695
11020.0 0.0000907 10927.96582 10927.96582
11005.0 0.0000909 10927.30566 10927.30566
10931.0 0.0000915 10926.64453 10926.64453
10884.0 0.0000919 10925.98242 10925.98242
10993.0 0.0000910 10925.32129 10925.32129
10988.0 0.0000910 10924.65918 10924.65918
11011.0 0.0000908 10923.99609 10923.99609
10968.0 0.0000912 10923.33301 10923.33301
11056.0 0.0000904 10922.66895 10922.66895
10996.0 0.0000909 10922.00391 10922.00391
10803.0 0.0000926 10921.33789 10921.33789
10928.0 0.0000915 10920.67188 10920.67188
10854.0 0.0000921 10920.00488 10920.00488
10877.0 0.0000919 10919.33691 10919.33691
10999.0 0.0000909 10918.66699 10918.66699
10941.0 0.0000914 10917.99707 10917.99707
10840.0 0.0000923 10917.32617 10923.42578
10755.0 0.0000930 10916.65332 10923.03516
10813.0 0.0000925 10915.97949 10923.73633
10928.0 0.0000915 10915.30371 10923.43457
10940.0 0.0000914 10914.62695 10923.15918
10819.0 0.0000924 10913.94922 10922.91309
10869.0 0.0000920 10913.26953 10922.69922
10917.0 0.0000916 10912.58887 10922.52148
10868.0 0.0000920 10911.90625 10922.38184
10820.0 0.0000924 10911.22168 10922.28809
10903.0 0.0000917 10910.53516 10922.24316
10822.0 0.0000924 10909.84766 10922.25391
11102.0 0.0000901 10909.15820 10922.32813
11023.0 0.0000907 10908.46582 10922.47168
10929.0 0.0000915 10907.77246 10922.69824
11103.0 0.0000901 10907.07715 10923.01563
11116.0 0.0000900 10906.37988 10923.43652
11115.0 0.0000900 10905.67969 10923.97949
11265.0 0.0000888 10904.97852 10924.66016
11190.0 0.0000894 10904.27441 10925.50195
11077.0 0.0000903 10903.56738 10926.53125
10749.0 0.0000930 10902.85938 10927.78125
10813.0 0.0000925 10902.14844 10929.29199
10923.0 0.0000915 10901.43555 10931.11230
10899.0 0.0000918 10900.71973 10933.30273
10915.0 0.0000916 10900.00098 10935.94238
10905.0 0.0000917 10899.28027 10939.12793
10833.0 0.0000923 10898.55762 10942.99023
10909.0 0.0000917 10897.83105 10947.69434
10893.0 0.0000918 10897.10254 10953.46582
11042.0 0.0000906 10896.37109 10960.60840
10846.0 0.0000922 10895.63770 10969.56641
10923.0 0.0000915 10894.90039 10981.06836
10997.0 0.0000909 10894.16113 10996.59668
11172.0 0.0000895 10893.41895 11019.66992
11006.0 0.0000909 10892.67285 11058.67871
11156.0 0.0000896 10891.92480 11131.45410
11406.0 0.0000877 10891.17285 11270.12598
11803.0 0.0000847 10890.41895 11523.66895
12255.0 0.0000816 10889.66113 11957.15723
13158.0 0.0000760 10888.90137 12651.38477
13859.0 0.0000722 10888.13770 13700.73828
15497.0 0.0000645 10887.37012 15174.97461
17222.0 0.0000581 10886.60059 16999.52148
19327.0 0.0000517 10885.82715 18800.61133
20308.0 0.0000492 10885.05078 19899.48242
19371.0 0.0000516 10884.27051 19645.29492
17853.0 0.0000560 10883.48730 18056.36523
15576.0 0.0000642 10882.70020 15908.02734
13981.0 0.0000715 10881.91016 13961.68750
12470.0 0.0000802 10881.11719 12584.26367
11968.0 0.0000836 10880.32031 11777.78516
11523.0 0.0000868 10879.51953 11365.42285
11268.0 0.0000887 10878.71582 11170.14160
10882.0 0.0000919 10877.90820 11077.59863
11081.0 0.0000902 10877.09668 11029.15918
11036.0 0.0000906 10876.28223 10999.29004
11005.0 0.0000909 10875.46387 10978.09570
10909.0 0.0000917 10874.64160 10961.82129
10834.0 0.0000923 10873.81641 10948.83105
10866.0 0.0000920 10872.98633 10938.21973
10846.0 0.0000922 10872.15332 10929.40137
10855.0 0.0000921 10871.31641 10921.96094
10719.0 0.0000933 10870.47559 10915.59570
10884.0 0.0000919 10869.63184 10915.20703
10840.0 0.0000923 10868.78320 10910.56543
10671.0 0.0000937 10867.93164 10906.49121
10683.0 0.0000936 10867.07520 10902.88281
11024.0 0.0000907 10866.21582 10899.66406
10884.0 0.0000919 10865.35156 10896.77051
10831.0 0.0000923 10864.48340 10894.15430
10792.0 0.0000927 10863.61230 10891.77930
10812.0 0.0000925 10862.73633 10889.60645
10955.0 0.0000913 10861.85742 10887.61719
10912.0 0.0000916 10860.97363 10885.78516
10826.0 0.0000924 10860.08594 10884.09375
10937.0 0.0000914 10859.19434 10882.53223
10733.0 0.0000932 10858.29883 10881.08594
11014.0 0.0000908 10857.39941 10879.74609
10863.0 0.0000921 10856.49609 10878.50781
10827.0 0.0000924 10855.58789 10878.30273
11061.0 0.0000904 10854.67676 10877.28418
10690.0 0.0000935 10853.76074 10876.35352
10751.0 0.0000930 10852.84082 10875.51270
10823.0 0.0000924 10851.91699 10874.76367
10810.0 0.0000925 10850.98828 10874.10254
10834.0 0.0000923 10850.05664 10873.53613
10757.0 0.0000930 10849.12012 10873.06738
10772.0 0.0000928 10848.17969 10872.70410
10697.0 0.0000935 10847.23438 10872.45215
10917.0 0.0000916 10846.28613 10872.32227
10902.0 0.0000917 10845.33301 10866.61621
10799.0 0.0000926 10844.37598 10867.00586
10826.0 0.0000924 10843.41504 10866.51855
10672.0 0.0000937 10842.44922 10867.27441
10907.0 0.0000917 10841.48047 10868.23047
10813.0 0.0000925 10840.50586 10869.41602
10922.0 0.0000916 10839.52832 10870.87402
10742.0 0.0000931 10838.54590 10872.65332
10852.0 0.0000921 10837.56055 10874.81543
10843.0 0.0000922 10836.57031 10877.43555
11067.0 0.0000904 10835.57520 10880.61035
11146.0 0.0000897 10834.57617 10884.46289
10904.0 0.0000917 10833.57422 10889.15332
10787.0 0.0000927 10832.56641 10894.88574
10914.0 0.0000916 10831.55566 10901.94238
10774.0 0.0000928 10830.54004 10910.70215
10901.0 0.0000917 10829.52051 10921.71875
10898.0 0.0000918 10828.49707 10935.88184
11043.0 0.0000906 10827.46973 10954.91504
11022.0 0.0000907 10826.43750 10982.61328
11172.0 0.0000895 10825.40137 11027.44043
11111.0 0.0000900 10824.36133 11106.66699
11360.0 0.0000880 10823.31641 11251.14844
11696.0 0.0000855 10822.26855 11508.97266
12275.0 0.0000815 10821.21582 11945.73340
13110.0 0.0000763 10820.15918 12639.94531
14148.0 0.0000707 10819.09863 13667.15332
15552.0 0.0000643 10818.03418 15044.29102
17266.0 0.0000579 10816.96484 16627.50977
18801.0 0.0000532 10815.89258 18019.77930
19411.0 0.0000515 10814.81543 18625.00586
18443.0 0.0000542 10813.73438 17981.84766
16639.0 0.0000601 10812.64941 16312.04004
14447.0 0.0000692 10811.56055 14409.21680
12461.0 0.0000803 10810.46777 12885.79883
11708.0 0.0000854 10809.37109 11926.06348
11210.0 0.0000892 10808.26953 11428.74023
11144.0 0.0000897 10807.16504 11209.62695
10865.0 0.0000920 10806.05566 11129.59180
10805.0 0.0000925 10804.94336 11120.99609
10937.0 0.0000914 10803.82617 11163.85449
11217.0 0.0000892 10802.70605 11259.23145
11320.0 0.0000883 10801.58203 11412.11230
11605.0 0.0000862 10800.45313 11615.74707
11716.0 0.0000854 10799.32129 11836.64648
12104.0 0.0000826 10798.18555 12006.10645
12001.0 0.0000833 10797.04492 12037.10840
12042.0 0.0000830 10795.90137 11883.70117
11653.0 0.0000858 10794.75488 11609.36621
11202.0 0.0000893 10793.60352 11330.15137
11094.0 0.0000901 10792.44824 11116.95605
10760.0 0.0000929 10791.29004 10983.66406
10957.0 0.0000913 10790.12793 10911.67871
10784.0 0.0000927 10788.96191 10875.34082
10762.0 0.0000929 10787.79199 10855.97656
10815.0 0.0000925 10786.61914 10843.88770
10866.0 0.0000920 10785.44238 10835.04785
10995.0 0.0000910 10784.26172 10827.95410
10801.0 0.0000926 10783.07813 10821.99707
10616.0 0.0000942 10781.88965 10816.86816
10750.0 0.0000930 10780.69922 10812.36816
10780.0 0.0000928 10779.50488 10808.36035
10745.0 0.0000931 10778.30664 10804.74316
10917.0 0.0000916 10777.10449 10801.44238
10717.0 0.0000933 10775.89941 10798.39941
10663.0 0.0000938 10774.69141 10795.57129
10611.0 0.0000942 10773.47949 10792.92090
10596.0 0.0000944 10772.26465 10790.42188
10531.0 0.0000950 10771.04688 10788.05078
10712.0 0.0000934 10769.82422 10785.78906
10753.0 0.0000930 10768.59961 10783.62500
10790.0 0.0000927 10767.37109 10781.54004
10633.0 0.0000940 10766.13965 10779.52930
10781.0 0.0000928 10764.90527 10777.58105
10758.0 0.0000930 10763.66699 10775.68750
10714.0 0.0000933 10762.42676 10773.84473
10438.0 0.0000958 10761.18262 10772.04492
10750.0 0.0000930 10759.93555 10770.28516
10634.0 0.0000940 10758.68457 10768.55664
10776.0 0.0000928 10757.43164 10766.86133
10607.0 0.0000943 10756.17480 10765.19531
10783.0 0.0000927 10754.91602 10763.55371
10903.0 0.0000917 10753.65332 10761.93457
10624.0 0.0000941 10752.38867 10760.33887
10689.0 0.0000936 10751.12012 10758.75977
10734.0 0.0000932 10749.84961 10757.20215
10712.0 0.0000934 10748.57520 10755.65820
10853.0 0.0000921 10747.29883 10749.13672
10961.0 0.0000912 10746.01953 10747.79590
10764.0 0.0000929 10744.73730 10746.46387
10805.0 0.0000925 10743.45215 10745.14258
10749.0 0.0000930 10742.16504 10743.84082
10690.0 0.0000935 10740.87500 10742.57617
10676.0 0.0000937 10739.58203 10741.38184
10643.0 0.0000940 10738.28711 10740.31836
10700.0 0.0000935 10736.98926 10739.47363
10632.0 0.0000941 10735.68848 10738.96094
10647.0 0.0000939 10734.38477 10738.89551
10708.0 0.0000934 10733.08008 10739.33398
10792.0 0.0000927 10731.77148 10740.12793
10627.0 0.0000941 10730.46191 10740.80566
10464.0 0.0000956 10729.14844 10740.57422
10923.0 0.0000915 10727.83398 10738.70996
10852.0 0.0000921 10726.51660 10734.40039
10657.0 0.0000938 10725.19629 10730.48926
10720.0 0.0000933 10723.87500 10726.97656
10645.0 0.0000939 10722.55078 10724.21094
10696.0 0.0000935 10721.22461 10722.10449
10574.0 0.0000946 10719.89648 10720.40918
10621.0 0.0000942 10718.56543 10718.91211
10676.0 0.0000937 10717.23242 10717.49512
10739.0 0.0000931 10715.89844 10716.11035
10750.0 0.0000930 10714.56152 10714.73730
10909.0 0.0000917 10713.22266 10713.37109
10663.0 0.0000938 10711.88184 10712.00879
10569.0 0.0000946 10710.53906 10710.64844
10494.0 0.0000953 10709.19434 10709.29004
10707.0 0.0000934 10707.84863 10707.93262
10711.0 0.0000934 10706.50000 10706.57520
10791.0 0.0000927 10705.15039 10705.21777
10626.0 0.0000941 10703.79785 10703.85840
10712.0 0.0000934 10702.44434 10702.49902
10595.0 0.0000944 10701.08984 10701.13965
10854.0 0.0000921 10699.73242 10699.77734
10617.0 0.0000942 10698.37402 10698.41504
10700.0 0.0000935 10697.01465 10697.05273
10567.0 0.0000946 10695.65234 10695.68750
10703.0 0.0000934 10694.28906 10694.32129
10684.0 0.0000936 10692.92480 10697.70313
10700.0 0.0000935 10691.55859 10696.50684
10669.0 0.0000937 10690.19043 10695.31836
10646.0 0.0000939 10688.82227 10694.13867
10779.0 0.0000928 10687.45117 10692.96875
10571.0 0.0000946 10686.08008 10691.81055
10643.0 0.0000940 10684.70703 10690.66309
10565.0 0.0000947 10683.33203 10689.52734
10671.0 0.0000937 10681.95703 10688.40625
10718.0 0.0000933 10680.58008 10687.30078
10657.0 0.0000938 10679.20215 10686.21094
10562.0 0.0000947 10677.82324 10685.14063
10573.0 0.0000946 10676.44336 10684.08887
10627.0 0.0000941 10675.06152 10683.05859
10571.0 0.0000946 10673.67969 10682.05273
10797.0 0.0000926 10672.29590 10681.07422
10621.0 0.0000942 10670.91211 10680.12402
10758.0 0.0000930 10669.52637 10679.20605
10701.0 0.0000934 10668.14063 10678.32324
10716.0 0.0000933 10666.75293 10677.48047
10669.0 0.0000937 10665.36523 10676.68164
10724.0 0.0000932 10663.97656 10675.93359
10682.0 0.0000936 10662.58691 10675.23828
10557.0 0.0000947 10661.19727 10674.60742
10624.0 0.0000941 10659.80566 10674.04492
10822.0 0.0000924 10658.41406 10673.56055
10650.0 0.0000939 10657.02148 10673.16602
10669.0 0.0000937 10655.62793 10672.87207
10787.0 0.0000927 10654.23438 10673.70215
10790.0 0.0000927 10652.84082 10673.69434
10794.0 0.0000926 10651.44629 10673.83594
10692.0 0.0000935 10650.05078 10674.16211
10681.0 0.0000936 10648.65430 10674.69824
10606.0 0.0000943 10647.25879 10675.47852
10693.0 0.0000935 10645.86133 10676.54688
10560.0 0.0000947 10644.46484 10677.95898
10490.0 0.0000953 10643.06738 10679.77832
10766.0 0.0000929 10641.66895 10682.08984
10613.0 0.0000942 10640.27148 10685.00391
10677.0 0.0000937 10638.87305 10688.65430
10704.0 0.0000934 10637.47461 10693.22168
10778.0 0.0000928 10636.07520 10698.94531
10861.0 0.0000921 10634.67578 10706.14355
10616.0 0.0000942 10633.27734 10715.27344
10658.0 0.0000938 10631.87695 10727.00293
10805.0 0.0000925 10630.47754 10742.49219
10804.0 0.0000926 10629.07813 10764.06445
10798.0 0.0000926 10627.67871 10796.82324
10846.0 0.0000922 10626.27930 10851.76465
11051.0 0.0000905 10624.87891 10950.50879
11298.0 0.0000885 10623.47949 11130.80664
11795.0 0.0000848 10622.08008 11450.39355
11928.0 0.0000838 10620.68066 11983.03516
13081.0 0.0000764 10619.28125 12797.85156
14322.0 0.0000698 10617.88184 13909.61914
15693.0 0.0000637 10616.48242 15198.01172
16555.0 0.0000604 10615.08398 16347.53418
17045.0 0.0000587 10613.68457 16887.11133
16535.0 0.0000605 10612.28613 16439.00391
14849.0 0.0000673 10610.88770 15154.56738
13443.0 0.0000744 10609.49023 13649.78906
12095.0 0.0000827 10608.09277 12412.73145
11261.0 0.0000888 10606.69531 11604.39258
11081.0 0.0000902 10605.29785 11161.02637
10889.0 0.0000918 10603.90137 10945.43066
10789.0 0.0000927 10602.50586 10842.80566
10816.0 0.0000925 10601.10938 10788.54199
10692.0 0.0000935 10599.71387 10754.60059
10807.0 0.0000925 10598.31934 10730.56348
10737.0 0.0000931 10596.92480 10712.54785
10647.0 0.0000939 10595.53125 10698.82422
10729.0 0.0000932 10594.13770 10688.45020
10665.0 0.0000938 10592.74512 10680.91699
10747.0 0.0000930 10591.35352 10676.09082
10671.0 0.0000937 10589.96191 10674.37109
10774.0 0.0000928 10588.57031 10677.07715
10685.0 0.0000936 10587.18066 10687.09668
10688.0 0.0000936 10585.79102 10709.73340
10670.0 0.0000937 10584.40137 10753.39941
11068.0 0.0000904 10583.01367 10829.24707
10943.0 0.0000914 10581.62695 10948.08105
11167.0 0.0000895 10580.23926 11113.96484
11402.0 0.0000877 10578.85352 11313.07129
11355.0 0.0000881 10577.46875 11504.40137
11710.0 0.0000854 10576.08398 11621.25293
11586.0 0.0000863 10574.70117 11596.18164
11552.0 0.0000866 10573.31836 11423.74316
10969.0 0.0000912 10571.93652 11185.40527
10995.0 0.0000910 10570.55566 10967.95215
10784.0 0.0000927 10569.17578 10810.86230
10632.0 0.0000941 10567.79688 10715.05957
10483.0 0.0000954 10566.41895 10663.30957
10716.0 0.0000933 10565.04102 10636.68945
10681.0 0.0000936 10563.66504 10622.29688
10612.0 0.0000942 10562.29004 10613.52930
10762.0 0.0000929 10560.91602 10607.63574
10627.0 0.0000941 10559.54297 10603.66016
10664.0 0.0000938 10558.17090 10601.48535
10539.0 0.0000949 10556.79980 10601.74023
10596.0 0.0000944 10555.42969 10606.22559
10587.0 0.0000945 10554.06055 10618.70996
10659.0 0.0000938 10552.69336 10645.75684
10751.0 0.0000930 10551.32617 10697.03613
10983.0 0.0000910 10549.96094 10783.85938
10952.0 0.0000913 10548.59668 10913.91504
11177.0 0.0000895 10547.23340 11080.31152
11300.0 0.0000885 10545.87109 11248.90137
11369.0 0.0000880 10544.51074 11357.02148
11259.0 0.0000888 10543.15137 11339.76172
11264.0 0.0000888 10541.79297 11190.46680
10776.0 0.0000928 10540.43555 10984.68359
10740.0 0.0000931 10539.07910 10803.32324
10661.0 0.0000938 10537.72461 10681.20020
10458.0 0.0000956 10536.37109 10614.13867
10518.0 0.0000951 10535.01953 10577.38965
10593.0 0.0000944 10533.66797 10562.50488
10538.0 0.0000949 10532.31934 10554.51270
10302.0 0.0000971 10530.97070 10549.16797
10469.0 0.0000955 10529.62402 10547.88672
10541.0 0.0000949 10528.27832 10544.49512
10409.0 0.0000961 10526.93359 10541.55957
10532.0 0.0000949 10525.59082 10538.96191
10549.0 0.0000948 10524.25000 10536.62012
10489.0 0.0000953 10522.90918 10534.47461
10572.0 0.0000946 10521.57031 10532.48730
10565.0 0.0000947 10520.23340 10530.62891
10496.0 0.0000953 10518.89746 10528.87500
10769.0 0.0000929 10517.56250 10527.20801
10650.0 0.0000939 10516.22949 10525.61719
10614.0 0.0000942 10514.89746 10524.09082
10559.0 0.0000947 10513.56738 10522.62598
10596.0 0.0000944 10512.23828 10521.21094
10750.0 0.0000930 10510.91113 10519.84668
10545.0 0.0000948 10509.58496 10518.52637
10432.0 0.0000959 10508.26074 10517.25000
10487.0 0.0000954 10506.93750 10516.01758
10585.0 0.0000945 10505.61621 10514.82520
10546.0 0.0000948 10504.29590 10516.66016
10389.0 0.0000963 10502.97656 10515.68750
10496.0 0.0000953 10501.66016 10514.76953
10396.0 0.0000962 10500.34473 10513.90820
10447.0 0.0000957 10499.03027 10512.12891
10491.0 0.0000953 10497.71777 10511.42871
10525.0 0.0000950 10496.40625 10510.79688
10455.0 0.0000956 10495.09668 10510.24512
10497.0 0.0000953 10493.78906 10509.78027
10562.0 0.0000947 10492.48242 10509.40918
10447.0 0.0000957 10491.17773 10509.14844
10419.0 0.0000960 10489.87402 10509.01074
10537.0 0.0000949 10488.57227 10509.01465
10576.0 0.0000946 10487.27148 10509.17871
10487.0 0.0000954 10485.97266 10509.53223
10358.0 0.0000965 10484.67480 10510.10352
10447.0 0.0000957 10483.37988 10510.20898
10510.0 0.0000951 10482.08496 10511.37305
10394.0 0.0000962 10480.79297 10512.90039
10318.0 0.0000969 10479.50195 10514.86621
10515.0 0.0000951 10478.21191 10517.36621
10446.0 0.0000957 10476.92383 10526.93262
10424.0 0.0000959 10475.63770 10531.15039
10489.0 0.0000953 10474.35254 10536.42676
10392.0 0.0000962 10473.06934 10543.07031
10538.0 0.0000949 10471.78711 10551.52832
10507.0 0.0000952 10470.50684 10562.53809
10561.0 0.0000947 10469.22852 10577.55273
10525.0 0.0000950 10467.95117 10599.81348
10604.0 0.0000943 10466.67578 10636.69043
10888.0 0.0000918 10465.40137 10703.62207
10921.0 0.0000916 10464.12988 10829.27832
11219.0 0.0000891 10462.85840 11059.74805
11622.0 0.0000860 10461.58887 11455.59570
12177.0 0.0000821 10460.32129 12071.13477
12758.0 0.0000784 10459.05566 12907.35156
13820.0 0.0000724 10457.79102 13846.54395
14753.0 0.0000678 10456.52734 14620.97363
14819.0 0.0000675 10455.26563 14884.73047
14432.0 0.0000693 10454.00586 14464.83984
13829.0 0.0000723 10452.74805 13646.60352
13231.0 0.0000756 10451.49023 12950.29395
12950.0 0.0000772 10450.23535 12727.14844
13245.0 0.0000755 10448.98145 13064.76367
13903.0 0.0000719 10447.72949 13806.05957
14601.0 0.0000685 10446.47852 14584.10254
15119.0 0.0000661 10445.22949 14923.60742
14850.0 0.0000673 10443.98145 14498.59570
14094.0 0.0000710 10442.73535 13470.57520
12712.0 0.0000787 10441.49121 12345.63672
11787.0 0.0000848 10440.24805 11489.25000
11046.0 0.0000905 10439.00586 10985.84570
10864.0 0.0000920 10437.76660 10744.65234
10702.0 0.0000934 10436.52734 10642.66211
10585.0 0.0000945 10435.29004 10598.79395
10554.0 0.0000948 10434.05469 10576.16016
10695.0 0.0000935 10432.82031 10562.13574
10789.0 0.0000927 10431.58789 10552.79688
10455.0 0.0000956 10430.35742 10546.78711
10587.0 0.0000945 10429.12695 10543.50488
10573.0 0.0000946 10427.89941 10542.67090
10683.0 0.0000936 10426.67285 10544.19336
10638.0 0.0000940 10425.44727 10548.16113
10651.0 0.0000939 10424.22363 10554.84180
10796.0 0.0000926 10423.00098 10564.71875
10723.0 0.0000933 10421.78027 10578.59668
10677.0 0.0000937 10420.56055 10597.89648
10736.0 0.0000931 10419.34277 10625.46973
10936.0 0.0000914 10418.12598 10667.63379
10765.0 0.0000929 10416.91113 10738.48047
11070.0 0.0000903 10415.69727 10867.16602
11570.0 0.0000864 10414.48535 11107.49219
11791.0 0.0000848 10413.27441 11545.47559
12561.0 0.0000796 10412.06445 12292.09082
13389.0 0.0000747 10410.85645 13440.45313
14938.0 0.0000669 10409.64941 14980.54590
16639.0 0.0000601 10408.44434 16684.55469
18009.0 0.0000555 10407.24023 18060.75391
18720.0 0.0000534 10406.03809 18470.76367
17565.0 0.0000569 10404.83691 17559.74609
15417.0 0.0000649 10403.63672 15756.46582
13661.0 0.0000732 10402.43750 13877.82715
11933.0 0.0000838 10401.24121 12431.03125
11281.0 0.0000886 10400.04492 11525.98438
10984.0 0.0000910 10398.85059 11043.33594
10639.0 0.0000940 10397.65723 10809.10352
10752.0 0.0000930 10396.46484 10693.90430
10661.0 0.0000938 10395.27441 10629.38379
10680.0 0.0000936 10394.08496 10586.86523
10535.0 0.0000949 10392.89648 10555.66406
10455.0 0.0000956 10391.70996 10531.63281
10486.0 0.0000954 10390.52441 10512.89160
10404.0 0.0000961 10389.33984 10498.63574
10728.0 0.0000932 10388.15723 10488.90820
10575.0 0.0000946 10386.97559 10484.61523
10464.0 0.0000956 10385.79492 10481.97266
10613.0 0.0000942 10384.61523 10493.45215
10680.0 0.0000936 10383.43750 10513.12988
10520.0 0.0000951 10382.26074 10536.53906
10442.0 0.0000958 10381.08496 10554.13281
10483.0 0.0000954 10379.91016 10554.10352
10712.0 0.0000934 10378.73730 10531.17969
10569.0 0.0000946 10377.56543 10494.63379
10434.0 0.0000958 10376.39355 10459.01660
10382.0 0.0000963 10375.22461 10432.43359
10333.0 0.0000968 10374.05566 10415.77246
10654.0 0.0000939 10372.88770 10406.16895
10508.0 0.0000952 10371.72168 10400.38086
10439.0 0.0000958 10370.55664 10396.31641
10515.0 0.0000951 10369.39258 10393.00098
10508.0 0.0000952 10368.22949 10390.06836
10301.0 0.0000971 10367.06738 10387.37891
10251.0 0.0000976 10365.90723 10384.87695
10196.0 0.0000981 10364.74707 10382.52344
10315.0 0.0000969 10363.58789 10380.29297
10457.0 0.0000956 10362.43066 10378.16895
10262.0 0.0000974 10361.27441 10376.13477
10500.0 0.0000952 10360.11914 10374.17969
10512.0 0.0000951 10358.96484 10372.29102
10257.0 0.0000975 10357.81152 10370.46387
10396.0 0.0000962 10356.65918 10368.69043
10193.0 0.0000981 10355.50781 10367.00586
10469.0 0.0000955 10354.35742 10365.32324
10320.0 0.0000969 10353.20801 10363.68066
10253.0 0.0000975 10352.05957 10362.07129
10394.0 0.0000962 10350.91211 10360.49609
10462.0 0.0000956 10349.76563 10360.09961
10296.0 0.0000971 10348.62012 10358.63086
10412.0 0.0000960 10347.47559 10357.19043
10325.0 0.0000969 10346.33301 10355.77734
10383.0 0.0000963 10345.19043 10354.38867
10217.0 0.0000979 10344.04883 10353.02344
10408.0 0.0000961 10342.90723 10351.68066
10400.0 0.0000962 10341.76758 10350.36133
10506.0 0.0000952 10340.62891 10349.06445
10213.0 0.0000979 10339.49121 10341.56152
10269.0 0.0000974 10338.35449 10340.51855
10288.0 0.0000972 10337.21777 10339.48633
10197.0 0.0000981 10336.08301 10338.46582
10174.0 0.0000983 10334.94824 10337.45801
10410.0 0.0000961 10333.81445 10336.46387
10278.0 0.0000973 10332.68262 10335.48730
10193.0 0.0000981 10331.54980 10334.52832
10254.0 0.0000975 10330.41992 10333.59180
10454.0 0.0000957 10329.28906 10332.67578
10185.0 0.0000982 10328.16016 10332.89844
10255.0 0.0000975 10327.03125 10332.08887
10291.0 0.0000972 10325.90332 10331.31738
10366.0 0.0000965 10324.77637 10330.58789
10234.0 0.0000977 10323.65039 10329.91016
10243.0 0.0000976 10322.52539 10329.29102
10336.0 0.0000967 10321.40039 10328.74121
10227.0 0.0000978 10320.27637 10328.27637
10344.0 0.0000967 10319.15430 10327.91406
10304.0 0.0000970 10318.03125 10327.67383
10508.0 0.0000952 10316.91016 10327.58984
10256.0 0.0000975 10315.78906 10327.69824
10087.0 0.0000991 10314.66895 10328.04980
10179.0 0.0000982 10313.54980 10328.71777
10327.0 0.0000968 10312.43066 10329.80273
10079.0 0.0000992 10311.31348 10331.46777
10267.0 0.0000974 10310.19629 10334.00488
10452.0 0.0000957 10309.08008 10338.08691
10314.0 0.0000970 10307.96387 10345.40918
10278.0 0.0000973 10306.84863 10360.03516
10423.0 0.0000959 10305.73438 10390.62109
10536.0 0.0000949 10304.62012 10452.93555
10565.0 0.0000947 10303.50781 10570.54297
10669.0 0.0000937 10302.39551 10768.45898
11018.0 0.0000908 10301.28320 11054.32422
11236.0 0.0000890 10300.17188 11389.54688
11355.0 0.0000881 10299.06152 11672.53516
11557.0 0.0000865 10297.95215 11766.41406
11360.0 0.0000880 10296.84277 11595.85156
10975.0 0.0000911 10295.73438 11250.96875
10814.0 0.0000925 10294.62598 10901.28125
10523.0 0.0000950 10293.51855 10648.23828
10383.0 0.0000963 10292.41211 10503.53418
10169.0 0.0000983 10291.30566 10430.33887
10381.0 0.0000963 10290.20020 10389.83691
10409.0 0.0000961 10289.09570 10362.54883
10392.0 0.0000962 10287.99121 10342.87793
10473.0 0.0000955 10286.88672 10329.39844
10551.0 0.0000948 10285.78418 10320.88770
10396.0 0.0000962 10284.68164 10315.80078
10329.0 0.0000968 10283.57910 10312.80566
10296.0 0.0000971 10282.47754 10311.09473
10233.0 0.0000977 10281.37695 10310.29688
10352.0 0.0000966 10280.27637 10310.30566
10563.0 0.0000947 10279.17676 10311.16016
10383.0 0.0000963 10278.07715 10313.01172
10522.0 0.0000950 10276.97852 10316.19043
10437.0 0.0000958 10275.87988 10321.40332
10320.0 0.0000969 10274.78320 10330.25293
10387.0 0.0000963 10273.68555 10346.24316
10495.0 0.0000953 10272.58887 10376.39355
10449.0 0.0000957 10271.49316 10433.04199
10648.0 0.0000939 10270.39746 10534.33301
10745.0 0.0000931 10269.30176 10699.69141
10780.0 0.0000928 10268.20703 10936.97656
11185.0 0.0000894 10267.11328 11225.20020
11449.0 0.0000873 10266.01953 11498.73926
11549.0 0.0000866 10264.92676 11654.19531
11577.0 0.0000864 10263.83398 11598.30371
11093.0 0.0000901 10262.74219 11343.51855
11018.0 0.0000908 10261.65039 11016.52637
10496.0 0.0000953 10260.55957 10731.10352
10280.0 0.0000973 10259.46875 10532.38184
10319.0 0.0000969 10258.37891 10415.39746
10455.0 0.0000956 10257.28906 10354.08008
10084.0 0.0000992 10256.20020 10322.99414
10308.0 0.0000970 10255.11133 10305.94727
10264.0 0.0000974 10254.02344 10295.06738
10107.0 0.0000989 10252.93555 10287.12598
10355.0 0.0000966 10251.84766 10280.86426
10388.0 0.0000963 10250.76074 10275.71973
10157.0 0.0000985 10249.67480 10271.38281
10196.0 0.0000981 10248.58887 10267.65234
10322.0 0.0000969 10247.50391 10264.38574
10418.0 0.0000960 10246.41895 10261.47949
10084.0 0.0000992 10245.33398 10258.85840
10411.0 0.0000961 10244.25000 10256.46777
10267.0 0.0000974 10243.16602 10254.26270
10295.0 0.0000971 10242.08301 10252.20801
10104.0 0.0000990 10241.00098 10250.28027
10320.0 0.0000969 10239.91797 10248.45605
10364.0 0.0000965 10238.83691 10246.72168
10306.0 0.0000970 10237.75586 10245.06152
10039.0 0.0000996 10236.67480 10253.07520
10117.0 0.0000988 10235.59375 10251.87988
10220.0 0.0000978 10234.51465 10250.75098
10285.0 0.0000972 10233.43457 10249.68555
10067.0 0.0000993 10232.35547 10248.67676
10208.0 0.0000980 10231.27637 10247.72168
10052.0 0.0000995 10230.19824 10246.16309
10269.0 0.0000974 10229.12109 10245.33789
10313.0 0.0000970 10228.04395 10244.56250
10298.0 0.0000971 10226.96680 10243.83789
10248.0 0.0000976 10225.89063 10243.16602
10331.0 0.0000968 10224.81445 10242.54688
10124.0 0.0000988 10223.73926 10241.98438
10414.0 0.0000960 10222.66406 10241.65332
10177.0 0.0000983 10221.58984 10241.21484
10320.0 0.0000969 10220.51563 10240.84473
10261.0 0.0000975 10219.44238 10240.54297
10368.0 0.0000965 10218.36914 10240.31738
10232.0 0.0000977 10217.29590 10240.17285
10269.0 0.0000974 10216.22363 10247.44141
10248.0 0.0000976 10215.15234 10247.81738
10187.0 0.0000982 10214.08105 10248.32422
10271.0 0.0000974 10213.00977 10248.97559
10292.0 0.0000972 10211.93945 10249.78613
10329.0 0.0000968 10210.86914 10250.77637
10248.0 0.0000976 10209.79980 10251.96289
10161.0 0.0000984 10208.73047 10253.37500
10109.0 0.0000989 10207.66211 10255.03613
10148.0 0.0000985 10206.59375 10256.98242
10262.0 0.0000974 10205.52637 10259.25586
10255.0 0.0000975 10204.45898 10261.89551
10216.0 0.0000979 10203.39258 10263.71680
10369.0 0.0000964 10202.32617 10267.31738
10295.0 0.0000971 10201.26074 10271.48926
10247.0 0.0000976 10200.19531 10276.32617
10358.0 0.0000965 10199.13086 10281.95117
10490.0 0.0000953 10198.06641 10288.50879
10270.0 0.0000974 10197.00293 10296.18262
10341.0 0.0000967 10195.93945 10305.20410
10356.0 0.0000966 10194.87695 10315.86816
10133.0 0.0000987 10193.81445 10328.55664
10424.0 0.0000959 10192.75293 10343.76660
10311.0 0.0000970 10191.69141 10362.16113
10365.0 0.0000965 10190.63086 10384.64453
10421.0 0.0000960 10189.57031 10412.48438
10582.0 0.0000945 10188.51074 10447.60742
10559.0 0.0000947 10187.45117 10493.35352
10632.0 0.0000941 10186.39258 10556.56348
10923.0 0.0000915 10185.33496 10652.66504
10802.0 0.0000926 10184.27734 10815.99609
11393.0 0.0000878 10183.21973 11116.30762
12076.0 0.0000828 10182.16309 11676.49121
13248.0 0.0000755 10181.10742 12672.58203
15009.0 0.0000666 10180.05176 14276.52930
17226.0 0.0000581 10178.99707 16514.67188
19538.0 0.0000512 10177.94238 19098.40234
21330.0 0.0000469 10176.88867 21322.57813
21670.0 0.0000461 10175.83496 22249.35938
20827.0 0.0000480 10174.78223 21335.73438
19245.0 0.0000520 10173.73047 19239.09961
17405.0 0.0000575 10172.67871 17305.27344
16472.0 0.0000607 10171.62793 16443.88477
16938.0 0.0000590 10170.57715 16817.56250
18050.0 0.0000554 10169.52734 17919.60352
18501.0 0.0000541 10168.47754 18816.70898
18265.0 0.0000547 10167.42969 18598.61523
16707.0 0.0000599 10166.38086 17072.87891
14627.0 0.0000684 10165.33398 14981.35254
12852.0 0.0000778 10164.28711 13144.46191
11652.0 0.0000858 10163.24023 11909.53418
11043.0 0.0000906 10162.19434 11220.81836
10740.0 0.0000931 10161.14941 10866.20215
10517.0 0.0000951 10160.10449 10671.27051
10523.0 0.0000950 10159.06055 10548.69629
10304.0 0.0000970 10158.01758 10464.56250
10446.0 0.0000957 10156.97559 10405.50000
10250.0 0.0000976 10155.93359 10363.70898
10358.0 0.0000965 10154.89160 10333.24023
10275.0 0.0000973 10153.85156 10310.21191
10242.0 0.0000976 10152.81152 10291.47852
10328.0 0.0000968 10151.77148 10275.91309
10086.0 0.0000991 10150.73242 10262.70898
10150.0 0.0000985 10149.69531 10251.34570
10189.0 0.0000981 10148.65723 10241.46289
10035.0 0.0000997 10147.62109 10232.79199
9966.0 0.0001003 10146.58496 10225.12793
10114.0 0.0000989 10145.54883 10218.30371
10207.0 0.0000980 10144.51465 10212.19531
10118.0 0.0000988 10143.48047 10206.70020
10227.0 0.0000978 10142.44727 10201.73438
10167.0 0.0000984 10141.41406 10197.23145
10142.0 0.0000986 10140.38281 10193.14258
10236.0 0.0000977 10139.35156 10189.42285
10070.0 0.0000993 10138.32031 10186.03906
10199.0 0.0000980 10137.29102 10182.96875
10146.0 0.0000986 10136.26172 10180.19531
10166.0 0.0000984 10135.23340 10177.70996
10165.0 0.0000984 10134.20605 10175.51465
10156.0 0.0000985 10133.17871 10173.61523
10015.0 0.0000999 10132.15234 10172.03906
10000.0 0.0001000 10131.12695 10170.82129
10216.0 0.0000979 10130.10254 10170.02246
10084.0 0.0000992 10129.07910 10169.74414
10202.0 0.0000980 10128.05566 10170.15820
10115.0 0.0000989 10127.03320 10171.64941
10230.0 0.0000978 10126.01172 10175.10547
10118.0 0.0000988 10124.99023 10182.60742
10320.0 0.0000969 10123.97070 10198.60547
10360.0 0.0000965 10122.95117 10231.29297
10183.0 0.0000982 10121.93262 10292.91309
10528.0 0.0000950 10120.91504 10396.07129
10614.0 0.0000942 10119.89844 10543.55273
10970.0 0.0000912 10118.88184 10715.42090
11012.0 0.0000908 10117.86621 10861.53418
11046.0 0.0000905 10116.85254 10905.10840
10965.0 0.0000912 10115.83887 10826.19336
10733.0 0.0000932 10114.82520 10657.35254
10421.0 0.0000960 10113.81348 10483.88770
10268.0 0.0000974 10112.80176 10362.87891
10454.0 0.0000957 10111.79199 10312.33887
10226.0 0.0000978 10110.78223 10323.96582
10276.0 0.0000973 10109.77344 10374.52344
10454.0 0.0000957 10108.76563 10431.19531
10529.0 0.0000950 10107.75781 10457.02930
10494.0 0.0000953 10106.75195 10426.87305
10222.0 0.0000978 10105.74707 10351.57324
10242.0 0.0000976 10104.74219 10267.35840
9980.0 0.0001002 10103.73828 10196.62402
10011.0 0.0000999 10102.73535 10154.68359
10312.0 0.0000970 10101.73340 10132.31836
10041.0 0.0000996 10100.73242 10121.22656
10103.0 0.0000990 10099.73242 10115.31836
10103.0 0.0000990 10098.73340 10111.50781
10221.0 0.0000978 10097.73438 10108.58496
10338.0 0.0000967 10096.73730 10106.12695
10131.0 0.0000987 10095.74023 10103.96484
9919.0 0.0001008 10094.74414 10102.01953
10122.0 0.0000988 10093.75000 10100.23926
10058.0 0.0000994 10092.75586 10098.58398
10268.0 0.0000974 10091.76270 10097.03125
10244.0 0.0000976 10090.77051 10095.55957
9984.0 0.0001002 10089.77930 10094.15332
9817.0 0.0001019 10088.78906 10092.80273
10151.0 0.0000985 10087.79980 10091.49707
9921.0 0.0001008 10086.81055 10090.22949
9996.0 0.0001000 10085.82324 10088.99414
10109.0 0.0000989 10084.83691 10087.78711
9820.0 0.0001018 10083.85059 10086.60352
10067.0 0.0000993 10082.86621 10085.44141
10139.0 0.0000986 10081.88184 10084.29590
10192.0 0.0000981 10080.89941 10083.16992
10080.0 0.0000992 10079.91699 10082.05566
10068.0 0.0000993 10078.93555 10080.95410
10202.0 0.0000980 10077.95605 10079.86523
10014.0 0.0000999 10076.97656 10078.78613
10110.0 0.0000989 10075.99805 10077.71484
10067.0 0.0000993 10075.02051 10076.65332
10167.0 0.0000984 10074.04492 10075.60059
10000.0 0.0001000 10073.06934 10074.55273
10184.0 0.0000982 10072.09473 10073.51270
10257.0 0.0000975 10071.12109 10072.47754
9903.0 0.0001010 10070.14844 10071.44922
9818.0 0.0001019 10069.17676 10070.42676
10040.0 0.0000996 10068.20605 10069.40723
10063.0 0.0000994 10067.23633 10068.39453
10231.0 0.0000977 10066.26758 10067.38672
10124.0 0.0000988 10065.29980 10066.38184
9974.0 0.0001003 10064.33301 10065.38281
9896.0 0.0001011 10063.36719 10064.38965
10152.0 0.0000985 10062.40234 10063.39941
10184.0 0.0000982 10061.43848 10062.41504
10041.0 0.0000996 10060.47559 10060.87207
10106.0 0.0000990 10059.51367 10059.96582
10019.0 0.0000998 10058.55273 10059.59473
9975.0 0.0001003 10057.59277 10058.69531
9913.0 0.0001009 10056.63379 10057.80762
10137.0 0.0000986 10055.67578 10056.93848
9989.0 0.0001001 10054.71875 10056.10156
10003.0 0.0001000 10053.76172 10055.32227
10033.0 0.0000997 10052.80664 10054.66406
10157.0 0.0000985 10051.85254 10054.22852
10143.0 0.0000986 10050.89941 10054.15723
10028.0 0.0000997 10049.94727 10054.57520
10084.0 0.0000992 10048.99609 10055.47168
10114.0 0.0000989 10048.04590 10056.57813
10232.0 0.0000977 10047.09570 10057.31152
10022.0 0.0000998 10046.14746 10056.90918
9970.0 0.0001003 10045.20020 10054.99414
10076.0 0.0000992 10044.25391 10052.09863
10032.0 0.0000997 10043.30762 10049.12988
10046.0 0.0000995 10042.36328 10046.62988
10224.0 0.0000978 10041.41992 10044.72266
10139.0 0.0000986 10040.47754 10043.29004
10112.0 0.0000989 10039.53516 10042.15625
10046.0 0.0000995 10038.59473 10041.17871
10083.0 0.0000992 10037.65527 10040.27930
10163.0 0.0000984 10036.71582 10039.41992
10117.0 0.0000988 10035.77832 10038.59180
10099.0 0.0000990 10034.84082 10037.78809
10298.0 0.0000971 10033.90527 10037.00879
10163.0 0.0000984 10032.97070 10036.25293
10368.0 0.0000965 10032.03613 10035.52246
10083.0 0.0000992 10031.10352 10034.82129
9826.0 0.0001018 10030.17090 10034.15039
10237.0 0.0000977 10029.23926 10033.51172
10096.0 0.0000990 10028.30957 10032.91406
10153.0 0.0000985 10027.37988 10032.36230
10048.0 0.0000995 10026.45117 10031.86328
10004.0 0.0001000 10025.52344 10031.42383
9920.0 0.0001008 10024.59668 10031.06152
9950.0 0.0001005 10023.67090 10030.78516
10124.0 0.0000988 10022.74609 10030.61621
10093.0 0.0000991 10021.82227 10030.57520
10219.0 0.0000979 10020.89941 10030.69531
10045.0 0.0000996 10019.97754 10031.01855
10282.0 0.0000973 10019.05664 10031.59375
9887.0 0.0001011 10018.13574 10032.49609
9992.0 0.0001001 10017.21680 10033.83008
10118.0 0.0000988 10016.29785 10035.74805
10029.0 0.0000997 10015.37988 10038.51270
10139.0 0.0000986 10014.46387 10042.64453
10011.0 0.0000999 10013.54785 10049.33008
10129.0 0.0000987 10012.63281 10061.30273
10127.0 0.0000987 10011.71777 10084.36523
10317.0 0.0000969 10010.80469 10129.17188
10257.0 0.0000975 10009.89258 10211.55566
10296.0 0.0000971 10008.98047 10348.07129
10690.0 0.0000935 10008.07031 10543.26367
10899.0 0.0000918 10007.16016 10772.49902
11097.0 0.0000901 10006.25098 10975.01074
11271.0 0.0000887 10005.34277 11063.92188
11125.0 0.0000899 10004.43555 10979.72363
10732.0 0.0000932 10003.52832 10759.91016
10413.0 0.0000960 10002.62305 10510.05469
10313.0 0.0000970 10001.71777 10306.57129
10027.0 0.0000997 10000.81348 10172.67676
10027.0 0.0000997 9999.91016 10097.81641
10104.0 0.0000990 9999.00684 10059.92383
10318.0 0.0000969 9998.10547 10040.85938
9978.0 0.0001002 9997.20410 10030.12305
10094.0 0.0000991 9996.30371 10022.99609
9902.0 0.0001010 9995.40430 10017.64746
10021.0 0.0000998 9994.50586 10013.36035
10035.0 0.0000997 9993.60742 10009.78809
10120.0 0.0000988 9992.70996 10006.75684
9831.0 0.0001017 9991.81348 10004.12402
10033.0 0.0000997 9990.91699 10001.79883
10015.0 0.0000999 9990.02246 9999.71387
10101.0 0.0000990 9989.12793 9997.81836
10178.0 0.0000983 9988.23438 9996.07617
10080.0 0.0000992 9987.34082 9994.45703
10091.0 0.0000991 9986.44824 9993.07031
9879.0 0.0001012 9985.55664 9991.64258
10015.0 0.0000999 9984.66504 9990.28320
9970.0 0.0001003 9983.77539 9988.98633
9936.0 0.0001006 9982.88477 9987.73730
9824.0 0.0001018 9981.99609 9986.53418
10150.0 0.0000985 9981.10742 9985.36719
9957.0 0.0001004 9980.21973 9984.23438
9794.0 0.0001021 9979.33203 9983.13086
10119.0 0.0000988 9978.44531 9982.05176
10009.0 0.0000999 9977.55957 9980.99609
9994.0 0.0001001 9976.67383 9979.96289
9974.0 0.0001003 9975.78906 9978.94629
10018.0 0.0000998 9974.90430 9977.94922
10119.0 0.0000988 9974.02148 9976.96777
9991.0 0.0001001 9973.13770 9976.00195
10004.0 0.0001000 9972.25488 9975.04980
9937.0 0.0001006 9971.37305 9974.11426
10074.0 0.0000993 9970.49121 9973.19043
9926.0 0.0001007 9969.61035 9972.28320
9968.0 0.0001003 9968.72949 9971.39063
9925.0 0.0001008 9967.84961 9970.51367
9955.0 0.0001005 9966.96973 9969.65332
9914.0 0.0001009 9966.09082 9968.81250
9974.0 0.0001003 9965.21191 9967.99414
9914.0 0.0001009 9964.33398 9967.20020
9885.0 0.0001012 9963.45605 9966.43750
9937.0 0.0001006 9962.57813 9965.70898
9867.0 0.0001013 9961.70117 9965.02637
10040.0 0.0000996 9960.82422 9964.40039
9927.0 0.0001007 9959.94824 9963.85156
9966.0 0.0001003 9959.07324 9963.40625
9873.0 0.0001013 9958.19727 9963.11719
9792.0 0.0001021 9957.32227 9963.11230
9949.0 0.0001005 9956.44727 9963.66113
9953.0 0.0001005 9955.57324 9965.61035
9929.0 0.0001007 9954.69922 9969.66406
9910.0 0.0001009 9953.82520 9980.16113
9985.0 0.0001002 9952.95215 9999.53320
10064.0 0.0000994 9952.07910 10029.54883
10175.0 0.0000983 9951.20605 10066.99023
10191.0 0.0000981 9950.33301 10101.30859
10149.0 0.0000985 9949.46094 10116.72852
10118.0 0.0000988 9948.58887 10102.25586
10004.0 0.0001000 9947.71680 10064.94531
10012.0 0.0000999 9946.84570 10023.37500
10306.0 0.0000970 9945.97363 9990.40234
9856.0 0.0001015 9945.10254 9969.47949
9835.0 0.0001017 9944.23145 9958.18652
9998.0 0.0001000 9943.36133 9952.53418
9946.0 0.0001005 9942.49023 9949.53320
9822.0 0.0001018 9941.61914 9947.62891
9905.0 0.0001010 9940.74902 9946.19922
9844.0 0.0001016 9939.87891 9945.02734
9897.0 0.0001010 9939.00879 9944.03809
10074.0 0.0000993 9938.13867 9943.20703
10061.0 0.0000994 9937.26855 9942.52734
9907.0 0.0001009 9936.39844 9942.01367
9926.0 0.0001007 9935.52832 9941.69727
9902.0 0.0001010 9934.65918 9941.65527
10016.0 0.0000998 9933.78906 9942.05762
9918.0 0.0001008 9932.91895 9943.30078
9976.0 0.0001002 9932.04883 9946.20801
9984.0 0.0001002 9931.17969 9952.29004
10069.0 0.0000993 9930.30957 9963.79688
9974.0 0.0001003 9929.43945 9983.20605
10055.0 0.0000995 9928.57031 10011.66895
10048.0 0.0000995 9927.70020 10046.42383
10067.0 0.0000993 9926.83008 10079.35059
10218.0 0.0000979 9925.95996 10099.01465
10046.0 0.0000995 9925.08984 10093.66602
10029.0 0.0000997 9924.21875 10063.42871
9961.0 0.0001004 9923.34863 10023.60449
9951.0 0.0001005 9922.47852 9987.76367
9962.0 0.0001004 9921.60742 9961.49512
9926.0 0.0001007 9920.73633 9944.81836
9773.0 0.0001023 9919.86523 9935.15527
9941.0 0.0001006 9918.99316 9929.62695
9972.0 0.0001003 9918.12207 9926.19238
10092.0 0.0000991 9917.25000 9923.74414
9971.0 0.0001003 9916.37793 9921.77930
9971.0 0.0001003 9915.50586 9920.08887
9872.0 0.0001013 9914.63281 9918.57520
9888.0 0.0001011 9913.76074 9917.18945
9956.0 0.0001004 9912.88672 9915.89746
9894.0 0.0001011 9912.01367 9914.67969
10011.0 0.0000999 9911.13965 9913.51660
9982.0 0.0001002 9910.26563 9912.40039
9808.0 0.0001020 9909.39063 9911.31738
9867.0 0.0001013 9908.51660 9910.26660
9915.0 0.0001009 9907.64063 9909.23633
9787.0 0.0001022 9906.76465 9908.22656
9932.0 0.0001007 9905.88867 9907.23340
10001.0 0.0001000 9905.01270 9906.25391
9844.0 0.0001016 9904.13574 9907.14258
9942.0 0.0001006 9903.25781 9906.25000
9987.0 0.0001001 9902.37988 9905.37012
9913.0 0.0001009 9901.50195 9904.50098
9816.0 0.0001019 9900.62305 9903.64160
9772.0 0.0001023 9899.74316 9904.41309
9886.0 0.0001012 9898.86328 9903.63965
10085.0 0.0000992 9897.98242 9902.87598
9794.0 0.0001021 9897.10156 9902.12695
9881.0 0.0001012 9896.21973 9901.38965
9910.0 0.0001009 9895.33789 9900.66699
9924.0 0.0001008 9894.45508 9899.95703
9745.0 0.0001026 9893.57129 9899.26172
9965.0 0.0001004 9892.68750 9898.58398
10007.0 0.0000999 9891.80273 9897.92090
10069.0 0.0000993 9890.91699 9897.27441
9805.0 0.0001020 9890.03027 9896.64844
9783.0 0.0001022 9889.14355 9896.04395
9973.0 0.0001003 9888.25684 9895.46387
9981.0 0.0001002 9887.36816 9894.90527
9708.0 0.0001030 9886.47949 9894.37598
9817.0 0.0001019 9885.58984 9893.87598
9965.0 0.0001004 9884.69922 9893.40820
9933.0 0.0001007 9883.80762 9892.97949
9906.0 0.0001009 9882.91602 9892.59082
9823.0 0.0001018 9882.02246 9892.24707
9821.0 0.0001018 9881.12891 9891.95605
9880.0 0.0001012 9880.23438 9891.72363
9916.0 0.0001008 9879.33887 9891.55664
9799.0 0.0001021 9878.44238 9891.46387
10004.0 0.0001000 9877.54590 9891.45703
9839.0 0.0001016 9876.64746 9891.54883
9849.0 0.0001015 9875.74805 9891.75195
9824.0 0.0001018 9874.84863 9892.08789
9928.0 0.0001007 9873.94727 9892.57422
9882.0 0.0001012 9873.04590 9893.24023
9899.0 0.0001010 9872.14258 9894.11719
9839.0 0.0001016 9871.23926 9895.24512
9828.0 0.0001018 9870.33398 9896.67480
9963.0 0.0001004 9869.42871 9898.46875
9757.0 0.0001025 9868.52148 9900.70605
9928.0 0.0001007 9867.61426 9903.49414
9906.0 0.0001009 9866.70508 9906.96680
9898.0 0.0001010 9865.79492 9911.30859
10034.0 0.0000997 9864.88379 9916.76660
9906.0 0.0001009 9863.97168 9923.64258
9946.0 0.0001005 9863.05859 9932.57422
9913.0 0.0001009 9862.14355 9944.43848
10036.0 0.0000996 9861.22852 9961.23438
10076.0 0.0000992 9860.31152 9987.78223
10223.0 0.0000978 9859.39355 10035.48535
10160.0 0.0000984 9858.47461 10128.22070
10387.0 0.0000963 9857.55469 10306.96094
10698.0 0.0000935 9856.63281 10623.72461
11250.0 0.0000889 9855.70996 11112.17871
11862.0 0.0000843 9854.78613 11737.13574
12506.0 0.0000800 9853.86133 12363.32129
12799.0 0.0000781 9852.93457 12779.24805
12620.0 0.0000792 9852.00684 12835.57520
12692.0 0.0000788 9851.07813 12636.28125
12516.0 0.0000799 9850.14746 12421.29395
12324.0 0.0000811 9849.21582 12283.94922
12277.0 0.0000815 9848.28320 12124.57422
11856.0 0.0000843 9847.34863 11802.08203
11243.0 0.0000889 9846.41309 11332.97070
10690.0 0.0000935 9845.47559 10857.71484
10315.0 0.0000969 9844.53711 10479.78906
10199.0 0.0000980 9843.59766 10227.87305
10121.0 0.0000988 9842.65625 10081.45898
10060.0 0.0000994 9841.71387 10003.04590
9889.0 0.0001011 9840.76953 9960.79297
10018.0 0.0000998 9839.82422 9935.62207
9804.0 0.0001020 9838.87695 9918.46191
9773.0 0.0001023 9837.92871 9905.53027
9900.0 0.0001010 9836.97852 9895.23926
9823.0 0.0001018 9836.02734 9886.80371
9947.0 0.0001005 9835.07422 9879.75000
9721.0 0.0001029 9834.12012 9873.75781
9841.0 0.0001016 9833.16406 9868.59570
9938.0 0.0001006 9832.20605 9864.09277
9884.0 0.0001012 9831.24707 9860.11914
9781.0 0.0001022 9830.28613 9856.57910
9829.0 0.0001017 9829.32422 9853.39746
9671.0 0.0001034 9828.36035 9850.51270
9746.0 0.0001026 9827.39453 9847.88184
9782.0 0.0001022 9826.42773 9845.46777
9788.0 0.0001022 9825.45898 9843.24316
9766.0 0.0001024 9824.48926 9841.72656
9670.0 0.0001034 9823.51660 9839.83887
9806.0 0.0001020 9822.54297 9838.09668
9687.0 0.0001032 9821.56738 9836.49805
9781.0 0.0001022 9820.59082 9835.04785
9924.0 0.0001008 9819.61230 9833.76953
9643.0 0.0001037 9818.63184 9832.72461
9781.0 0.0001022 9817.64941 9832.07617
9741.0 0.0001027 9816.66602 9832.23145
9756.0 0.0001025 9815.67969 9834.03711
9946.0 0.0001005 9814.69238 9838.96777
9783.0 0.0001022 9813.70410 9848.88770
9923.0 0.0001008 9812.71289 9864.99219
9832.0 0.0001017 9811.71973 9887.28516
9793.0 0.0001021 9810.72559 9907.55176
9951.0 0.0001005 9809.72949 9918.27441
9879.0 0.0001012 9808.73145 9912.00977
9837.0 0.0001017 9807.73145 9891.15332
9886.0 0.0001012 9806.72949 9866.03613
9777.0 0.0001023 9805.72656 9844.76074
9706.0 0.0001030 9804.72070 9830.15430
9952.0 0.0001005 9803.71387 9821.45801
9832.0 0.0001017 9802.70410 9816.57617
9889.0 0.0001011 9801.69336 9813.66992
9803.0 0.0001020 9800.68066 9811.64648
9787.0 0.0001022 9799.66602 9810.01270
10004.0 0.0001000 9798.64941 9808.57617
9789.0 0.0001022 9797.63086 9805.39844
9895.0 0.0001011 9796.61035 9804.23633
9714.0 0.0001029 9795.58789 9803.14063
9522.0 0.0001050 9794.56348 9802.10254
9928.0 0.0001007 9793.53711 9801.11133
9670.0 0.0001034 9792.50879 9798.43750
9811.0 0.0001019 9791.47852 9797.58984
9680.0 0.0001033 9790.44629 9796.77832
10035.0 0.0000997 9789.41211 9796.00195
9753.0 0.0001025 9788.37598 9795.26367
9672.0 0.0001034 9787.33691 9794.56250
9871.0 0.0001013 9786.29688 9795.23828
9762.0 0.0001024 9785.25488 9794.67578
9656.0 0.0001036 9784.21094 9794.16602
9774.0 0.0001023 9783.16406 9793.71484
9617.0 0.0001040 9782.11621 9793.33008
9730.0 0.0001028 9781.06641 9793.02441
9768.0 0.0001024 9780.01367 9792.80469
9672.0 0.0001034 9778.95898 9792.68652
9559.0 0.0001046 9777.90234 9792.68555
9708.0 0.0001030 9776.84375 9792.82324
9817.0 0.0001019 9775.78320 9793.12500
9662.0 0.0001035 9774.72070 9793.62109
9631.0 0.0001038 9773.65625 9794.34961
9818.0 0.0001019 9772.58887 9795.36035
9762.0 0.0001024 9771.52051 9796.71973
9864.0 0.0001014 9770.44922 9799.39063
9824.0 0.0001018 9769.37598 9801.73926
9828.0 0.0001018 9768.30078 9804.77051
9978.0 0.0001002 9767.22363 9808.68066
9763.0 0.0001024 9766.14355 9813.74219
9796.0 0.0001021 9765.06250 9820.36523
9845.0 0.0001016 9763.97852 9829.22461
9882.0 0.0001012 9762.89258 9841.66016
9899.0 0.0001010 9761.80469 9860.74805
9950.0 0.0001005 9760.71387 9893.70996
9956.0 0.0001004 9759.62109 9957.98145
10124.0 0.0000988 9758.52734 10078.30469
10238.0 0.0000977 9757.43066 10296.86426
10675.0 0.0000937 9756.33105 10650.66211
11062.0 0.0000904 9755.23047 11137.27441
11892.0 0.0000841 9754.12695 11672.03125
12319.0 0.0000812 9753.02148 12080.80371
12269.0 0.0000815 9751.91406 12156.32324
11767.0 0.0000850 9750.80371 11829.45410
11008.0 0.0000908 9749.69238 11283.23730
10711.0 0.0000934 9748.57813 10749.98535
10201.0 0.0000980 9747.46191 10349.48340
9861.0 0.0001014 9746.34277 10099.41211
9919.0 0.0001008 9745.22266 9963.66797
9884.0 0.0001012 9744.09961 9895.57422
9747.0 0.0001026 9742.97363 9861.00000
9946.0 0.0001005 9741.84668 9841.63867
9842.0 0.0001016 9740.71680 9829.53906
9754.0 0.0001025 9739.58496 9821.64648
9863.0 0.0001014 9738.45117 9816.80566
9842.0 0.0001016 9737.31445 9814.60352
9863.0 0.0001014 9736.17578 9815.06738
9963.0 0.0001004 9735.03516 9818.82617
9783.0 0.0001022 9733.89258 9827.95215
9814.0 0.0001019 9732.74707 9848.27148
9977.0 0.0001002 9731.59961 9893.89551
10083.0 0.0000992 9730.44922 9992.87793
10353.0 0.0000966 9729.29785 10187.41504
10735.0 0.0000932 9728.14355 10516.30664
11254.0 0.0000889 9726.98730 10972.24902
11580.0 0.0000864 9725.82813 11456.27344
12054.0 0.0000830 9724.66797 11778.31348
11662.0 0.0000857 9723.50391 11747.75488
11359.0 0.0000880 9722.33887 11366.97949
10917.0 0.0000916 9721.17090 10851.47559
10285.0 0.0000972 9720.00098 10402.56641
10025.0 0.0000998 9718.82910 10101.31445
9832.0 0.0001017 9717.65527 9935.87598
9623.0 0.0001039 9716.47852 9857.52344
9715.0 0.0001029 9715.29980 9822.70020
9897.0 0.0001010 9714.11816 9806.41699
9771.0 0.0001023 9712.93457 9797.94238
9759.0 0.0001025 9711.74902 9793.48438
9898.0 0.0001010 9710.56152 9791.83398
9775.0 0.0001023 9709.37109 9792.65137
9893.0 0.0001011 9708.17871 9795.96289
9749.0 0.0001026 9706.98438 9802.10449
9747.0 0.0001026 9705.78711 9811.86719
9851.0 0.0001015 9704.58887 9827.05957
9889.0 0.0001011 9703.38672 9851.99414
10028.0 0.0000997 9702.18359 9896.70605
10086.0 0.0000991 9700.97754 9982.01660
10058.0 0.0000994 9699.76953 10144.00684
10418.0 0.0000960 9698.55957 10430.66699
10908.0 0.0000917 9697.34668 10882.00000
11841.0 0.0000845 9696.13281 11487.99707
12247.0 0.0000817 9694.91504 12144.22852
12870.0 0.0000777 9693.69629 12652.56250
12831.0 0.0000779 9692.47461 12789.01855
12523.0 0.0000799 9691.25098 12485.05566
11780.0 0.0000849 9690.02539 11883.85938
11129.0 0.0000899 9688.79688 11215.37793
10417.0 0.0000960 9687.56738 10658.39258
10163.0 0.0000984 9686.33496 10273.70215
10025.0 0.0000998 9685.10059 10041.68652
9945.0 0.0001006 9683.86328 9913.87793
9757.0 0.0001025 9682.62402 9845.28418
9746.0 0.0001026 9681.38281 9806.28516
9687.0 0.0001032 9680.13965 9781.34961
9671.0 0.0001034 9678.89355 9763.47949
9822.0 0.0001018 9677.64648 9749.70410
9705.0 0.0001030 9676.39648 9738.63477
9911.0 0.0001009 9675.14355 9729.50879
9768.0 0.0001024 9673.88965 9722.03418
9737.0 0.0001027 9672.63281 9715.47363
9764.0 0.0001024 9671.37402 9709.77734
9767.0 0.0001024 9670.11328 9703.28223
9628.0 0.0001039 9668.85059 9698.86035
9654.0 0.0001036 9667.58496 9694.88184
9652.0 0.0001036 9666.31738 9691.26660
9748.0 0.0001026 9665.04883 9687.95410
9857.0 0.0001015 9663.77637 9684.89160
9578.0 0.0001044 9662.50293 9682.04199
9690.0 0.0001032 9661.22754 9679.37012
9634.0 0.0001038 9659.94922 9676.85352
9658.0 0.0001035 9658.66895 9674.46582
9805.0 0.0001020 9657.38672 9672.19238
9653.0 0.0001036 9656.10254 9670.01758
9662.0 0.0001035 9654.81641 9666.60840
9557.0 0.0001046 9653.52734 9664.64063
9799.0 0.0001021 9652.23633 9662.73633
9711.0 0.0001030 9650.94434 9660.88965
9617.0 0.0001040 9649.64941 9659.09473
9657.0 0.0001036 9648.35254 9657.34375
9672.0 0.0001034 9647.05371 9655.63477
9738.0 0.0001027 9645.75195 9653.96289
9564.0 0.0001046 9644.44922 9652.32324
9552.0 0.0001047 9643.14453 9650.71875
9787.0 0.0001022 9641.83691 9649.14160
9715.0 0.0001029 9640.52734 9647.59180
9570.0 0.0001045 9639.21680 9646.07031
9445.0 0.0001059 9637.90332 9644.57422
9505.0 0.0001052 9636.58789 9643.10352
9575.0 0.0001044 9635.27051 9641.66406
9914.0 0.0001009 9633.95117 9640.24707
9735.0 0.0001027 9632.62988 9638.85938
9631.0 0.0001038 9631.30664 9637.50488
9640.0 0.0001037 9629.98145 9636.18750
9488.0 0.0001054 9628.65430 9634.91406
9612.0 0.0001040 9627.32520 9633.69238
9533.0 0.0001049 9625.99414 9632.53711
9738.0 0.0001027 9624.66113 9631.47754
9431.0 0.0001060 9623.32617 9630.55566
9485.0 0.0001054 9621.98828 9629.88477
9753.0 0.0001025 9620.64941 9629.70215
9714.0 0.0001029 9619.30859 9630.47852
9496.0 0.0001053 9617.96582 9633.00488
9447.0 0.0001059 9616.62109 9638.29883
9591.0 0.0001043 9615.27441 9647.17383
9573.0 0.0001045 9613.92578 9659.38477
9645.0 0.0001037 9612.57617 9672.58496
9640.0 0.0001037 9611.22363 9682.18945
9723.0 0.0001028 9609.87012 9682.97461
9620.0 0.0001040 9608.51367 9673.12988
9726.0 0.0001028 9607.15625 9657.38867
9664.0 0.0001035 9605.79590 9641.75195
9609.0 0.0001041 9604.43457 9629.35840
9543.0 0.0001048 9603.07129 9620.86230
9755.0 0.0001025 9601.70605 9613.49121
9759.0 0.0001025 9600.33984 9610.39648
9630.0 0.0001038 9598.97070 9608.55273
9560.0 0.0001046 9597.60059 9607.46484
9595.0 0.0001042 9596.22754 9606.95215
9456.0 0.0001058 9594.85352 9607.10156
9585.0 0.0001043 9593.47852 9608.33496
9620.0 0.0001040 9592.10059 9611.72754
9682.0 0.0001033 9590.72168 9619.55469
9730.0 0.0001028 9589.34082 9635.72168
9591.0 0.0001043 9587.95801 9665.28320
9607.0 0.0001041 9586.57324 9711.95020
9666.0 0.0001035 9585.18652 9773.38672
9779.0 0.0001023 9583.79883 9836.24316
9845.0 0.0001016 9582.40918 9877.14844
9775.0 0.0001023 9581.01855 9875.66211
9708.0 0.0001030 9579.62500 9825.31836
9777.0 0.0001023 9578.23145 9755.69727
9734.0 0.0001027 9576.83496 9692.17383
9451.0 0.0001058 9575.43652 9645.75879
9623.0 0.0001039 9574.03711 9616.76953
9546.0 0.0001048 9572.63672 9600.43848
9471.0 0.0001056 9571.23340 9591.43359
9598.0 0.0001042 9569.82910 9586.04590
9613.0 0.0001040 9568.42383 9582.32910
9774.0 0.0001023 9567.01563 9579.45117
9529.0 0.0001049 9565.60742 9577.16016
9617.0 0.0001040 9564.19629 9575.32715
9647.0 0.0001037 9562.78418 9574.00391
9456.0 0.0001058 9561.37109 9573.18066
9521.0 0.0001050 9559.95605 9572.69141
9490.0 0.0001054 9558.53906 9572.14746
9612.0 0.0001040 9557.12109 9571.03027
9526.0 0.0001050 9555.70117 9568.99316
9866.0 0.0001014 9554.28027 9568.64355
9704.0 0.0001031 9552.85742 9565.95215
9518.0 0.0001051 9551.43359 9563.55957
9655.0 0.0001036 9550.00781 9561.57422
9664.0 0.0001035 9548.58105 9560.97168
9421.0 0.0001061 9547.15234 9559.61035
9545.0 0.0001048 9545.72266 9558.39648
9502.0 0.0001052 9544.29199 9557.27441
9483.0 0.0001055 9542.85938 9556.21484
9460.0 0.0001057 9541.42578 9555.21289
9698.0 0.0001031 9539.99023 9554.25977
9703.0 0.0001031 9538.55273 9553.36133
9453.0 0.0001058 9537.11523 9554.81152
9444.0 0.0001059 9535.67578 9554.09473
9414.0 0.0001062 9534.23535 9553.44727
9589.0 0.0001043 9532.79297 9552.87012
9565.0 0.0001045 9531.34961 9552.37109
9716.0 0.0001029 9529.90527 9552.11816
9472.0 0.0001056 9528.45898 9551.80664
9570.0 0.0001045 9527.01172 9551.59961
9445.0 0.0001059 9525.56348 9551.51367
9569.0 0.0001045 9524.11328 9551.56250
9394.0 0.0001065 9522.66309 9551.75879
9570.0 0.0001045 9521.20996 9552.12793
9766.0 0.0001024 9519.75684 9552.69141
9532.0 0.0001049 9518.30273 9553.48047
9667.0 0.0001034 9516.84668 9554.52539
9482.0 0.0001055 9515.38965 9555.87012
9607.0 0.0001041 9513.93164 9557.56738
9583.0 0.0001044 9512.47266 9559.62109
9675.0 0.0001034 9511.01172 9562.21973
9608.0 0.0001041 9509.54980 9565.40137
9553.0 0.0001047 9508.08789 9569.29004
9366.0 0.0001068 9506.62402 9574.03320
9468.0 0.0001056 9505.15918 9579.83105
9528.0 0.0001050 9503.69238 9586.94238
9537.0 0.0001049 9502.22559 9595.71484
9594.0 0.0001042 9500.75781 9606.61719
9588.0 0.0001043 9499.28809 9620.30762
9720.0 0.0001029 9497.81738 9637.80273
9594.0 0.0001042 9496.34668 9660.88965
9837.0 0.0001017 9494.87402 9693.30762
9884.0 0.0001012 9493.40137 9743.65918
9779.0 0.0001023 9491.92676 9831.03027
10171.0 0.0000983 9490.45117 9992.40820
10431.0 0.0000959 9488.97461 10285.67285
10797.0 0.0000926 9487.49805 10775.88086
11769.0 0.0000850 9486.01953 11494.07227
12712.0 0.0000787 9484.54004 12372.79785
13731.0 0.0000728 9483.05957 13197.93848
14020.0 0.0000713 9481.57910 13659.74414
13837.0 0.0000723 9480.09766 13549.96680
13548.0 0.0000738 9478.61426 13049.40137
12550.0 0.0000797 9477.13086 12580.79492
12516.0 0.0000799 9475.64648 12403.60254
12792.0 0.0000782 9474.16113 12506.00391
13055.0 0.0000766 9472.67480 12670.84863
13306.0 0.0000752 9471.18750 12635.01465
12981.0 0.0000770 9469.69922 12327.43555
12815.0 0.0000780 9468.21094 11924.60352
12080.0 0.0000828 9466.72070 11570.98047
11435.0 0.0000875 9465.23047 11263.56348
11068.0 0.0000904 9463.73926 10932.98242
10776.0 0.0000928 9462.24805 10575.47559
10177.0 0.0000983 9460.75488 10252.20801
10052.0 0.0000995 9459.26172 10005.17578
9840.0 0.0001016 9457.76758 9841.98633
9784.0 0.0001022 9456.27246 9748.62305
9839.0 0.0001016 9454.77734 9704.70508
9651.0 0.0001036 9453.28027 9695.02637
9694.0 0.0001032 9451.78418 9712.43066
9730.0 0.0001028 9450.28613 9753.33203
9690.0 0.0001032 9448.78809 9810.97559
9928.0 0.0001007 9447.28906 9873.16699
10055.0 0.0000995 9445.78906 9931.05664
10058.0 0.0000994 9444.28906 9999.68359
10208.0 0.0000980 9442.78809 10134.65137
10540.0 0.0000949 9441.28711 10407.70313
10995.0 0.0000910 9439.78418 10864.82617
11383.0 0.0000879 9438.28223 11481.50000
11868.0 0.0000843 9436.77832 12119.61133
12541.0 0.0000797 9435.27441 12535.58496
12321.0 0.0000812 9433.77051 12492.82422
12020.0 0.0000832 9432.26563 11989.94629
11209.0 0.0000892 9430.76074 11295.84961
10402.0 0.0000961 9429.25391 10659.27832
10049.0 0.0000995 9427.74805 10189.20605
9605.0 0.0001041 9426.24121 9892.04980
9722.0 0.0001029 9424.73340 9724.15430
9603.0 0.0001041 9423.22559 9633.93359
9607.0 0.0001041 9421.71680 9583.63672
9625.0 0.0001039 9420.20801 9552.29395
9533.0 0.0001049 9418.69922 9530.20703
9417.0 0.0001062 9417.18945 9513.28418
9614.0 0.0001040 9415.67969 9499.71094
9538.0 0.0001048 9414.16895 9488.55469
9495.0 0.0001053 9412.65820 9479.23145
9264.0 0.0001079 9411.14648 9471.38086
9420.0 0.0001062 9409.63477 9464.79590
9566.0 0.0001045 9408.12207 9470.02539
9449.0 0.0001058 9406.61035 9466.72070
9543.0 0.0001048 9405.09766 9465.84375
9467.0 0.0001056 9403.58398 9468.55664
9418.0 0.0001062 9402.07129 9475.81934
9434.0 0.0001060 9400.55762 9487.22852
9570.0 0.0001045 9399.04297 9499.69629
9493.0 0.0001053 9397.52832 9507.41406
9486.0 0.0001054 9396.01367 9504.48047
9449.0 0.0001058 9394.49902 9490.51855
9414.0 0.0001062 9392.98438 9471.96875
9533.0 0.0001049 9391.46875 9455.01172
9308.0 0.0001074 9389.95313 9447.42480
9475.0 0.0001055 9388.43750 9439.28613
9439.0 0.0001059 9386.92090 9434.32129
9403.0 0.0001063 9385.40527 9431.22070
9580.0 0.0001044 9383.88867 9429.08594
9429.0 0.0001061 9382.37109 9427.51563
9446.0 0.0001059 9380.85449 9426.20898
9647.0 0.0001037 9379.33789 9425.14063
9268.0 0.0001079 9377.82031 9421.52637
9438.0 0.0001060 9376.30371 9420.95898
9359.0 0.0001068 9374.78613 9420.58789
9438.0 0.0001060 9373.26855 9420.41992
9482.0 0.0001055 9371.75000 9420.46484
9428.0 0.0001061 9370.23242 9420.73438
9236.0 0.0001083 9368.71484 9421.24805
9465.0 0.0001057 9367.19629 9422.02734
9529.0 0.0001049 9365.67871 9423.10156
9370.0 0.0001067 9364.16016 9424.51270
9517.0 0.0001051 9362.64258 9426.28516
9396.0 0.0001064 9361.12402 9426.35645
9453.0 0.0001058 9359.60547 9429.08594
9401.0 0.0001064 9358.08691 9432.36426
9487.0 0.0001054 9356.56934 9436.28711
9485.0 0.0001054 9355.05078 9440.95996
9274.0 0.0001078 9353.53223 9446.52344
9499.0 0.0001053 9352.01367 9453.14453
9492.0 0.0001054 9350.49512 9461.04199
9482.0 0.0001055 9348.97656 9470.49023
9539.0 0.0001048 9347.45898 9481.84375
9537.0 0.0001049 9345.94043 9495.56055
9519.0 0.0001051 9344.42188 9512.25977
9536.0 0.0001049 9342.90430 9533.03418
9393.0 0.0001065 9341.38574 9558.48242
9657.0 0.0001036 9339.86816 9590.48438
9591.0 0.0001043 9338.34961 9631.51367
9813.0 0.0001019 9336.83203 9685.99023
9907.0 0.0001009 9335.31445 9763.56738
10168.0 0.0000983 9333.79688 9887.97070
10492.0 0.0000953 9332.27930 10115.91602
10996.0 0.0000909 9330.76270 10564.86621
11674.0 0.0000857 9329.24512 11426.25195
12938.0 0.0000773 9327.72754 12930.46973
15132.0 0.0000661 9326.21094 15182.79785
17385.0 0.0000575 9324.69434 17936.55859
19863.0 0.0000503 9323.17773 20413.17969
21164.0 0.0000473 9321.66113 21487.59570
20318.0 0.0000492 9320.14551 20446.71875
18005.0 0.0000555 9318.62988 17894.92383
14908.0 0.0000671 9317.11328 15090.72949
12724.0 0.0000786 9315.59766 12836.35449
10853.0 0.0000921 9314.08301 11358.81348
10570.0 0.0000946 9312.56738 10532.41016
10053.0 0.0000995 9311.05273 10117.29980
9800.0 0.0001020 9309.53809 9914.72168
9506.0 0.0001052 9308.02344 9809.48633
9699.0 0.0001031 9306.50977 9749.49414
9722.0 0.0001029 9304.99609 9715.07129
9718.0 0.0001029 9303.48242 9700.04883
9599.0 0.0001042 9301.96973 9703.56445
9733.0 0.0001027 9300.45703 9727.07031
9637.0 0.0001038 9298.94434 9773.89355
9895.0 0.0001011 9297.43164 9852.13184
9907.0 0.0001009 9295.91992 9983.11133
10279.0 0.0000973 9294.40820 10213.91992
10575.0 0.0000946 9292.89648 10622.00781
10668.0 0.0000937 9291.38574 11288.20605
11595.0 0.0000862 9289.87500 12239.96387
12559.0 0.0000796 9288.36523 13381.51074
13721.0 0.0000729 9286.85547 14414.65820
14252.0 0.0000702 9285.34570 14842.56836
13967.0 0.0000716 9283.83594 14372.98340
13464.0 0.0000743 9282.32715 13311.76855
12174.0 0.0000821 9280.81934 12151.00488
10932.0 0.0000915 9279.31152 11180.37988
10259.0 0.0000975 9277.80371 10491.77148
9875.0 0.0001013 9276.29688 10059.73535
9656.0 0.0001036 9274.79004 9810.16992
9572.0 0.0001045 9273.28418 9669.64453
9587.0 0.0001043 9271.77832 9586.87988
9406.0 0.0001063 9270.27246 9533.79785
9442.0 0.0001059 9268.76758 9497.47266
9563.0 0.0001046 9267.26367 9473.36816
9424.0 0.0001061 9265.75977 9461.64453
9490.0 0.0001054 9264.25586 9465.33008
9557.0 0.0001046 9262.75293 9488.04102
9651.0 0.0001036 9261.25000 9529.96289
9655.0 0.0001036 9259.74805 9582.82813
9670.0 0.0001034 9258.24609 9626.04590
9737.0 0.0001027 9256.74512 9634.08789
9598.0 0.0001042 9255.24512 9594.35645
9581.0 0.0001044 9253.74512 9524.19629
9470.0 0.0001056 9252.24512 9451.78711
9450.0 0.0001058 9250.74609 9393.65625
9221.0 0.0001084 9249.24805 9353.86426
9216.0 0.0001085 9247.75000 9329.19824
9199.0 0.0001087 9246.25195 9314.22559
9321.0 0.0001073 9244.75488 9304.46875
9421.0 0.0001061 9243.25879 9297.27637
9412.0 0.0001062 9241.76367 9291.37988
9273.0 0.0001078 9240.26855 9286.23828
9256.0 0.0001080 9238.77344 9281.62207
9306.0 0.0001075 9237.27930 9277.40137
9197.0 0.0001087 9235.78613 9262.98828
9213.0 0.0001085 9234.29297 9259.71191
9215.0 0.0001085 9232.80078 9256.63965
9316.0 0.0001073 9231.30957 9253.74023
9390.0 0.0001065 9229.81836 9250.98633
9379.0 0.0001066 9228.32813 9248.36035
9371.0 0.0001067 9226.83789 9245.84473
9132.0 0.0001095 9225.34863 9243.42773
9285.0 0.0001077 9223.86035 9241.09863
9257.0 0.0001080 9222.37305 9238.84766
9121.0 0.0001096 9220.88477 9236.66699
9182.0 0.0001089 9219.39844 9234.55176
9139.0 0.0001094 9217.91211 9232.49609
9184.0 0.0001089 9216.42773 9230.49512
9257.0 0.0001080 9214.94238 9228.54980
9161.0 0.0001092 9213.45898 9226.65234
9244.0 0.0001082 9211.97559 9224.80273
9232.0 0.0001083 9210.49219 9223.00000
9293.0 0.0001076 9209.01074 9221.24512
9369.0 0.0001067 9207.52930 9219.53906
9256.0 0.0001080 9206.04883 9217.88086
9127.0 0.0001096 9204.56836 9216.27734
9313.0 0.0001074 9203.08984 9214.73047
9154.0 0.0001092 9201.61035 9213.24414
9167.0 0.0001091 9200.13281 9211.82910
9204.0 0.0001086 9198.65625 9210.49805
9110.0 0.0001098 9197.17969 9209.26367
9163.0 0.0001091 9195.70410 9208.15039
9157.0 0.0001092 9194.22852 9207.18262
9095.0 0.0001100 9192.75488 9206.40918
9257.0 0.0001080 9191.28125 9205.88770
9284.0 0.0001077 9189.80859 9205.74414
9281.0 0.0001077 9188.33594 9206.23438
9333.0 0.0001071 9186.86523 9207.97656
9110.0 0.0001098 9185.39453 9212.34277
9277.0 0.0001078 9183.92480 9222.01172
9260.0 0.0001080 9182.45508 9235.96094
9324.0 0.0001073 9180.98730 9268.84863
9378.0 0.0001066 9179.51953 9316.99707
9447.0 0.0001059 9178.05273 9375.09570
9297.0 0.0001076 9176.58691 9428.30664
9467.0 0.0001056 9175.12207 9456.86719
9593.0 0.0001042 9173.65723 9452.22852
9408.0 0.0001063 9172.19336 9427.35840
9401.0 0.0001064 9170.73047 9396.93945
9321.0 0.0001073 9169.26855 9360.62695
9304.0 0.0001075 9167.80664 9316.91016
9200.0 0.0001087 9166.34668 9273.14941
9183.0 0.0001089 9164.88672 9236.58691
9190.0 0.0001088 9163.42773 9209.69531
9275.0 0.0001078 9161.96973 9191.76270
9241.0 0.0001082 9160.51172 9180.53711
9088.0 0.0001100 9159.05566 9173.52734
9168.0 0.0001091 9157.59961 9168.82617
9120.0 0.0001096 9156.14551 9165.30078
9140.0 0.0001094 9154.69043 9162.38477
9228.0 0.0001084 9153.23730 9159.82031
9276.0 0.0001078 9151.78516 9157.48926
9178.0 0.0001090 9150.33398 9155.32617
9268.0 0.0001079 9148.88281 9153.28906
9096.0 0.0001099 9147.43262 9151.35059
9327.0 0.0001072 9145.98340 9149.49023
9300.0 0.0001075 9144.53516 9147.69336
9439.0 0.0001059 9143.08789 9145.94727
9331.0 0.0001072 9141.64063 9144.24219
9208.0 0.0001086 9140.19531 9142.57227
9214.0 0.0001085 9138.75098 9140.93359
9019.0 0.0001109 9137.30664 9139.31738
9378.0 0.0001066 9135.86328 9137.72363
9022.0 0.0001108 9134.42090 9136.14746
9307.0 0.0001074 9132.97949 9134.58691
9239.0 0.0001082 9131.53809 9133.04102
9096.0 0.0001099 9130.09863 9131.50879
9155.0 0.0001092 9128.65918 9129.98730
8955.0 0.0001117 9127.22168 9128.47949
9136.0 0.0001095 9125.78418 9126.98438
9092.0 0.0001100 9124.34766 9125.50977
9078.0 0.0001102 9122.91211 9124.06348
9205.0 0.0001086 9121.47754 9122.66992
9086.0 0.0001101 9120.04395 9121.34277
9071.0 0.0001102 9118.61035 9120.09180
9213.0 0.0001085 9117.17871 9118.89063
9129.0 0.0001095 9115.74707 9117.66211
9178.0 0.0001090 9114.31738 9116.29883
9017.0 0.0001109 9112.88867 9114.73340
9079.0 0.0001101 9111.45996 9113.02148
9135.0 0.0001095 9110.03223 9111.28613
8971.0 0.0001115 9108.60547 9109.60254
9132.0 0.0001095 9107.17969 9107.99316
8951.0 0.0001117 9105.75391 9106.45020
8954.0 0.0001117 9104.33008 9104.95215
8990.0 0.0001112 9102.90723 9103.96875
8939.0 0.0001119 9101.48438 9102.52539
9038.0 0.0001106 9100.06348 9101.09082
9092.0 0.0001100 9098.64258 9099.66113
9163.0 0.0001091 9097.22363 9098.23633
8956.0 0.0001117 9095.80469 9096.81543
9052.0 0.0001105 9094.38672 9095.60156
9058.0 0.0001104 9092.96973 9094.19434
9126.0 0.0001096 9091.55371 9092.79004
9000.0 0.0001111 9090.13867 9091.38867
9147.0 0.0001093 9088.72461 9089.99023
9110.0 0.0001098 9087.31055 9088.59668
9030.0 0.0001107 9085.89844 9087.20703
9000.0 0.0001111 9084.48730 9085.81934
9072.0 0.0001102 9083.07617 9084.43457
9189.0 0.0001088 9081.66602 9083.05469
9155.0 0.0001092 9080.25781 9081.68652
9089.0 0.0001100 9078.84961 9080.31250
9091.0 0.0001100 9077.44238 9078.94434
9100.0 0.0001099 9076.03613 9077.58105
9017.0 0.0001109 9074.63184 9076.22168
8978.0 0.0001114 9073.22656 9074.86719
9151.0 0.0001093 9071.82324 9073.51953
9120.0 0.0001096 9070.42090 9071.94043
8961.0 0.0001116 9069.01953 9070.60840
8924.0 0.0001121 9067.61914 9069.28418
9081.0 0.0001101 9066.21875 9067.96484
9107.0 0.0001098 9064.82031 9066.65332
9003.0 0.0001111 9063.42188 9065.34766
9330.0 0.0001072 9062.02539 9064.05371
9019.0 0.0001109 9060.62891 9062.76660
9189.0 0.0001088 9059.23340 9061.98145
9030.0 0.0001107 9057.83887 9060.73633
9058.0 0.0001104 9056.44629 9059.50293
9205.0 0.0001086 9055.05371 9058.28223
8939.0 0.0001119 9053.66211 9057.08105
9087.0 0.0001100 9052.27148 9055.89648
9219.0 0.0001085 9050.88086 9054.73340
9037.0 0.0001107 9049.49219 9053.59570
9000.0 0.0001111 9048.10449 9052.48535
8951.0 0.0001117 9046.71777 9051.40527
9131.0 0.0001095 9045.33105 9050.36035
9020.0 0.0001109 9043.94531 9049.35645
8990.0 0.0001112 9042.56152 9048.40430
9067.0 0.0001103 9041.17773 9047.50684
9097.0 0.0001099 9039.79590 9046.67773
8941.0 0.0001118 9038.41309 9045.92871
9054.0 0.0001104 9037.03320 9045.27734
9091.0 0.0001100 9035.65234 9044.74512
9092.0 0.0001100 9034.27441 9044.36523
9003.0 0.0001111 9032.89648 9044.17090
8983.0 0.0001113 9031.51855 9044.21680
8985.0 0.0001113 9030.14258 9044.58496
9049.0 0.0001105 9028.76660 9045.42578
9021.0 0.0001109 9027.39258 9047.05273
9127.0 0.0001096 9026.01855 9050.20508
9040.0 0.0001106 9024.64648 9056.48340
9066.0 0.0001103 9023.27441 9068.81152
9093.0 0.0001100 9021.90332 9091.27441
9148.0 0.0001093 9020.53418 9127.44629
9067.0 0.0001103 9019.16406 9177.03027
9360.0 0.0001068 9017.79688 9232.14063
9199.0 0.0001087 9016.42871 9276.66016
9497.0 0.0001053 9015.06250 9295.56445
9409.0 0.0001063 9013.69629 9294.60840
9414.0 0.0001062 9012.33203 9302.22168
9292.0 0.0001076 9010.96777 9340.42871
9213.0 0.0001085 9009.60547 9414.02734
9455.0 0.0001058 9008.24316 9502.44043
9573.0 0.0001045 9006.88184 9559.56738
9520.0 0.0001050 9005.52148 9539.57813
9512.0 0.0001051 9004.16211 9448.89551
9510.0 0.0001052 9002.80371 9333.40039
9295.0 0.0001076 9001.44629 9228.86914
9209.0 0.0001086 9000.08887 9150.35840
9120.0 0.0001096 8998.73340 9098.95020
9020.0 0.0001109 8997.37793 9068.69238
9091.0 0.0001100 8996.02441 9052.15332
8931.0 0.0001120 8994.67090 9043.70215
8999.0 0.0001111 8993.31836 9040.15527
9086.0 0.0001101 8991.96680 9041.09961
8997.0 0.0001111 8990.61621 9049.00293
9227.0 0.0001084 8989.26563 9070.45605
9077.0 0.0001102 8987.91699 9116.82520
9260.0 0.0001080 8986.56836 9201.06738
9434.0 0.0001060 8985.22070 9327.84375
9436.0 0.0001060 8983.87500 9479.32520
9543.0 0.0001048 8982.52832 9606.36133
9650.0 0.0001036 8981.18457 9643.28027
9554.0 0.0001047 8979.83984 9562.15820
9290.0 0.0001076 8978.49707 9411.25879
9246.0 0.0001082 8977.15430 9258.69434
9135.0 0.0001095 8975.81250 9142.40820
9223.0 0.0001084 8974.47266 9069.62891
8970.0 0.0001115 8973.13184 9030.24805
8872.0 0.0001127 8971.79395 9010.39160
8910.0 0.0001122 8970.45508 8999.90527
9128.0 0.0001096 8969.11816 8993.44824
9021.0 0.0001109 8967.78125 8988.76270
9049.0 0.0001105 8966.44531 8984.99902
9045.0 0.0001106 8965.11133 8981.86035
8986.0 0.0001113 8963.77637 8979.10059
8975.0 0.0001114 8962.44336 8976.65723
9051.0 0.0001105 8961.11035 8974.46484
8886.0 0.0001125 8959.77930 8972.47754
8927.0 0.0001120 8958.44824 8970.65527
9102.0 0.0001099 8957.11816 8968.97754
8947.0 0.0001118 8955.78809 8967.42676
8948.0 0.0001118 8954.45996 8965.99609
8929.0 0.0001120 8953.13281 8964.67676
8987.0 0.0001113 8951.80566 8963.46191
8851.0 0.0001130 8950.47949 8963.03613
8905.0 0.0001123 8949.15430 8962.06543
8865.0 0.0001128 8947.82910 8961.21680
8973.0 0.0001114 8946.50488 8960.50293
9053.0 0.0001105 8945.18262 8959.94727
9026.0 0.0001108 8943.86035 8959.56543
9160.0 0.0001092 8942.53906 8959.39453
9097.0 0.0001099 8941.21777 8959.47461
9002.0 0.0001111 8939.89746 8959.86328
8964.0 0.0001116 8938.57910 8960.63770
8917.0 0.0001121 8937.25977 8961.89746
8988.0 0.0001113 8935.94238 8963.79102
8865.0 0.0001128 8934.62500 8966.53223
9064.0 0.0001103 8933.30957 8970.48047
8855.0 0.0001129 8931.99414 8976.33789
8895.0 0.0001124 8930.67871 8985.65137
8884.0 0.0001126 8929.36523 9001.83398
9265.0 0.0001079 8928.05176 9031.69922
9140.0 0.0001094 8926.73926 9086.61914
9011.0 0.0001110 8925.42676 9181.15039
9278.0 0.0001078 8924.11621 9326.83105
9492.0 0.0001054 8922.80566 9520.96680
9696.0 0.0001031 8921.49609 9732.53613
9852.0 0.0001015 8920.18652 9889.66016
10020.0 0.0000998 8918.87793 9904.65625
9754.0 0.0001025 8917.57129 9766.84863
9759.0 0.0001025 8916.26367 9556.26074
9439.0 0.0001059 8914.95801 9351.79297
9235.0 0.0001083 8913.65234 9191.87402
9101.0 0.0001099 8912.34766 9085.32227
9045.0 0.0001106 8911.04297 9021.69824
8984.0 0.0001113 8909.73926 8986.00195
9062.0 0.0001104 8908.43750 8965.75684
8962.0 0.0001116 8907.13477 8953.25781
8845.0 0.0001131 8905.83301 8944.61035
8800.0 0.0001136 8904.53223 8938.06543
8951.0 0.0001117 8903.23242 8932.85742
8941.0 0.0001118 8901.93262 8928.63965
8899.0 0.0001124 8900.63379 8925.28125
8983.0 0.0001113 8899.33594 8922.87109
9008.0 0.0001110 8898.03809 8921.77637
8948.0 0.0001118 8896.74121 8922.66895
8845.0 0.0001131 8895.44434 8926.26660
8961.0 0.0001116 8894.14941 8932.73242
8820.0 0.0001134 8892.85352 8940.53516
8978.0 0.0001114 8891.55957 8947.16504
8871.0 0.0001127 8890.26563 8947.70605
8911.0 0.0001122 8888.97266 8940.65820
8920.0 0.0001121 8887.68066 8929.69238
8860.0 0.0001129 8886.38770 8918.99316
8861.0 0.0001129 8885.09668 8910.71973
9034.0 0.0001107 8883.80566 8905.28516
8899.0 0.0001124 8882.51563 8902.14258
9049.0 0.0001105 8881.22559 8900.50977
8837.0 0.0001132 8879.93750 8900.42383
9016.0 0.0001109 8878.64844 8900.39746
8887.0 0.0001125 8877.36035 8900.95508
9029.0 0.0001108 8876.07422 8902.16797
8763.0 0.0001141 8874.78711 8904.27344
8863.0 0.0001128 8873.50098 8907.50684
8913.0 0.0001122 8872.21484 8912.68652
9025.0 0.0001108 8870.92969 8921.56543
9021.0 0.0001109 8869.64551 8938.03027
8844.0 0.0001131 8868.36133 8969.54297
9011.0 0.0001110 8867.07813 9027.62793
9122.0 0.0001096 8865.79492 9125.01172
9217.0 0.0001085 8864.51270 9267.87891
9427.0 0.0001061 8863.23047 9444.59961
9606.0 0.0001041 8861.94922 9613.50781
9804.0 0.0001020 8860.66797 9699.69336
9883.0 0.0001012 8859.38867 9646.61816
9756.0 0.0001025 8858.10840 9489.38086
9327.0 0.0001072 8856.82910 9306.43262
9163.0 0.0001091 8855.55078 9149.41797
9182.0 0.0001089 8854.27148 9036.98438
9090.0 0.0001100 8852.99414 8966.63379
8754.0 0.0001142 8851.71680 8926.43457
9030.0 0.0001107 8850.43945 8904.02930
9026.0 0.0001108 8849.16309 8890.78516
8815.0 0.0001134 8847.88770 8881.99805
8921.0 0.0001121 8846.61133 8875.47559
8856.0 0.0001129 8845.33691 8870.26758
8885.0 0.0001125 8844.06250 8865.92969
8937.0 0.0001119 8842.78809 8862.21973
8835.0 0.0001132 8841.51465 8858.98340
8912.0 0.0001122 8840.24121 8856.11230
8918.0 0.0001121 8838.96777 8853.52637
8978.0 0.0001114 8837.69531 8851.17285
8910.0 0.0001122 8836.42383 8849.00879
8765.0 0.0001141 8835.15234 8847.00098
8880.0 0.0001126 8833.88086 8845.12695
8849.0 0.0001130 8832.61035 8843.36523
8890.0 0.0001125 8831.33984 8841.70215
8533.0 0.0001172 8830.07031 8839.28516
8682.0 0.0001152 8828.79980 8837.82422
8858.0 0.0001129 8827.53125 8836.42969
8877.0 0.0001127 8826.26172 8835.10840
8999.0 0.0001111 8824.99316 8833.85547
8990.0 0.0001112 8823.72559 8832.67383
8826.0 0.0001133 8822.45801 8831.56445
8846.0 0.0001130 8821.19043 8830.53027
8942.0 0.0001118 8819.92285 8829.58105
8896.0 0.0001124 8818.65625 8828.72363
8718.0 0.0001147 8817.38965 8827.92871
8765.0 0.0001141 8816.12402 8827.29688
8894.0 0.0001124 8814.85840 8826.80664
8773.0 0.0001140 8813.59277 8826.48145
8820.0 0.0001134 8812.32813 8828.51270
8894.0 0.0001124 8811.06348 8828.72266
8923.0 0.0001121 8809.79883 8829.25098
8810.0 0.0001135 8808.53516 8830.19043
8657.0 0.0001155 8807.27148 8831.65918
8839.0 0.0001131 8806.00781 8833.84668
8870.0 0.0001127 8804.74414 8837.07520
8797.0 0.0001137 8803.48145 8842.00879
8866.0 0.0001128 8802.21875 8850.17383
8914.0 0.0001122 8800.95703 8865.00781
9063.0 0.0001103 8799.69434 8893.30371
9030.0 0.0001107 8798.43262 8945.95020
8998.0 0.0001111 8797.17090 9035.63379
9135.0 0.0001095 8795.91016 9169.76855
9277.0 0.0001078 8794.64844 9339.75586
9420.0 0.0001062 8793.38770 9509.39941
9739.0 0.0001027 8792.12695 9610.32617
9568.0 0.0001045 8790.86621 9585.43750
9463.0 0.0001057 8789.60645 9461.41309
9407.0 0.0001063 8788.34668 9309.39941
9188.0 0.0001088 8787.08691 9173.38184
9138.0 0.0001094 8785.82715 9064.31152
9024.0 0.0001108 8784.56836 8980.83105
9055.0 0.0001104 8783.30859 8920.46094
8913.0 0.0001122 8782.04980 8878.83691
8945.0 0.0001118 8780.79102 8850.99902
8970.0 0.0001115 8779.53223 8832.82227
8648.0 0.0001156 8778.27441 8821.06348
8795.0 0.0001137 8777.01563 8813.28906
8883.0 0.0001126 8775.75781 8807.86621
8813.0 0.0001135 8774.50000 8803.84180
8717.0 0.0001147 8773.24219 8800.00098
8796.0 0.0001137 8771.98535 8797.48340
8776.0 0.0001139 8770.72754 8795.45313
8848.0 0.0001130 8769.47070 8795.68359
8685.0 0.0001151 8768.21289 8794.48828
8561.0 0.0001168 8766.95605 8793.65039
8703.0 0.0001149 8765.69824 8793.16602
8650.0 0.0001156 8764.44238 8793.05273
8810.0 0.0001135 8763.18555 8793.34277
8784.0 0.0001138 8761.92871 8794.09180
8908.0 0.0001123 8760.67285 8795.38184
8845.0 0.0001131 8759.41602 8797.31543
8662.0 0.0001154 8758.15918 8800.05566
8765.0 0.0001141 8756.90332 8803.81445
8870.0 0.0001127 8755.64746 8808.90234
8962.0 0.0001116 8754.39063 8815.78711
8681.0 0.0001152 8753.13477 8825.29395
8762.0 0.0001141 8751.87891 8839.19336
8999.0 0.0001111 8750.62305 8861.94043
8793.0 0.0001137 8749.36719 8904.61328
9107.0 0.0001098 8748.11133 8991.08008
9143.0 0.0001094 8746.85547 9161.99414
9394.0 0.0001065 8745.59961 9465.80957
9842.0 0.0001016 8744.34473 9927.31445
10349.0 0.0000966 8743.08887 10500.55859
10876.0 0.0000919 8741.83301 11027.04688
11110.0 0.0000900 8740.57715 11246.80469
10956.0 0.0000913 8739.32129 11007.94727
10557.0 0.0000947 8738.06641 10472.70313
10114.0 0.0000989 8736.81055 9899.32520
9552.0 0.0001047 8735.55469 9441.37988
9238.0 0.0001082 8734.29883 9141.18750
8967.0 0.0001115 8733.04395 8972.18945
9026.0 0.0001108 8731.78809 8885.78125
8872.0 0.0001127 8730.53223 8841.91504
8776.0 0.0001139 8729.27637 8817.33594
8792.0 0.0001137 8728.02051 8801.33984
8688.0 0.0001151 8726.76465 8789.63672
8733.0 0.0001145 8725.50879 8780.50977
8822.0 0.0001134 8724.25293 8773.16309
8808.0 0.0001135 8722.99707 8767.13574
8771.0 0.0001140 8721.74121 8762.12500
8693.0 0.0001150 8720.48438 8757.91211
8777.0 0.0001139 8719.22852 8754.34668
8982.0 0.0001113 8717.97266 8751.31836
8762.0 0.0001141 8716.71582 8748.74316
8717.0 0.0001147 8715.45996 8746.56738
8750.0 0.0001143 8714.20313 8744.83984
8559.0 0.0001168 8712.94629 8743.36426
8592.0 0.0001164 8711.68945 8742.21094
8773.0 0.0001140 8710.43262 8741.38184
8745.0 0.0001144 8709.17578 8740.88672
8791.0 0.0001138 8707.91895 8740.75488
8677.0 0.0001152 8706.66113 8741.02051
8613.0 0.0001161 8705.40430 8741.79199
8807.0 0.0001135 8704.14648 8743.04395
8708.0 0.0001148 8702.88867 8744.92871
8718.0 0.0001147 8701.63086 8747.59180
8751.0 0.0001143 8700.37305 8751.22168
8743.0 0.0001144 8699.11523 8756.08984
8624.0 0.0001160 8697.85742 8762.58203
8879.0 0.0001126 8696.59863 8771.30664
8564.0 0.0001168 8695.34082 8783.36719
8778.0 0.0001139 8694.08105 8801.16211
8855.0 0.0001129 8692.82227 8830.25977
8943.0 0.0001118 8691.56348 8882.88965
8996.0 0.0001112 8690.30469 8982.08398
9041.0 0.0001106 8689.04492 9162.21484
9306.0 0.0001075 8687.78516 9458.82715
9739.0 0.0001027 8686.52539 9884.20410
10313.0 0.0000970 8685.26563 10394.28906
10730.0 0.0000932 8684.00488 10855.45703
11019.0 0.0000908 8682.74414 11049.82617
10957.0 0.0000913 8681.48438 10847.87207
10495.0 0.0000953 8680.22266 10382.39551
10130.0 0.0000987 8678.96191 9870.48828
9683.0 0.0001033 8677.70117 9444.62109
9225.0 0.0001084 8676.43848 9148.12207
9063.0 0.0001103 8675.17773 8968.37500
8900.0 0.0001124 8673.91504 8869.76074
8699.0 0.0001150 8672.65332 8817.77637
8756.0 0.0001142 8671.38965 8788.81934
8651.0 0.0001156 8670.12695 8769.59473
8597.0 0.0001163 8668.86426 8753.83887
8692.0 0.0001150 8667.60059 8739.83301
8675.0 0.0001153 8666.33789 8727.70703
8783.0 0.0001139 8665.07324 8717.71191
8590.0 0.0001164 8663.80957 8709.93750
8689.0 0.0001151 8662.54492 8704.43457
8775.0 0.0001140 8661.28027 8701.34375
8592.0 0.0001164 8660.01465 8700.78809
8677.0 0.0001152 8658.75000 8702.54688
8721.0 0.0001147 8657.48438 8705.58301
8533.0 0.0001172 8656.21875 8707.62695
8565.0 0.0001168 8654.95215 8705.70801
8683.0 0.0001152 8653.68555 8697.54102
8752.0 0.0001143 8652.41895 8688.52441
8519.0 0.0001174 8651.15137 8679.76270
8761.0 0.0001141 8649.88379 8672.59766
8702.0 0.0001149 8648.61621 8667.30078
8715.0 0.0001147 8647.34863 8663.51758
8723.0 0.0001146 8646.08008 8660.73145
8642.0 0.0001157 8644.81152 8658.52930
8706.0 0.0001149 8643.54199 8656.66992
8509.0 0.0001175 8642.27246 8655.04395
8545.0 0.0001170 8641.00293 8653.62012
8590.0 0.0001164 8639.73242 8652.41309
8685.0 0.0001151 8638.46191 8651.85840
8655.0 0.0001155 8637.19141 8651.39453
8511.0 0.0001175 8635.91992 8651.76172
8770.0 0.0001140 8634.64844 8653.72754
8531.0 0.0001172 8633.37598 8658.56250
8718.0 0.0001147 8632.10449 8667.86035
8734.0 0.0001145 8630.83105 8682.81250
8749.0 0.0001143 8629.55859 8703.00488
8644.0 0.0001157 8628.28516 8724.99219
8734.0 0.0001145 8627.01172 8741.79102
8568.0 0.0001167 8625.73730 8743.28418
8810.0 0.0001135 8624.46289 8729.91016
8655.0 0.0001155 8623.18750 8711.37988
8657.0 0.0001155 8621.91211 8696.85254
8691.0 0.0001151 8620.63672 8690.41992
8660.0 0.0001155 8619.36035 8691.24414
8611.0 0.0001161 8618.08398 8694.21484
8722.0 0.0001147 8616.80664 8692.03320
8584.0 0.0001165 8615.52930 8681.39355
8736.0 0.0001145 8614.25195 8665.95898
8505.0 0.0001176 8612.97363 8650.64746
8649.0 0.0001156 8611.69531 8638.16992
8708.0 0.0001148 8610.41602 8629.20898
8499.0 0.0001177 8609.13672 8623.23242
8523.0 0.0001173 8607.85645 8619.26953
8682.0 0.0001152 8606.57617 8616.46191
8501.0 0.0001176 8605.29492 8614.25879
8673.0 0.0001153 8604.01465 8612.36621
8640.0 0.0001157 8602.73340 8610.65430
8570.0 0.0001167 8601.45117 8609.06055
8629.0 0.0001159 8600.16895 8607.55664
8618.0 0.0001160 8598.88574 8606.12598
8550.0 0.0001170 8597.60254 8604.75977
8449.0 0.0001184 8596.31836 8603.68359
8457.0 0.0001182 8595.03418 8602.43457
8510.0 0.0001175 8593.74902 8601.23926
8560.0 0.0001168 8592.46387 8600.10059
8700.0 0.0001149 8591.17871 8599.01953
8714.0 0.0001148 8589.89258 8598.00098
8666.0 0.0001154 8588.60645 8597.05371
8586.0 0.0001165 8587.31934 8596.18945
8503.0 0.0001176 8586.03125 8595.41992
8569.0 0.0001167 8584.74316 8594.77051
8724.0 0.0001146 8583.45508 8594.26758
8762.0 0.0001141 8582.16699 8593.94922
8476.0 0.0001180 8580.87695 8593.87012
8597.0 0.0001163 8579.58789 8594.11816
8617.0 0.0001160 8578.29688 8594.84375
8541.0 0.0001171 8577.00684 8596.39453
8598.0 0.0001163 8575.71484 8599.60156
8682.0 0.0001152 8574.42383 8606.43066
8576.0 0.0001166 8573.13086 8620.80371
8711.0 0.0001148 8571.83887 8648.90918
8659.0 0.0001155 8570.54590 8697.41602
8644.0 0.0001157 8569.25195 8768.75586
8833.0 0.0001132 8567.95801 8854.68945
8850.0 0.0001130 8566.66309 8930.73340
8978.0 0.0001114 8565.36816 8958.87012
8956.0 0.0001117 8564.07227 8918.52539
8730.0 0.0001145 8562.77637 8837.24121
8712.0 0.0001148 8561.47949 8751.08496
8671.0 0.0001153 8560.18262 8681.83691
8573.0 0.0001166 8558.88477 8635.72168
8809.0 0.0001135 8557.58691 8609.29590
8788.0 0.0001138 8556.28809 8595.79297
8642.0 0.0001157 8554.98828 8589.42383
8699.0 0.0001150 8553.68945 8586.73535
8582.0 0.0001165 8552.38867 8586.17480
8611.0 0.0001161 8551.08887 8587.34473
8605.0 0.0001162 8549.78809 8590.62305
8679.0 0.0001152 8548.48535 8597.44629
8655.0 0.0001155 8547.18359 8611.23242
8767.0 0.0001141 8545.88086 8638.70703
8727.0 0.0001146 8544.57813 8690.42480
8593.0 0.0001164 8543.27344 8778.41504
8931.0 0.0001120 8541.96973 8908.75684
9073.0 0.0001102 8540.66504 9071.90430
9270.0 0.0001079 8539.35938 9231.48535
9559.0 0.0001046 8538.05469 9321.46484
9408.0 0.0001063 8536.74805 9284.11523
9257.0 0.0001080 8535.44141 9144.43848
8926.0 0.0001120 8534.13379 8973.65430
8808.0 0.0001135 8532.82617 8822.96973
8778.0 0.0001139 8531.51758 8712.94141
8668.0 0.0001154 8530.20898 8643.26367
8526.0 0.0001173 8528.89844 8603.30273
8602.0 0.0001163 8527.58887 8581.31055
8517.0 0.0001174 8526.27930 8568.82031
8665.0 0.0001154 8524.96777 8560.97168
8521.0 0.0001174 8523.65625 8555.50293
8648.0 0.0001156 8522.34375 8551.45898
8598.0 0.0001163 8521.03125 8548.45996
8597.0 0.0001163 8519.71777 8546.37012
8506.0 0.0001176 8518.40430 8545.33887
8568.0 0.0001167 8517.09082 8545.59082
8633.0 0.0001158 8515.77539 8548.30078
8497.0 0.0001177 8514.46094 8555.92676
8575.0 0.0001166 8513.14453 8572.84863
8622.0 0.0001160 8511.82910 8604.88965
8615.0 0.0001161 8510.51172 8656.54199
8642.0 0.0001157 8509.19434 8726.07324
8898.0 0.0001124 8507.87598 8800.14941
8860.0 0.0001129 8506.55762 8850.68848
8892.0 0.0001125 8505.23926 8847.04785
8712.0 0.0001148 8503.91992 8790.59473
8722.0 0.0001147 8502.59961 8712.78418
8688.0 0.0001151 8501.27930 8640.83203
8515.0 0.0001174 8499.95801 8587.07715
8526.0 0.0001173 8498.63574 8552.69238
8541.0 0.0001171 8497.31445 8532.93750
8321.0 0.0001202 8495.99121 8521.99707
8353.0 0.0001197 8494.66797 8515.57422
8448.0 0.0001184 8493.34473 8511.26563
8504.0 0.0001176 8492.01953 8507.97363
8369.0 0.0001195 8490.69531 8504.87207
8585.0 0.0001165 8489.37012 8502.51172
8424.0 0.0001187 8488.04395 8500.41113
8699.0 0.0001150 8486.71680 8498.51660
8473.0 0.0001180 8485.39063 8496.79395
8499.0 0.0001177 8484.06348 8495.20801
8613.0 0.0001161 8482.73438 8493.74316
8518.0 0.0001174 8481.40625 8492.39063
8466.0 0.0001181 8480.07715 8491.14160
8602.0 0.0001163 8478.74707 8489.99414
8670.0 0.0001153 8477.41699 8488.94922
8523.0 0.0001173 8476.08594 8488.00977
8607.0 0.0001162 8474.75488 8487.18652
8437.0 0.0001185 8473.42285 8486.48730
8570.0 0.0001167 8472.09082 8485.93457
8394.0 0.0001191 8470.75781 8485.54492
8567.0 0.0001167 8469.42480 8485.35254
8514.0 0.0001175 8468.08984 8485.39551
8424.0 0.0001187 8466.75586 8485.72461
8492.0 0.0001178 8465.42090 8486.41406
8575.0 0.0001166 8464.08496 8487.55078
8614.0 0.0001161 8462.74902 8489.27539
8477.0 0.0001180 8461.41211 8491.78320
8492.0 0.0001178 8460.07520 8495.41992
8539.0 0.0001171 8458.73730 8500.86719
8611.0 0.0001161 8457.39844 8509.60254
8524.0 0.0001173 8456.05957 8524.76855
8631.0 0.0001159 8454.72070 8552.28320
8450.0 0.0001183 8453.37988 8601.45117
8646.0 0.0001157 8452.04004 8683.37109
8664.0 0.0001154 8450.69922 8805.85547
8943.0 0.0001118 8449.35742 8965.29395
9219.0 0.0001085 8448.01563 9137.01270
9209.0 0.0001086 8446.67188 9266.79980
9197.0 0.0001087 8445.32910 9288.06250
9050.0 0.0001105 8443.98535 9193.07617
9390.0 0.0001065 8442.64160 9043.09668
8893.0 0.0001124 8441.29590 8900.14648
8755.0 0.0001142 8439.95117 8794.05469
8745.0 0.0001144 8438.60547 8727.57422
8688.0 0.0001151 8437.25879 8689.16504
8646.0 0.0001157 8435.91211 8668.31641
8527.0 0.0001173 8434.56348 8658.00293
8763.0 0.0001141 8433.21582 8648.00000
8721.0 0.0001147 8431.86719 8626.86230
8621.0 0.0001160 8430.51758 8593.06543
8530.0 0.0001172 8429.16797 8555.21289
8487.0 0.0001178 8427.81836 8521.19629
8499.0 0.0001177 8426.46777 8494.51465
8487.0 0.0001178 8425.11523 8475.56934
8537.0 0.0001171 8423.76367 8463.08789
8494.0 0.0001177 8422.41113 8455.25098
8318.0 0.0001202 8421.05859 8450.48926
8599.0 0.0001163 8419.70410 8447.84766
8476.0 0.0001180 8418.35059 8447.01758
8472.0 0.0001180 8416.99609 8448.31641
8415.0 0.0001188 8415.64063 8452.70020
8367.0 0.0001195 8414.28516 8461.58691
8604.0 0.0001162 8412.92871 8475.87012
8440.0 0.0001185 8411.57227 8495.77441
8452.0 0.0001183 8410.21387 8518.79395
8621.0 0.0001160 8408.85645 8536.99316
8629.0 0.0001159 8407.49805 8541.37402
8439.0 0.0001185 8406.13867 8527.95215
8580.0 0.0001166 8404.77930 8503.45703
8335.0 0.0001200 8403.41895 8477.04688
8498.0 0.0001177 8402.05859 8454.21680
8309.0 0.0001204 8400.69727 8436.89160
8287.0 0.0001207 8399.33496 8424.83887
8472.0 0.0001180 8397.97266 8417.01855
8417.0 0.0001188 8396.61035 8411.63379
8398.0 0.0001191 8395.24609 8407.78125
8435.0 0.0001186 8393.88184 8404.76758
8645.0 0.0001157 8392.51758 8402.22168
8515.0 0.0001174 8391.15234 8399.94727
8543.0 0.0001171 8389.78711 8397.85254
8226.0 0.0001216 8388.41992 8395.88965
8499.0 0.0001177 8387.05371 8394.03027
8352.0 0.0001197 8385.68555 8392.24414
8429.0 0.0001186 8384.31738 8390.52930
8488.0 0.0001178 8382.94922 8388.86426
8396.0 0.0001191 8381.58008 8387.24609
8406.0 0.0001190 8380.21094 8385.66406
8481.0 0.0001179 8378.83984 8384.11328
8250.0 0.0001212 8377.46875 8382.59570
8277.0 0.0001208 8376.09766 8381.09961
8377.0 0.0001194 8374.72559 8379.62695
8367.0 0.0001195 8373.35254 8378.17383
8318.0 0.0001202 8371.97949 8376.74219
8317.0 0.0001202 8370.60645 8375.32715
8467.0 0.0001181 8369.23145 8373.92773
8281.0 0.0001208 8367.85645 8372.54688
8420.0 0.0001188 8366.48047 8371.18066
8511.0 0.0001175 8365.10547 8369.83594
8496.0 0.0001177 8363.72754 8368.50195
8198.0 0.0001220 8362.35059 8367.18555
8330.0 0.0001200 8360.97266 8365.89063
8362.0 0.0001196 8359.59473 8364.61426
8365.0 0.0001195 8358.21582 8363.46387
8311.0 0.0001203 8356.83594 8362.23145
8310.0 0.0001203 8355.45508 8361.55176
8186.0 0.0001222 8354.07422 8360.38477
8360.0 0.0001196 8352.69336 8359.24805
8388.0 0.0001192 8351.31055 8358.14551
8254.0 0.0001212 8349.92773 8357.08203
8319.0 0.0001202 8348.54492 8356.06348
8358.0 0.0001196 8347.16113 8355.09277
8314.0 0.0001203 8345.77637 8354.18066
8309.0 0.0001204 8344.39063 8353.33691
8340.0 0.0001199 8343.00488 8352.57617
8371.0 0.0001195 8341.61816 8351.90820
8328.0 0.0001201 8340.23145 8351.36035
8395.0 0.0001191 8338.84375 8350.95117
8340.0 0.0001199 8337.45605 8350.71777
8275.0 0.0001208 8336.06641 8350.69531
8321.0 0.0001202 8334.67676 8350.94434
8453.0 0.0001183 8333.28711 8351.54102
8145.0 0.0001228 8331.89551 8352.58691
8383.0 0.0001193 8330.50391 8354.25000
8358.0 0.0001196 8329.11230 8356.81055
8436.0 0.0001185 8327.71875 8360.85059
8343.0 0.0001199 8326.32520 8367.66504
8274.0 0.0001209 8324.93164 8380.02246
8340.0 0.0001199 8323.53711 8403.15430
8485.0 0.0001179 8322.14063 8445.17480
8441.0 0.0001185 8320.74512 8515.47070
8644.0 0.0001157 8319.34766 8619.93848
8816.0 0.0001134 8317.95020 8753.17773
8883.0 0.0001126 8316.55176 8892.62891
9022.0 0.0001108 8315.15332 8989.36816
8990.0 0.0001112 8313.75391 8991.11328
8971.0 0.0001115 8312.35352 8898.44336
8863.0 0.0001128 8310.95313 8764.02734
8723.0 0.0001146 8309.55078 8634.02539
8563.0 0.0001168 8308.14844 8529.54395
8461.0 0.0001182 8306.74512 8454.90137
8427.0 0.0001187 8305.34180 8407.06348
8515.0 0.0001174 8303.93652 8377.09570
8568.0 0.0001167 8302.53223 8358.94922
8440.0 0.0001185 8301.12598 8347.80566
8311.0 0.0001203 8299.71875 8340.83496
8407.0 0.0001189 8298.31152 8336.52734
8409.0 0.0001189 8296.90332 8334.20410
8326.0 0.0001201 8295.49512 8333.85156
8263.0 0.0001210 8294.08496 8336.19043
8272.0 0.0001209 8292.67480 8342.82324
8274.0 0.0001209 8291.26270 8356.75781
8450.0 0.0001183 8289.85156 8381.32813
8482.0 0.0001179 8288.43945 8419.12598
8611.0 0.0001161 8287.02539 8469.48340
8528.0 0.0001173 8285.61133 8525.53711
8526.0 0.0001173 8284.19629 8571.19824
8530.0 0.0001172 8282.78027 8584.17480
8451.0 0.0001183 8281.36328 8555.91504
8493.0 0.0001177 8279.94629 8502.82910
8413.0 0.0001189 8278.52832 8446.44531
8281.0 0.0001208 8277.10840 8399.41406
8238.0 0.0001214 8275.68945 8366.18359
8505.0 0.0001176 8274.26855 8346.23145
8253.0 0.0001212 8272.84668 8337.05859
8311.0 0.0001203 8271.42383 8336.72266
8281.0 0.0001208 8270.00098 8345.73145
8427.0 0.0001187 8268.57715 8368.26855
8403.0 0.0001190 8267.15234 8412.56250
8475.0 0.0001180 8265.72656 8489.18359
8559.0 0.0001168 8264.29980 8605.71973
8579.0 0.0001166 8262.87305 8757.55664
8917.0 0.0001121 8261.44434 8918.12695
8978.0 0.0001114 8260.01563 9036.30078
9025.0 0.0001108 8258.58496 9053.54297
9132.0 0.0001095 8257.15430 8954.44922
8752.0 0.0001143 8255.72168 8790.95801
8918.0 0.0001121 8254.28906 8625.29297
8602.0 0.0001163 8252.85547 8492.33887
8478.0 0.0001180 8251.42090 8400.98926
8248.0 0.0001212 8249.98535 8345.70801
8380.0 0.0001193 8248.54883 8314.35742
8424.0 0.0001187 8247.11133 8296.73730
8237.0 0.0001214 8245.67285 8286.04297
8273.0 0.0001209 8244.23438 8278.70801
8287.0 0.0001207 8242.79395 8273.11523
8425.0 0.0001187 8241.35254 8268.55859
8220.0 0.0001217 8239.91016 8264.71289
8337.0 0.0001199 8238.46680 8261.39453
8069.0 0.0001239 8237.02246 8258.48730
8310.0 0.0001203 8235.57715 8255.91016
8152.0 0.0001227 8234.13086 8253.60254
8228.0 0.0001215 8232.68359 8251.52637
8265.0 0.0001210 8231.23535 8249.65137
8397.0 0.0001191 8229.78613 8248.08594
8272.0 0.0001209 8228.33594 8246.55957
8089.0 0.0001236 8226.88477 8245.19043
8164.0 0.0001225 8225.43164 8243.97559
8107.0 0.0001234 8223.97852 8242.91699
8403.0 0.0001190 8222.52441 8242.02441
8208.0 0.0001218 8221.06836 8241.30762
8284.0 0.0001207 8219.61133 8240.79004
8245.0 0.0001213 8218.15430 8240.49219
8296.0 0.0001205 8216.69531 8240.45410
8240.0 0.0001214 8215.23535 8240.13379
8069.0 0.0001239 8213.77441 8240.78223
8251.0 0.0001212 8212.31152 8241.88477
8117.0 0.0001232 8210.84863 8243.57617
8128.0 0.0001230 8209.38379 8246.04004
8201.0 0.0001219 8207.91797 8249.71387
8252.0 0.0001212 8206.45117 8255.26953
8388.0 0.0001192 8204.98340 8263.91699
8166.0 0.0001225 8203.51465 8277.55859
8206.0 0.0001219 8202.04395 8298.73242
8232.0 0.0001215 8200.57227 8330.22461
8331.0 0.0001200 8199.09863 8374.44238
8410.0 0.0001189 8197.62500 8432.87402
8473.0 0.0001180 8196.14941 8505.43457
8577.0 0.0001166 8194.67383 8590.31934
8673.0 0.0001153 8193.19629 8689.64551
8761.0 0.0001141 8191.71680 8817.70605
8907.0 0.0001123 8190.23682 8988.49121
9286.0 0.0001077 8188.75488 9190.41211
9397.0 0.0001064 8187.27246 9369.60840
9657.0 0.0001036 8185.78809 9435.76172
9292.0 0.0001076 8184.30273 9334.43262
9133.0 0.0001095 8182.81592 9115.42969
8800.0 0.0001136 8181.32813 8868.59863
8569.0 0.0001167 8179.83887 8652.68848
8386.0 0.0001192 8178.34766 8490.64746
8313.0 0.0001203 8176.85596 8382.26172
8218.0 0.0001217 8175.36230 8315.62305
8303.0 0.0001204 8173.86816 8276.35840
8251.0 0.0001212 8172.37158 8252.99121
8207.0 0.0001218 8170.87402 8238.42285
8161.0 0.0001225 8169.37549 8228.75684
8298.0 0.0001205 8167.87500 8222.24316
8317.0 0.0001202 8166.37354 8217.85059
8125.0 0.0001231 8164.87012 8214.63867
8193.0 0.0001221 8163.36572 8211.43652
8349.0 0.0001198 8161.85938 8206.98340
8116.0 0.0001232 8160.35205 8201.68555
8172.0 0.0001224 8158.84277 8196.22363
8046.0 0.0001243 8157.33252 8191.36084
8185.0 0.0001222 8155.82080 8187.45605
8244.0 0.0001213 8154.30713 8184.56201
8182.0 0.0001222 8152.79248 8182.57861
8067.0 0.0001240 8151.27539 8181.36621
8149.0 0.0001227 8149.75781 8180.84326
8276.0 0.0001208 8148.23779 8181.00830
8255.0 0.0001211 8146.71680 8181.96533
8130.0 0.0001230 8145.19385 8183.96289
8277.0 0.0001208 8143.66992 8187.51367
8249.0 0.0001212 8142.14404 8193.68457
8194.0 0.0001220 8140.61621 8204.60059
8213.0 0.0001218 8139.08789 8223.62891
8468.0 0.0001181 8137.55664 8257.65332
8369.0 0.0001195 8136.02441 8313.68555
8644.0 0.0001157 8134.49023 8398.37891
8583.0 0.0001165 8132.95508 8513.13379
8550.0 0.0001170 8131.41797 8647.91699
8974.0 0.0001114 8129.87842 8774.73438
8910.0 0.0001122 8128.33838 8850.08398
8894.0 0.0001124 8126.79541 8839.22949
9028.0 0.0001108 8125.25195 8745.41211
8749.0 0.0001143 8123.70605 8608.96191
8528.0 0.0001173 8122.15869 8472.74414
8292.0 0.0001206 8120.60938 8360.50293
8298.0 0.0001205 8119.05859 8278.96484
8346.0 0.0001198 8117.50586 8224.94434
8078.0 0.0001238 8115.95117 8191.16895
8076.0 0.0001238 8114.39502 8170.31348
8087.0 0.0001237 8112.83691 8156.90869
8115.0 0.0001232 8111.27734 8147.58057
8102.0 0.0001234 8109.71533 8140.50293
8183.0 0.0001222 8108.15186 8134.76465
8131.0 0.0001230 8106.58643 8129.89990
8103.0 0.0001234 8105.01904 8125.65674
8099.0 0.0001235 8103.45068 8121.88135
8185.0 0.0001222 8101.87939 8118.46826
8134.0 0.0001229 8100.30664 8115.34033
8040.0 0.0001244 8098.73145 8112.43945
8054.0 0.0001242 8097.15527 8109.72705
8041.0 0.0001244 8095.57617 8108.46240
8056.0 0.0001241 8093.99609 8106.06836
8132.0 0.0001230 8092.41406 8103.78076
8020.0 0.0001247 8090.82959 8101.58398
8200.0 0.0001220 8089.24316 8099.46533
8111.0 0.0001233 8087.65479 8097.41650
8076.0 0.0001238 8086.06494 8095.42725
8246.0 0.0001213 8084.47217 8093.48975
8081.0 0.0001237 8082.87793 8091.59863
8080.0 0.0001238 8081.28174 8089.75244
8082.0 0.0001237 8079.68359 8087.94482
8120.0 0.0001232 8078.08350 8086.17383
7996.0 0.0001251 8076.48047 8084.43799
8044.0 0.0001243 8074.87646 8082.73730
8035.0 0.0001245 8073.26953 8081.07080
8128.0 0.0001230 8071.66113 8079.43994
7942.0 0.0001259 8070.05029 8077.84766
8060.0 0.0001241 8068.43799 8076.29541
7995.0 0.0001251 8066.82275 8074.61670
7953.0 0.0001257 8065.20605 8073.16504
8029.0 0.0001245 8063.58691 8071.77344
8124.0 0.0001231 8061.96533 8070.45557
8093.0 0.0001236 8060.34229 8069.23389
8131.0 0.0001230 8058.71631 8068.14209
8109.0 0.0001233 8057.08887 8066.38867
8200.0 0.0001220 8055.45801 8065.85791
8063.0 0.0001240 8053.82617 8065.94629
8084.0 0.0001237 8052.19238 8067.19971
8078.0 0.0001238 8050.55518 8070.41846
8114.0 0.0001232 8048.91650 8076.59863
8147.0 0.0001227 8047.27539 8087.73486
8201.0 0.0001219 8045.63232 8101.50537
7945.0 0.0001259 8043.98633 8117.48828
8094.0 0.0001235 8042.33887 8131.63525
8188.0 0.0001221 8040.68799 8137.53662
8173.0 0.0001224 8039.03613 8130.98730
8153.0 0.0001227 8037.38135 8116.44238
8135.0 0.0001229 8035.72412 8097.70410
7947.0 0.0001258 8034.06494 8080.68066
8111.0 0.0001233 8032.40283 8067.32568
8054.0 0.0001242 8030.73926 8057.86475
8051.0 0.0001242 8029.07275 8051.57422
7900.0 0.0001266 8027.40381 8047.47070
8006.0 0.0001249 8025.73242 8044.70361
7943.0 0.0001259 8024.05908 8042.70947
8011.0 0.0001248 8022.38379 8041.18262
7928.0 0.0001261 8020.70508 8039.97412
8149.0 0.0001227 8019.02490 8039.03076
7988.0 0.0001252 8017.34131 8038.34619
8095.0 0.0001235 8015.65625 8037.94678
7985.0 0.0001252 8013.96777 8037.89404
8121.0 0.0001231 8012.27783 8038.29785
7942.0 0.0001259 8010.58496 8039.28711
8105.0 0.0001234 8008.88965 8040.99902
8028.0 0.0001246 8007.19189 8043.50146
8032.0 0.0001245 8005.49121 8046.73828
8019.0 0.0001247 8003.78906 8050.51172
8090.0 0.0001236 8002.08350 8055.11377
8019.0 0.0001247 8000.37598 8060.10107
8247.0 0.0001213 7998.66504 8067.30127
8042.0 0.0001243 7996.95264 8079.24316
8238.0 0.0001214 7995.23779 8100.75049
8245.0 0.0001213 7993.51953 8140.73193
8136.0 0.0001229 7991.79932 8214.44141
8369.0 0.0001195 7990.07617 8341.65039
8415.0 0.0001188 7988.35107 8538.58887
8848.0 0.0001130 7986.62256 8805.26172
9109.0 0.0001098 7984.89209 9109.03223
9398.0 0.0001064 7983.15869 9369.40039
9757.0 0.0001025 7981.42334 9467.78516
9765.0 0.0001024 7979.68506 9343.22168
9279.0 0.0001078 7977.94385 9069.60645
8949.0 0.0001117 7976.20020 8764.11328
8594.0 0.0001164 7974.45410 8501.48633
8458.0 0.0001182 7972.70508 8309.84082
8231.0 0.0001215 7970.95361 8186.55664
8087.0 0.0001237 7969.19971 8114.16113
8244.0 0.0001213 7967.44336 8073.33740
7934.0 0.0001260 7965.68359 8049.66309
8086.0 0.0001237 7963.92139 8034.65283
7992.0 0.0001251 7962.15674 8024.08154
8095.0 0.0001235 7960.38965 8015.99805
7900.0 0.0001266 7958.61914 8009.53467
8041.0 0.0001244 7956.84668 8004.24707
7940.0 0.0001259 7955.07080 7999.86621
8248.0 0.0001212 7953.29297 7996.22168
8033.0 0.0001245 7951.51221 7993.19141
7856.0 0.0001273 7949.72852 7990.68945
7828.0 0.0001277 7947.94238 7988.66260
8013.0 0.0001248 7946.15332 7987.07227
7987.0 0.0001252 7944.36182 7985.90430
7894.0 0.0001267 7942.56689 7985.15479
8091.0 0.0001236 7940.77002 7984.83838
8168.0 0.0001224 7938.96973 7984.98389
7898.0 0.0001266 7937.16748 7985.63770
7920.0 0.0001263 7935.36279 7986.86572
7856.0 0.0001273 7933.55420 7988.75439
7991.0 0.0001251 7931.74365 7991.42480
7913.0 0.0001264 7929.92969 7995.03711
8012.0 0.0001248 7928.11377 7999.81006
7965.0 0.0001255 7926.29395 8006.04883
8049.0 0.0001242 7924.47266 8014.21973
7917.0 0.0001263 7922.64844 8025.10742
7930.0 0.0001261 7920.82031 8040.17773
8046.0 0.0001243 7918.99072 8062.28125
8107.0 0.0001234 7917.15723 8096.72412
8097.0 0.0001235 7915.32178 8152.42969
8185.0 0.0001222 7913.48291 8242.19922
8274.0 0.0001209 7911.64209 8380.73242
8424.0 0.0001187 7909.79785 8579.57617
8674.0 0.0001153 7907.95117 8839.72559
9053.0 0.0001105 7906.10156 9142.52344
9466.0 0.0001056 7904.24902 9438.72559
9453.0 0.0001058 7902.39404 9654.28516
9841.0 0.0001016 7900.53564 9755.98633
9740.0 0.0001027 7898.67529 9804.59668
9894.0 0.0001011 7896.81104 9879.45801
9872.0 0.0001013 7894.94531 9989.94629
10151.0 0.0000985 7893.07568 10054.92969
9967.0 0.0001003 7891.20410 9953.33594
9626.0 0.0001039 7889.32959 9658.66211
9197.0 0.0001087 7887.45166 9269.44043
8919.0 0.0001121 7885.57129 8892.09766
8525.0 0.0001173 7883.68799 8583.32617
8401.0 0.0001190 7881.80225 8359.08496
8273.0 0.0001209 7879.91309 8210.85254
8060.0 0.0001241 7878.02148 8119.11670
8024.0 0.0001246 7876.12744 8063.83984
7990.0 0.0001252 7874.22998 8029.96094
8156.0 0.0001226 7872.33057 8008.31006
7911.0 0.0001264 7870.42725 7994.20947
8037.0 0.0001244 7868.52197 7985.81396
7998.0 0.0001250 7866.61328 7983.48779
7829.0 0.0001277 7864.70264 7988.13916
8029.0 0.0001245 7862.78809 8003.26611
8059.0 0.0001241 7860.87158 8033.36572
8074.0 0.0001239 7858.95264 8082.94238
8069.0 0.0001239 7857.03027 8153.83594
8142.0 0.0001228 7855.10498 8241.66211
8354.0 0.0001197 7853.17725 8331.73340
8369.0 0.0001195 7851.24658 8394.38379
8419.0 0.0001188 7849.31299 8397.30566
8506.0 0.0001176 7847.37744 8336.17188
8073.0 0.0001239 7845.43799 8240.20313
8111.0 0.0001233 7843.49658 8140.91797
8094.0 0.0001235 7841.55225 8056.05811
7932.0 0.0001261 7839.60498 7991.83643
7939.0 0.0001260 7837.65527 7947.50391
7884.0 0.0001268 7835.70215 7918.95557
7876.0 0.0001270 7833.74756 7901.50732
7869.0 0.0001271 7831.78857 7891.47607
7857.0 0.0001273 7829.82813 7886.59473
7849.0 0.0001274 7827.86523 7884.68164
7599.0 0.0001316 7825.89844 7886.56396
7816.0 0.0001279 7823.92969 7889.91455
7877.0 0.0001270 7821.95752 7892.34375
8007.0 0.0001249 7819.98340 7890.87451
7913.0 0.0001264 7818.00586 7884.46631
7932.0 0.0001261 7816.02686 7875.41016
7875.0 0.0001270 7814.04395 7866.75342
7921.0 0.0001262 7812.05908 7860.19043
7883.0 0.0001269 7810.07178 7856.13916
7724.0 0.0001295 7808.08057 7852.78125
7686.0 0.0001301 7806.08789 7848.45898
7709.0 0.0001297 7804.09180 7842.24023
7856.0 0.0001273 7802.09375 7834.81396
8026.0 0.0001246 7800.09229 7827.49023
7813.0 0.0001280 7798.08887 7821.02490
7911.0 0.0001264 7796.08252 7815.66650
7807.0 0.0001281 7794.07373 7811.33057
7744.0 0.0001291 7792.06250 7807.76904
7746.0 0.0001291 7790.04834 7804.72412
7803.0 0.0001282 7788.03174 7801.99268
7899.0 0.0001266 7786.01221 7799.44922
7814.0 0.0001280 7783.99072 7797.03223
7805.0 0.0001281 7781.96582 7794.70508
7808.0 0.0001281 7779.93945 7792.45459
7885.0 0.0001268 7777.91016 7790.27295
7644.0 0.0001308 7775.87793 7788.15527
7791.0 0.0001284 7773.84424 7786.10303
7845.0 0.0001275 7771.80664 7784.11523
7841.0 0.0001275 7769.76758 7782.20020
7817.0 0.0001279 7767.72510 7780.35986
7778.0 0.0001286 7765.68115 7778.60498
7686.0 0.0001301 7763.63379 7776.95068
7801.0 0.0001282 7761.58496 7775.41113
7785.0 0.0001285 7759.53369 7774.01172
7806.0 0.0001281 7757.47900 7772.78223
7727.0 0.0001294 7755.42285 7771.76611
7762.0 0.0001288 7753.36328 7771.02637
7781.0 0.0001285 7751.30225 7770.66650
7760.0 0.0001289 7749.23779 7770.87451
7778.0 0.0001286 7747.17236 7772.05029
7702.0 0.0001298 7745.10352 7775.05225
7574.0 0.0001320 7743.03271 7781.60791
7864.0 0.0001272 7740.95996 7794.73047
7840.0 0.0001276 7738.88428 7817.51123
7930.0 0.0001261 7736.80664 7856.77441
7900.0 0.0001266 7734.72656 7913.39648
8150.0 0.0001227 7732.64453 7983.70605
8000.0 0.0001250 7730.55957 8054.60791
8183.0 0.0001222 7728.47266 8101.45801
8175.0 0.0001223 7726.38428 8097.50635
8122.0 0.0001231 7724.29248 8046.07715
8015.0 0.0001248 7722.19922 7971.63672
7951.0 0.0001258 7720.10352 7898.51904
7971.0 0.0001255 7718.00586 7839.46973
7694.0 0.0001300 7715.90527 7797.95117
7705.0 0.0001298 7713.80371 7771.78027
7762.0 0.0001288 7711.69873 7756.53223
7747.0 0.0001291 7709.59277 7748.01270
7697.0 0.0001299 7707.48486 7743.35059
7666.0 0.0001304 7705.37402 7741.13818
7796.0 0.0001283 7703.26172 7741.21826
7738.0 0.0001292 7701.14648 7744.54102
7727.0 0.0001294 7699.03027 7753.25098
7836.0 0.0001276 7696.91113 7770.71826
7743.0 0.0001291 7694.79053 7800.99170
7649.0 0.0001307 7692.66748 7847.18555
7912.0 0.0001264 7690.54297 7908.88086
7835.0 0.0001276 7688.41699 7979.01123
8095.0 0.0001235 7686.28809 8040.49561
8319.0 0.0001202 7684.15771 8067.38623
8225.0 0.0001216 7682.02490 8043.45313
7977.0 0.0001254 7679.89111 7981.14404
8043.0 0.0001243 7677.75488 7907.75537
7959.0 0.0001256 7675.61719 7841.78271
7755.0 0.0001289 7673.47803 7792.08838
7802.0 0.0001282 7671.33594 7760.65430
7774.0 0.0001286 7669.19287 7745.50879
7802.0 0.0001282 7667.04736 7742.84131
7717.0 0.0001296 7664.90088 7748.06543
7812.0 0.0001280 7662.75195 7755.80371
7803.0 0.0001282 7660.60156 7759.79297
7787.0 0.0001284 7658.44971 7755.71094
7782.0 0.0001285 7656.29639 7745.68066
7714.0 0.0001296 7654.14111 7736.20605
7758.0 0.0001289 7651.98389 7733.81055
7719.0 0.0001296 7649.82568 7744.16650
7824.0 0.0001278 7647.66504 7771.95361
7889.0 0.0001268 7645.50391 7819.84082
7799.0 0.0001282 7643.33984 7885.99268
8092.0 0.0001236 7641.17578 7961.16406
8028.0 0.0001246 7639.00879 8025.20996
8150.0 0.0001227 7636.84131 8049.34766
8040.0 0.0001244 7634.67236 8017.90479
7914.0 0.0001264 7632.50098 7947.07910
7888.0 0.0001268 7630.32959 7865.35205
7632.0 0.0001310 7628.15527 7792.02637
7833.0 0.0001277 7625.98096 7735.32910
7772.0 0.0001287 7623.80371 7695.96826
7620.0 0.0001312 7621.62646 7670.58691
7649.0 0.0001307 7619.44824 7654.94727
7621.0 0.0001312 7617.26709 7644.63965
7590.0 0.0001318 7615.08594 7637.38379
7480.0 0.0001337 7612.90283 7631.74316
7647.0 0.0001308 7610.71924 7627.00439
7535.0 0.0001327 7608.53320 7622.81982
7707.0 0.0001298 7606.34717 7619.01807
7497.0 0.0001334 7604.15918 7615.49756
7706.0 0.0001298 7601.97070 7612.19678
7688.0 0.0001301 7599.78076 7609.06689
7592.0 0.0001317 7597.58936 7606.07520
7546.0 0.0001325 7595.39746 7603.19531
7727.0 0.0001294 7593.20410 7600.40869
7683.0 0.0001302 7591.01025 7597.69629
7473.0 0.0001338 7588.81445 7595.04785
7467.0 0.0001339 7586.61865 7592.45361
7552.0 0.0001324 7584.42090 7589.90332
7673.0 0.0001303 7582.22314 7587.39453
7632.0 0.0001310 7580.02441 7584.91797
7567.0 0.0001322 7577.82373 7582.47021
7628.0 0.0001311 7575.62354 7580.04980
7619.0 0.0001313 7573.42090 7577.65039
7542.0 0.0001326 7571.21875 7575.27148
7605.0 0.0001315 7569.01514 7572.91016
7628.0 0.0001311 7566.81152 7570.56592
7526.0 0.0001329 7564.60693 7568.23584
7526.0 0.0001329 7562.40039 7565.91797
7570.0 0.0001321 7560.19482 7563.61523
7505.0 0.0001332 7557.98682 7561.32129
7539.0 0.0001326 7555.77979 7559.04053
7594.0 0.0001317 7553.57080 7556.76709
7502.0 0.0001333 7551.36230 7554.50732
7421.0 0.0001348 7549.15186 7552.25391
7464.0 0.0001340 7546.94238 7550.01172
7669.0 0.0001304 7544.73193 7547.77881
7472.0 0.0001338 7542.52002 7545.55566
7444.0 0.0001343 7540.30859 7543.34180
7383.0 0.0001354 7538.09619 7541.38623
7428.0 0.0001346 7535.88379 7539.19824
7458.0 0.0001341 7533.67041 7537.02246
7454.0 0.0001342 7531.45703 7534.85889
7642.0 0.0001309 7529.24268 7532.70898
7647.0 0.0001308 7527.02881 7530.37891
7578.0 0.0001320 7524.81445 7528.26465
7495.0 0.0001334 7522.59912 7526.16943
7540.0 0.0001326 7520.38428 7524.09668
7579.0 0.0001319 7518.16846 7522.04639
7474.0 0.0001338 7515.95313 7520.02637
7486.0 0.0001336 7513.73682 7518.03809
7471.0 0.0001339 7511.52100 7516.08984
7505.0 0.0001332 7509.30469 7514.18799
7595.0 0.0001317 7507.08789 7512.34277
7567.0 0.0001322 7504.87207 7510.57568
7574.0 0.0001320 7502.65479 7508.60400
7607.0 0.0001315 7500.43848 7507.02637
7478.0 0.0001337 7498.22119 7505.64600
7518.0 0.0001330 7496.00488 7504.37549
7391.0 0.0001353 7493.78760 7503.33643
7534.0 0.0001327 7491.57129 7502.63037
7344.0 0.0001362 7489.35498 7502.45166
7409.0 0.0001350 7487.13770 7503.22656
7495.0 0.0001334 7484.92139 7505.87744
7651.0 0.0001307 7482.70459 7512.19580
7559.0 0.0001323 7480.48877 7525.18896
7671.0 0.0001304 7478.27197 7548.68018
7556.0 0.0001323 7476.05664 7586.17969
7471.0 0.0001339 7473.84033 7638.22656
7644.0 0.0001308 7471.62549 7699.40527
7805.0 0.0001281 7469.41064 7755.44580
7913.0 0.0001264 7467.19531 7783.50391
7881.0 0.0001269 7464.98096 7766.68408
7732.0 0.0001293 7462.76611 7713.64404
7737.0 0.0001292 7460.55273 7647.75635
7583.0 0.0001319 7458.33887 7586.92432
7489.0 0.0001335 7456.12598 7539.51660
7534.0 0.0001327 7453.91357 7506.49609
7480.0 0.0001337 7451.70068 7485.79785
7461.0 0.0001340 7449.48926 7473.12500
7519.0 0.0001330 7447.27783 7465.09082
7391.0 0.0001353 7445.06738 7459.48047
7654.0 0.0001307 7442.85645 7455.07910
7507.0 0.0001332 7440.64746 7451.28320
7351.0 0.0001360 7438.43750 7447.80615
7401.0 0.0001351 7436.22949 7444.53320
7431.0 0.0001346 7434.02197 7441.42725
7311.0 0.0001368 7431.81445 7438.51660
7451.0 0.0001342 7429.60840 7436.14746
7507.0 0.0001332 7427.40186 7433.45313
7470.0 0.0001339 7425.19727 7430.85547
7431.0 0.0001346 7422.99219 7428.33496
7322.0 0.0001366 7420.78906 7425.87842
7334.0 0.0001364 7418.58594 7423.47266
7414.0 0.0001349 7416.38428 7421.11084
7489.0 0.0001335 7414.18359 7418.78613
7439.0 0.0001344 7411.98291 7416.49121
7454.0 0.0001342 7409.78369 7414.22559
7305.0 0.0001369 7407.58447 7411.98584
7467.0 0.0001339 7405.38721 7409.76953
7434.0 0.0001345 7403.19043 7407.57813
7449.0 0.0001342 7400.99463 7405.40625
7395.0 0.0001352 7398.80029 7403.25635
7394.0 0.0001352 7396.60596 7401.12744
7514.0 0.0001331 7394.41406 7399.02051
7396.0 0.0001352 7392.22168 7396.93555
7110.0 0.0001406 7390.03125 7394.87354
7338.0 0.0001363 7387.84131 7392.83447
7501.0 0.0001333 7385.65332 7390.82227
7370.0 0.0001357 7383.46533 7388.83887
7383.0 0.0001354 7381.27979 7386.88574
7398.0 0.0001352 7379.09521 7384.96826
7327.0 0.0001365 7376.91064 7383.08789
7330.0 0.0001364 7374.72852 7381.25244
7474.0 0.0001338 7372.54639 7379.46680
7350.0 0.0001361 7370.36670 7377.73828
7445.0 0.0001343 7368.18750 7376.07764
7376.0 0.0001356 7366.01025 7374.49609
7282.0 0.0001373 7363.83301 7373.00684
7178.0 0.0001393 7361.65869 7371.63330
7515.0 0.0001331 7359.48535 7370.39551
7428.0 0.0001346 7357.31250 7369.32666
7448.0 0.0001343 7355.14160 7368.46777
7275.0 0.0001375 7352.97168 7367.87842
7266.0 0.0001376 7350.80371 7367.65039
7504.0 0.0001333 7348.63623 7367.92920
7473.0 0.0001338 7346.47119 7368.99512
7427.0 0.0001346 7344.30811 7371.37109
7393.0 0.0001353 7342.14502 7376.01416
7485.0 0.0001336 7339.98438 7384.53223
7344.0 0.0001362 7337.82422 7399.27344
7664.0 0.0001305 7335.66699 7423.08838
7368.0 0.0001357 7333.51025 7458.82324
7468.0 0.0001339 7331.35547 7506.78857
7603.0 0.0001315 7329.20215 7564.70996
7606.0 0.0001315 7327.05029 7624.20361
7915.0 0.0001263 7324.90088 7668.89307
7970.0 0.0001255 7322.75195 7679.02734
7669.0 0.0001304 7320.60547 7648.45361
7634.0 0.0001310 7318.45996 7591.88379
7629.0 0.0001311 7316.31689 7529.23828
7374.0 0.0001356 7314.17432 7473.53906
7552.0 0.0001324 7312.03467 7430.66846
7403.0 0.0001351 7309.89600 7401.86133
7361.0 0.0001359 7307.75928 7385.61572
7382.0 0.0001355 7305.62500 7379.04736
7366.0 0.0001358 7303.49121 7378.72998
7466.0 0.0001339 7301.35986 7380.93213
7440.0 0.0001344 7299.22998 7382.08203
7357.0 0.0001359 7297.10205 7380.75781
7347.0 0.0001361 7294.97559 7378.76709
7387.0 0.0001354 7292.85156 7378.68115
7464.0 0.0001340 7290.72949 7381.49658
7338.0 0.0001363 7288.60840 7385.96631
7434.0 0.0001345 7286.48975 7388.61475
7342.0 0.0001362 7284.37256 7385.45605
7281.0 0.0001373 7282.25781 7375.63037
7392.0 0.0001353 7280.14404 7362.09668
7266.0 0.0001376 7278.03320 7348.47021
7442.0 0.0001344 7275.92334 7337.17871
7427.0 0.0001346 7273.81641 7329.17188
7187.0 0.0001391 7271.71094 7325.22754
7347.0 0.0001361 7269.60693 7326.17041
7255.0 0.0001378 7267.50537 7333.72705
7349.0 0.0001361 7265.40527 7351.27881
7419.0 0.0001348 7263.30811 7383.98828
7383.0 0.0001354 7261.21191 7437.93652
7534.0 0.0001327 7259.11816 7518.03076
7647.0 0.0001308 7257.02588 7622.94971
7750.0 0.0001290 7254.93652 7740.92188
7854.0 0.0001273 7252.84912 7845.46875
7807.0 0.0001281 7250.76270 7897.62402
7956.0 0.0001257 7248.67920 7868.89648
7581.0 0.0001319 7246.59717 7772.43066
7571.0 0.0001321 7244.51807 7648.83301
7489.0 0.0001335 7242.43994 7531.30908
7483.0 0.0001336 7240.36475 7436.45020
7414.0 0.0001349 7238.29150 7368.33789
7338.0 0.0001363 7236.21924 7323.56543
7302.0 0.0001369 7234.15039 7295.67285
7190.0 0.0001391 7232.08252 7278.37646
7271.0 0.0001375 7230.01758 7267.08838
7287.0 0.0001372 7227.95410 7259.02881
7085.0 0.0001411 7225.89307 7252.73145
7120.0 0.0001404 7223.83398 7247.47705
7364.0 0.0001358 7221.77734 7242.91455
7283.0 0.0001373 7219.72314 7238.85107
7123.0 0.0001404 7217.66992 7235.17383
7263.0 0.0001377 7215.61963 7231.80518
7147.0 0.0001399 7213.57080 7228.69092
7262.0 0.0001377 7211.52490 7225.78760
7164.0 0.0001396 7209.48047 7223.06836
7222.0 0.0001385 7207.43848 7220.50830
7085.0 0.0001411 7205.39844 7218.09619
7203.0 0.0001388 7203.36084 7215.82031
7167.0 0.0001395 7201.32568 7213.67822
7123.0 0.0001404 7199.29150 7211.66846
7271.0 0.0001375 7197.26074 7209.79932
7210.0 0.0001387 7195.23145 7208.08252
7152.0 0.0001398 7193.20459 7206.53516
7146.0 0.0001399 7191.17920 7205.18311
7329.0 0.0001364 7189.15674 7204.07178
7149.0 0.0001399 7187.13672 7203.25684
7188.0 0.0001391 7185.11768 7202.84521
7275.0 0.0001375 7183.10156 7203.02539
7473.0 0.0001338 7181.08740 7204.18359
7144.0 0.0001400 7179.07568 7207.08105
7345.0 0.0001361 7177.06543 7213.13770
7310.0 0.0001368 7175.05811 7224.66260
7338.0 0.0001363 7173.05176 7244.81885
7194.0 0.0001390 7171.04883 7277.08887
7291.0 0.0001372 7169.04785 7323.13281
7336.0 0.0001363 7167.04834 7381.62842
7483.0 0.0001336 7165.05176 7445.17334
7527.0 0.0001329 7163.05664 7497.90381
7486.0 0.0001336 7161.06445 7517.81787
7564.0 0.0001322 7159.07324 7493.16504
7451.0 0.0001342 7157.08545 7436.01318
7370.0 0.0001357 7155.09863 7368.35840
7286.0 0.0001372 7153.11475 7305.92041
7290.0 0.0001372 7151.13281 7255.99658
7338.0 0.0001363 7149.15283 7219.99658
7284.0 0.0001373 7147.17529 7195.90430
7293.0 0.0001371 7145.19922 7180.38721
7075.0 0.0001413 7143.22559 7170.29785
7182.0 0.0001392 7141.25391 7163.47998
7126.0 0.0001403 7139.28467 7158.23779
7025.0 0.0001423 7137.31787 7153.95947
7206.0 0.0001388 7135.35205 7150.26416
7165.0 0.0001396 7133.38916 7146.96436
7121.0 0.0001404 7131.42822 7143.95898
7106.0 0.0001407 7129.46924 7141.18799
7058.0 0.0001417 7127.51221 7138.74707
7074.0 0.0001414 7125.55762 7136.34180
7271.0 0.0001375 7123.60400 7134.08838
7130.0 0.0001403 7121.65381 7131.73779
7041.0 0.0001420 7119.70508 7129.80371
7093.0 0.0001410 7117.75830 7128.07324
6944.0 0.0001440 7115.81396 7126.64160
7154.0 0.0001398 7113.87061 7125.69678
7016.0 0.0001425 7111.93018 7125.56201
7178.0 0.0001393 7109.99121 7126.68799
7274.0 0.0001375 7108.05469 7129.54785
7053.0 0.0001418 7106.11963 7134.40576
7096.0 0.0001409 7104.18701 7141.00000
7134.0 0.0001402 7102.25684 7148.20801
7151.0 0.0001398 7100.32764 7153.78711
7079.0 0.0001413 7098.40088 7155.02246
6938.0 0.0001441 7096.47559 7151.23975
7138.0 0.0001401 7094.55273 7145.05908
7022.0 0.0001424 7092.63135 7140.10449
7203.0 0.0001388 7090.71240 7139.25830
7063.0 0.0001416 7088.79541 7144.57617
7257.0 0.0001378 7086.87939 7156.48340
7129.0 0.0001403 7084.96631 7174.50488
7185.0 0.0001392 7083.05420 7197.23193
7228.0 0.0001384 7081.14453 7219.43359
7372.0 0.0001356 7079.23633 7233.34668
7247.0 0.0001380 7077.33008 7231.50586
7225.0 0.0001384 7075.42578 7213.63428
7291.0 0.0001372 7073.52344 7186.83740
7172.0 0.0001394 7071.62305 7158.70313
6974.0 0.0001434 7069.72363 7133.73730
7215.0 0.0001386 7067.82666 7113.74756
7105.0 0.0001407 7065.93066 7099.47607
7111.0 0.0001406 7064.03711 7088.86426
7016.0 0.0001425 7062.14502 7081.37793
7165.0 0.0001396 7060.25488 7075.95117
7025.0 0.0001423 7058.36572 7071.78223
6932.0 0.0001443 7056.47949 7068.35449
7081.0 0.0001412 7054.59424 7065.37012
6981.0 0.0001432 7052.71045 7062.66553
7105.0 0.0001407 7050.82910 7060.15674
7088.0 0.0001411 7048.94824 7057.79297
7132.0 0.0001402 7047.06982 7055.54492
7133.0 0.0001402 7045.19238 7053.39209
7097.0 0.0001409 7043.31738 7051.32031
7008.0 0.0001427 7041.44385 7049.31982
7045.0 0.0001419 7039.57129 7047.38135
7069.0 0.0001415 7037.70068 7045.50195
7079.0 0.0001413 7035.83105 7043.67773
6999.0 0.0001429 7033.96338 7041.90527
7010.0 0.0001427 7032.09717 7040.18799
6939.0 0.0001441 7030.23242 7038.52393
6896.0 0.0001450 7028.36865 7036.91602
7101.0 0.0001408 7026.50781 7035.37109
7090.0 0.0001410 7024.64746 7033.89258
7040.0 0.0001420 7022.78809 7032.48730
7038.0 0.0001421 7020.93115 7031.16748
6961.0 0.0001437 7019.07471 7029.94531
7119.0 0.0001405 7017.22021 7028.83691
7070.0 0.0001414 7015.36621 7027.86475
6949.0 0.0001439 7013.51465 7027.05859
7013.0 0.0001426 7011.66357 7027.03076
7033.0 0.0001422 7009.81445 7026.69287
7139.0 0.0001401 7007.96680 7026.68262
7101.0 0.0001408 7006.11963 7027.12402
6947.0 0.0001439 7004.27393 7028.23438
6974.0 0.0001434 7002.42920 7030.13672
7090.0 0.0001410 7000.58691 7034.21973
7024.0 0.0001424 6998.74463 7041.60156
7092.0 0.0001410 6996.90430 7054.55273
7095.0 0.0001409 6995.06494 7076.34668
7114.0 0.0001406 6993.22656 7109.96240
7261.0 0.0001377 6991.38916 7157.88135
7354.0 0.0001360 6989.55322 7219.48828
7120.0 0.0001404 6987.71826 7288.94629
7343.0 0.0001362 6985.88428 7352.51318
7354.0 0.0001360 6984.05176 7389.34668
7461.0 0.0001340 6982.21973 7379.63135
7451.0 0.0001342 6980.38916 7328.77979
7134.0 0.0001402 6978.55957 7258.41504
7082.0 0.0001412 6976.73096 7188.06689
6937.0 0.0001442 6974.90332 7129.27441
7134.0 0.0001402 6973.07617 7084.13428
7074.0 0.0001414 6971.25098 7052.84375
7030.0 0.0001422 6969.42578 7032.58984
7003.0 0.0001428 6967.60205 7020.06885
6873.0 0.0001455 6965.77832 7012.53320
6826.0 0.0001465 6963.95654 7008.18066
6975.0 0.0001434 6962.13574 7006.09863
7004.0 0.0001428 6960.31494 7006.08545
7042.0 0.0001420 6958.49561 7008.49512
7101.0 0.0001408 6956.67627 7014.11084
7052.0 0.0001418 6954.85840 7024.01904
7017.0 0.0001425 6953.04053 7039.39063
7016.0 0.0001425 6951.22461 7061.17090
7102.0 0.0001408 6949.40918 7089.68799
7143.0 0.0001400 6947.59326 7124.03320
7181.0 0.0001393 6945.77930 7160.79785
7116.0 0.0001405 6943.96533 7194.19775
7221.0 0.0001385 6942.15234 7219.61865
7097.0 0.0001409 6940.33936 7237.58496
7355.0 0.0001360 6938.52832 7249.53369
7352.0 0.0001360 6936.71631 7250.91797
7271.0 0.0001375 6934.90625 7233.63379
7139.0 0.0001401 6933.09668 7197.99414
7081.0 0.0001412 6931.28662 7155.57568
7168.0 0.0001395 6929.47754 7119.33838
7161.0 0.0001396 6927.66895 7098.70850
7057.0 0.0001417 6925.86133 7100.61475
7102.0 0.0001408 6924.05322 7130.72998
7026.0 0.0001423 6922.24658 7193.17871
7334.0 0.0001364 6920.43945 7288.42432
7466.0 0.0001339 6918.63330 7409.75488
7556.0 0.0001323 6916.82764 7538.63721
7695.0 0.0001300 6915.02197 7640.29736
7747.0 0.0001291 6913.21729 7671.18896
7659.0 0.0001306 6911.41211 7613.22070
7595.0 0.0001317 6909.60791 7494.71289
7207.0 0.0001388 6907.80371 7357.88867
7274.0 0.0001375 6906.00000 7232.96777
7124.0 0.0001404 6904.19678 7133.66699
7001.0 0.0001428 6902.39307 7062.50049
7069.0 0.0001415 6900.59033 7015.41064
7024.0 0.0001424 6898.78711 6985.79443
6973.0 0.0001434 6896.98486 6967.23193
6981.0 0.0001432 6895.18164 6955.35498
6925.0 0.0001444 6893.37988 6947.15479
6912.0 0.0001447 6891.57715 6941.05518
6978.0 0.0001433 6889.77588 6936.26318
6878.0 0.0001454 6887.97412 6932.37695
7100.0 0.0001408 6886.17188 6929.18701
6904.0 0.0001448 6884.37061 6926.57422
6907.0 0.0001448 6882.56836 6924.45850
7137.0 0.0001401 6880.76709 6922.79834
6810.0 0.0001468 6878.96533 6921.56543
6882.0 0.0001453 6877.16406 6920.75195
6904.0 0.0001448 6875.36182 6920.36133
6985.0 0.0001432 6873.56055 6920.41992
6956.0 0.0001438 6871.75928 6920.96289
6908.0 0.0001448 6869.95752 6922.04053
6969.0 0.0001435 6868.15576 6923.73096
7031.0 0.0001422 6866.35400 6926.13184
6882.0 0.0001453 6864.55225 6929.37451
6808.0 0.0001469 6862.74951 6933.63574
6866.0 0.0001456 6860.94775 6939.15820
6956.0 0.0001438 6859.14600 6946.29297
6822.0 0.0001466 6857.34277 6955.59619
6947.0 0.0001439 6855.54053 6968.03369
7097.0 0.0001409 6853.73730 6985.34961
7040.0 0.0001420 6851.93457 7010.71875
7095.0 0.0001409 6850.13086 7049.56250
7004.0 0.0001428 6848.32764 7110.30029
7096.0 0.0001409 6846.52344 7204.27441
7252.0 0.0001379 6844.71973 7344.07568
7612.0 0.0001314 6842.91602 7539.74268
7626.0 0.0001311 6841.11084 7793.18604
8125.0 0.0001231 6839.30615 8091.16455
8460.0 0.0001182 6837.50049 8396.08105
8728.0 0.0001146 6835.69531 8640.13770
8783.0 0.0001139 6833.88867 8752.37500
8950.0 0.0001117 6832.08252 8725.47656
8742.0 0.0001144 6830.27539 8625.66992
8511.0 0.0001175 6828.46875 8520.79883
8501.0 0.0001176 6826.66162 8430.96191
8471.0 0.0001180 6824.85303 8330.22949
8361.0 0.0001196 6823.04492 8185.95313
8224.0 0.0001216 6821.23584 8003.67627
7984.0 0.0001253 6819.42676 7813.28857
7658.0 0.0001306 6817.61670 7633.16943
7480.0 0.0001337 6815.80664 7468.16016
7321.0 0.0001366 6813.99609 7322.89063
7112.0 0.0001406 6812.18457 7203.73877
7151.0 0.0001398 6810.37305 7112.59521
7035.0 0.0001421 6808.56006 7046.85889
6936.0 0.0001442 6806.74756 7001.93701
6852.0 0.0001459 6804.93359 6974.01074
6926.0 0.0001444 6803.12012 6959.56885
6864.0 0.0001457 6801.30469 6954.01563
6989.0 0.0001431 6799.49023 6955.28809
6947.0 0.0001439 6797.67432 6961.59180
7052.0 0.0001418 6795.85742 6973.55664
7025.0 0.0001423 6794.04102 6995.97949
7050.0 0.0001418 6792.22314 7035.57373
7052.0 0.0001418 6790.40479 7095.55811
7140.0 0.0001401 6788.58545 7171.15967
7327.0 0.0001365 6786.76611 7246.46533
7253.0 0.0001379 6784.94531 7293.71826
7267.0 0.0001376 6783.12451 7285.87598
7200.0 0.0001389 6781.30322 7222.89307
7201.0 0.0001389 6779.48047 7131.33594
7012.0 0.0001426 6777.65723 7038.30420
6997.0 0.0001429 6775.83301 6959.78662
6947.0 0.0001439 6774.00879 6901.25537
6919.0 0.0001445 6772.18311 6861.70313
7114.0 0.0001406 6770.35693 6836.56055
6831.0 0.0001464 6768.53076 6820.81592
6792.0 0.0001472 6766.70264 6810.37500
6703.0 0.0001492 6764.87402 6803.01660
6825.0 0.0001465 6763.04492 6797.24854
6923.0 0.0001444 6761.21484 6792.42090
6691.0 0.0001495 6759.38379 6788.24414
6737.0 0.0001484 6757.55225 6784.59473
6759.0 0.0001480 6755.71973 6781.43262
6838.0 0.0001462 6753.88672 6778.74268
6815.0 0.0001467 6752.05273 6776.50293
6750.0 0.0001481 6750.21777 6774.64844
6902.0 0.0001449 6748.38232 6773.03076
6870.0 0.0001456 6746.54541 6771.36670
6863.0 0.0001457 6744.70850 6769.26807
6786.0 0.0001474 6742.86963 6766.45703
6788.0 0.0001473 6741.03076 6763.04590
6867.0 0.0001456 6739.18994 6758.83105
6709.0 0.0001491 6737.34961 6755.25293
6662.0 0.0001501 6735.50781 6751.90771
6641.0 0.0001506 6733.66504 6748.85352
6647.0 0.0001504 6731.82178 6746.08008
6695.0 0.0001494 6729.97705 6743.54102
6755.0 0.0001480 6728.13184 6741.17725
6615.0 0.0001512 6726.28516 6738.94092
6696.0 0.0001493 6724.43848 6736.79199
6802.0 0.0001470 6722.59033 6734.70996
6694.0 0.0001494 6720.74121 6732.67822
6624.0 0.0001510 6718.89160 6730.69092
6789.0 0.0001473 6717.04004 6728.74365
6881.0 0.0001453 6715.18848 6726.83789
6767.0 0.0001478 6713.33545 6724.97119
6612.0 0.0001512 6711.48242 6723.14453
6696.0 0.0001493 6709.62744 6721.35938
6676.0 0.0001498 6707.77197 6719.62256
6581.0 0.0001520 6705.91602 6717.93359
6825.0 0.0001465 6704.05811 6716.32471
6790.0 0.0001473 6702.20020 6714.75732
6698.0 0.0001493 6700.34082 6713.26660
6651.0 0.0001504 6698.48047 6711.86328
6746.0 0.0001482 6696.61914 6710.57959
6800.0 0.0001471 6694.75732 6709.45166
6742.0 0.0001483 6692.89404 6708.55859
6659.0 0.0001502 6691.02979 6708.05273
6605.0 0.0001514 6689.16504 6708.21875
6646.0 0.0001505 6687.29883 6709.54004
6584.0 0.0001519 6685.43213 6712.73535
6698.0 0.0001493 6683.56396 6718.68652
6813.0 0.0001468 6681.69580 6728.18555
6755.0 0.0001480 6679.82520 6741.50684
6755.0 0.0001480 6677.95508 6757.88086
6793.0 0.0001472 6676.08350 6774.87500
6733.0 0.0001485 6674.21045 6787.89307
6725.0 0.0001487 6672.33691 6791.30811
6709.0 0.0001491 6670.46191 6782.81885
6813.0 0.0001468 6668.58691 6766.11182
6837.0 0.0001463 6666.70996 6746.89941
6696.0 0.0001493 6664.83301 6729.24463
6682.0 0.0001497 6662.95410 6715.12207
6842.0 0.0001462 6661.07520 6705.02930
6613.0 0.0001512 6659.19482 6698.57227
6649.0 0.0001504 6657.31348 6694.99365
6648.0 0.0001504 6655.43164 6693.58789
6746.0 0.0001482 6653.54785 6693.36963
6730.0 0.0001486 6651.66406 6695.47705
6785.0 0.0001474 6649.77881 6699.75684
6663.0 0.0001501 6647.89307 6707.09033
6664.0 0.0001501 6646.00586 6718.73389
6971.0 0.0001435 6644.11816 6736.14648
6716.0 0.0001489 6642.22949 6760.67969
6880.0 0.0001453 6640.33936 6793.26563
6770.0 0.0001477 6638.44922 6833.96924
6866.0 0.0001456 6636.55713 6880.45996
6907.0 0.0001448 6634.66504 6933.27148
7058.0 0.0001417 6632.77100 6990.99951
7039.0 0.0001421 6630.87695 7060.47705
7169.0 0.0001395 6628.98193 7152.23096
7151.0 0.0001398 6627.08545 7270.10645
7359.0 0.0001359 6625.18896 7403.33740
7337.0 0.0001363 6623.29004 7521.70996
7408.0 0.0001350 6621.39160 7578.78418
7413.0 0.0001349 6619.49121 7540.50879
7196.0 0.0001390 6617.59131 7419.54053
7202.0 0.0001389 6615.68896 7260.52100
7051.0 0.0001418 6613.78662 7103.01221
6813.0 0.0001468 6611.88379 6969.09424
6868.0 0.0001456 6609.97900 6867.39063
6786.0 0.0001474 6608.07422 6797.55176
6686.0 0.0001496 6606.16748 6755.27295
6681.0 0.0001497 6604.26123 6735.05273
6688.0 0.0001495 6602.35303 6732.26660
6656.0 0.0001502 6600.44482 6743.49707
6797.0 0.0001471 6598.53516 6765.68359
6718.0 0.0001489 6596.62500 6794.66553
6807.0 0.0001469 6594.71387 6823.49658
6891.0 0.0001451 6592.80176 6841.78076
6955.0 0.0001438 6590.88916 6839.71191
6792.0 0.0001472 6588.97510 6816.02979
6859.0 0.0001458 6587.06104 6778.63281
6724.0 0.0001487 6585.14551 6737.38965
6649.0 0.0001504 6583.22949 6699.30322
6728.0 0.0001486 6581.31250 6667.80469
6706.0 0.0001491 6579.39453 6643.67285
6586.0 0.0001518 6577.47656 6626.10107
6542.0 0.0001529 6575.55664 6613.59229
6661.0 0.0001501 6573.63672 6604.60107
6588.0 0.0001518 6571.71533 6597.87646
6515.0 0.0001535 6569.79395 6592.54980
6665.0 0.0001500 6567.87109 6588.07617
6497.0 0.0001539 6565.94824 6584.14502
6631.0 0.0001508 6564.02441 6580.57617
6450.0 0.0001550 6562.09912 6577.27295
6787.0 0.0001473 6560.17383 6574.00928
6461.0 0.0001548 6558.24707 6571.06934
6689.0 0.0001495 6556.32031 6568.26367
6684.0 0.0001496 6554.39209 6565.56641
6603.0 0.0001514 6552.46387 6562.96240
6515.0 0.0001535 6550.53418 6560.43896
6535.0 0.0001530 6548.60449 6557.98340
6491.0 0.0001541 6546.67432 6555.58740
6533.0 0.0001531 6544.74219 6553.24365
6629.0 0.0001509 6542.81055 6550.94727
6556.0 0.0001525 6540.87695 6548.69238
6554.0 0.0001526 6538.94385 6546.47705
6576.0 0.0001521 6537.00928 6544.29541
6589.0 0.0001518 6535.07471 6542.29004
6644.0 0.0001505 6533.13916 6540.17676
6601.0 0.0001515 6531.20264 6538.09277
6608.0 0.0001513 6529.26563 6536.04004
6615.0 0.0001512 6527.32813 6534.01807
6505.0 0.0001537 6525.38965 6532.04688
6517.0 0.0001534 6523.45020 6530.08984
6503.0 0.0001538 6521.51074 6528.17334
6443.0 0.0001552 6519.57031 6526.30127
6625.0 0.0001509 6517.62939 6524.48535
6487.0 0.0001542 6515.68799 6522.73926
6413.0 0.0001559 6513.74561 6520.98535
6478.0 0.0001544 6511.80322 6519.62402
6686.0 0.0001496 6509.85889 6518.19385
6566.0 0.0001523 6507.91553 6516.91406
6525.0 0.0001533 6505.97021 6515.82178
6550.0 0.0001527 6504.02490 6515.00293
6539.0 0.0001529 6502.07861 6514.62207
6582.0 0.0001519 6500.13232 6514.99121
6403.0 0.0001562 6498.18555 6516.50732
6490.0 0.0001541 6496.23730 6519.55957
6658.0 0.0001502 6494.28906 6524.38770
6610.0 0.0001513 6492.33984 6530.90430
6594.0 0.0001517 6490.39063 6538.47607
6548.0 0.0001527 6488.43994 6545.63623
6611.0 0.0001513 6486.48926 6549.98291
6557.0 0.0001525 6484.53809 6549.13184
6597.0 0.0001516 6482.58594 6542.74707
6522.0 0.0001533 6480.63379 6532.86523
6553.0 0.0001526 6478.68066 6522.08008
6553.0 0.0001526 6476.72705 6512.13867
6620.0 0.0001511 6474.77246 6503.91553
6458.0 0.0001548 6472.81787 6497.70801
6528.0 0.0001532 6470.86230 6493.53223
6515.0 0.0001535 6468.90674 6491.38428
6575.0 0.0001521 6466.95068 6491.50879
6495.0 0.0001540 6464.99316 6494.62988
6404.0 0.0001562 6463.03613 6502.07373
6300.0 0.0001587 6461.07764 6515.61182
6509.0 0.0001536 6459.11914 6536.92529
6675.0 0.0001498 6457.15967 6566.62988
6565.0 0.0001523 6455.20020 6603.08057
6568.0 0.0001523 6453.23975 6641.07080
6763.0 0.0001479 6451.27930 6670.88965
6633.0 0.0001508 6449.31836 6680.49805
6629.0 0.0001509 6447.35596 6664.38330
6673.0 0.0001499 6445.39355 6629.48584
6559.0 0.0001525 6443.43018 6587.67432
6443.0 0.0001552 6441.46729 6548.05664
6565.0 0.0001523 6439.50293 6515.01709
6590.0 0.0001517 6437.53857 6489.92188
6351.0 0.0001575 6435.57422 6472.34473
6536.0 0.0001530 6433.60791 6460.19287
6360.0 0.0001572 6431.64209 6451.21387
6578.0 0.0001520 6429.67480 6445.27051
6472.0 0.0001545 6427.70850 6440.71582
6430.0 0.0001555 6425.74023 6436.96729
6540.0 0.0001529 6423.77197 6433.69971
6517.0 0.0001534 6421.80273 6430.74121
6496.0 0.0001539 6419.83398 6427.99170
6517.0 0.0001534 6417.86426 6425.39404
6547.0 0.0001527 6415.89355 6422.91504
6372.0 0.0001569 6413.92334 6420.52783
6363.0 0.0001572 6411.95117 6418.21533
6247.0 0.0001601 6409.97949 6415.96729
6416.0 0.0001559 6408.00684 6413.77295
6491.0 0.0001541 6406.03369 6411.62451
6475.0 0.0001544 6404.05957 6409.51709
6371.0 0.0001570 6402.08594 6407.44775
6352.0 0.0001574 6400.11133 6405.26611
6385.0 0.0001566 6398.13574 6403.22900
6373.0 0.0001569 6396.16016 6401.25781
6487.0 0.0001542 6394.18359 6399.31934
6335.0 0.0001579 6392.20654 6397.41162
6586.0 0.0001518 6390.22852 6395.53711
6261.0 0.0001597 6388.25098 6393.70215
6265.0 0.0001596 6386.27246 6391.90918
6464.0 0.0001547 6384.29297 6390.17432
6212.0 0.0001610 6382.31348 6388.52441
6398.0 0.0001563 6380.33252 6387.01123
6381.0 0.0001567 6378.35205 6385.73145
6314.0 0.0001584 6376.36963 6384.83350
6409.0 0.0001560 6374.38818 6384.52148
6413.0 0.0001559 6372.40479 6385.00781
6315.0 0.0001584 6370.42139 6386.42920
6432.0 0.0001555 6368.43799 6388.71729
6354.0 0.0001574 6366.45264 6391.47314
6469.0 0.0001546 6364.46777 6393.84082
6465.0 0.0001547 6362.48145 6394.53906
6457.0 0.0001549 6360.49512 6392.56641
6355.0 0.0001574 6358.50732 6388.19385
6347.0 0.0001576 6356.52002 6382.68408
6316.0 0.0001583 6354.53125 6377.21582
6428.0 0.0001556 6352.54199 6372.49805
6386.0 0.0001566 6350.55225 6368.82617
6371.0 0.0001570 6348.56152 6366.21924
6453.0 0.0001550 6346.57080 6364.72803
6421.0 0.0001557 6344.57813 6363.88037
6532.0 0.0001531 6342.58594 6363.79395
6280.0 0.0001592 6340.59229 6364.57520
6364.0 0.0001571 6338.59863 6366.56104
6389.0 0.0001565 6336.60400 6370.41260
6259.0 0.0001598 6334.60791 6377.20068
6315.0 0.0001584 6332.61182 6388.44678
6475.0 0.0001544 6330.61426 6405.99121
6358.0 0.0001573 6328.61719 6431.64844
6256.0 0.0001598 6326.61816 6466.57666
6448.0 0.0001551 6324.61865 6510.47607
6505.0 0.0001537 6322.61816 6560.43604
6486.0 0.0001542 6320.61768 6609.62061
6627.0 0.0001509 6318.61621 6647.64355
6573.0 0.0001521 6316.61328 6666.29297
6588.0 0.0001518 6314.61035 6665.87549
6601.0 0.0001515 6312.60547 6651.33594
6730.0 0.0001486 6310.60059 6624.75781
6665.0 0.0001500 6308.59424 6586.36377
6675.0 0.0001498 6306.58789 6539.93750
6489.0 0.0001541 6304.57959 6492.65039
6530.0 0.0001531 6302.57080 6449.98682
6339.0 0.0001578 6300.56201 6414.92432
6385.0 0.0001566 6298.55078 6388.04199
6516.0 0.0001535 6296.53955 6368.70752
6363.0 0.0001572 6294.52686 6355.65625
6410.0 0.0001560 6292.51416 6347.29248
6418.0 0.0001558 6290.49902 6341.80273
6370.0 0.0001570 6288.48389 6337.28174
6289.0 0.0001590 6286.46826 6332.14160
6451.0 0.0001550 6284.45068 6325.83691
6205.0 0.0001612 6282.43262 6318.88623
6300.0 0.0001587 6280.41309 6312.06299
6335.0 0.0001579 6278.39258 6305.90137
6410.0 0.0001560 6276.37061 6300.64551
6279.0 0.0001593 6274.34863 6296.34082
6284.0 0.0001591 6272.32471 6292.91455
6421.0 0.0001557 6270.29980 6290.23730
6235.0 0.0001604 6268.27441 6288.18066
6252.0 0.0001599 6266.24707 6286.66895
6289.0 0.0001590 6264.21924 6285.70801
6285.0 0.0001591 6262.18945 6285.45654
6287.0 0.0001591 6260.15967 6286.40771
6415.0 0.0001559 6258.12744 6289.13037
6293.0 0.0001589 6256.09473 6294.76123
6260.0 0.0001597 6254.06006 6304.77051
6207.0 0.0001611 6252.02539 6321.26123
6336.0 0.0001578 6249.98877 6345.67725
6202.0 0.0001612 6247.95068 6378.62012
6394.0 0.0001564 6245.91211 6418.74756
6425.0 0.0001556 6243.87109 6461.63379
6401.0 0.0001562 6241.82959 6498.53613
6423.0 0.0001557 6239.78613 6517.12695
6586.0 0.0001518 6237.74219 6508.48340
6451.0 0.0001550 6235.69629 6475.58789
6503.0 0.0001538 6233.64893 6430.21191
6314.0 0.0001584 6231.60059 6383.44141
6316.0 0.0001583 6229.55029 6341.91260
6410.0 0.0001560 6227.49902 6308.46973
6123.0 0.0001633 6225.44629 6283.42529
6209.0 0.0001611 6223.39209 6265.60791
6323.0 0.0001582 6221.33594 6253.23828
6334.0 0.0001579 6219.27881 6244.57031
6231.0 0.0001605 6217.22070 6238.23145
6176.0 0.0001619 6215.15967 6233.28516
6108.0 0.0001637 6213.09814 6229.16992
6398.0 0.0001563 6211.03467 6225.56885
6254.0 0.0001599 6208.96973 6222.30762
6286.0 0.0001591 6206.90234 6219.29346
6203.0 0.0001612 6204.83496 6216.47314
6308.0 0.0001585 6202.76465 6213.80566
6105.0 0.0001638 6200.69336 6211.27002
6280.0 0.0001592 6198.62061 6208.84570
6148.0 0.0001627 6196.54541 6206.52246
6226.0 0.0001606 6194.46924 6204.29199
6270.0 0.0001595 6192.39014 6202.14795
6186.0 0.0001617 6190.31104 6200.09277
6279.0 0.0001593 6188.22852 6198.12354
6300.0 0.0001587 6186.14502 6196.24512
6167.0 0.0001622 6184.06055 6194.46875
6118.0 0.0001635 6181.97266 6192.80371
6128.0 0.0001632 6179.88428 6191.27051
6288.0 0.0001590 6177.79297 6189.90039
6183.0 0.0001617 6175.70068 6188.73926
6159.0 0.0001624 6173.60547 6187.86914
6228.0 0.0001606 6171.50928 6187.43848
6225.0 0.0001606 6169.41064 6187.69824
6262.0 0.0001597 6167.31104 6189.06787
6170.0 0.0001621 6165.20898 6192.17236
6147.0 0.0001627 6163.10449 6197.85547
6187.0 0.0001616 6160.99854 6207.09473
6171.0 0.0001620 6158.89014 6220.76563
6293.0 0.0001589 6156.77979 6239.31104
6153.0 0.0001625 6154.66748 6262.27881
6328.0 0.0001580 6152.55371 6287.74756
6154.0 0.0001625 6150.43652 6311.58252
6311.0 0.0001585 6148.31885 6327.22998
6365.0 0.0001571 6146.19824 6328.22607
6258.0 0.0001598 6144.07520 6313.39014
6272.0 0.0001594 6141.95068 6288.01025
6271.0 0.0001595 6139.82324 6259.20117
6131.0 0.0001631 6137.69434 6231.84033
6285.0 0.0001591 6135.56250 6208.60205
6132.0 0.0001631 6133.42920 6190.37842
6198.0 0.0001613 6131.29395 6176.99365
6173.0 0.0001620 6129.15527 6167.68945
6112.0 0.0001636 6127.01563 6161.55713
6194.0 0.0001614 6124.87207 6157.87793
6131.0 0.0001631 6122.72754 6156.39990
6126.0 0.0001632 6120.57959 6157.43994
6132.0 0.0001631 6118.43066 6161.84229
6009.0 0.0001664 6116.27832 6170.81494
6139.0 0.0001629 6114.12402 6185.63965
6187.0 0.0001616 6111.96826 6207.16162
6327.0 0.0001581 6109.80859 6235.13770
6162.0 0.0001623 6107.64746 6267.49854
6487.0 0.0001542 6105.48291 6299.49609
6393.0 0.0001564 6103.31689 6323.30371
6302.0 0.0001587 6101.14746 6330.82520
6390.0 0.0001565 6098.97656 6320.53223
6376.0 0.0001568 6096.80273 6299.59668
6365.0 0.0001571 6094.62646 6277.43701
6192.0 0.0001615 6092.44775 6259.70313
6192.0 0.0001615 6090.26563 6247.69580
6278.0 0.0001593 6088.08252 6238.54443
6146.0 0.0001627 6085.89551 6226.99756
6254.0 0.0001599 6083.70654 6209.57178
6239.0 0.0001603 6081.51465 6187.52490
6396.0 0.0001563 6079.32031 6164.57178
6202.0 0.0001612 6077.12354 6143.74951
6096.0 0.0001640 6074.92383 6126.70801
6102.0 0.0001639 6072.72168 6114.02686
6048.0 0.0001653 6070.51611 6106.16895
6076.0 0.0001646 6068.30908 6102.20947
6056.0 0.0001651 6066.09814 6101.55615
6056.0 0.0001651 6063.88525 6104.59863
6167.0 0.0001622 6061.66895 6111.39697
6141.0 0.0001628 6059.45117 6121.82080
6100.0 0.0001639 6057.22998 6135.13672
6090.0 0.0001642 6055.00537 6149.55859
6117.0 0.0001635 6052.77930 6161.81250
6176.0 0.0001619 6050.54883 6167.41504
6163.0 0.0001623 6048.31689 6162.96924
6268.0 0.0001595 6046.08105 6149.17969
6209.0 0.0001611 6043.84326 6130.19092
6074.0 0.0001646 6041.60205 6110.23633
6258.0 0.0001598 6039.35840 6092.00000
6095.0 0.0001641 6037.11230 6076.71484
5980.0 0.0001672 6034.86230 6064.63379
6100.0 0.0001639 6032.60986 6055.41992
5994.0 0.0001668 6030.35400 6048.23584
6035.0 0.0001657 6028.09668 6042.87158
6110.0 0.0001637 6025.83496 6038.55029
6034.0 0.0001657 6023.57129 6034.88037
6012.0 0.0001663 6021.30469 6031.60693
5966.0 0.0001676 6019.03418 6028.57861
5964.0 0.0001677 6016.76172 6025.71729
5995.0 0.0001668 6014.48535 6022.96973
6028.0 0.0001659 6012.20703 6020.31055
6014.0 0.0001663 6009.92432 6017.71875
6036.0 0.0001657 6007.64014 6015.18701
6030.0 0.0001658 6005.35205 6012.69922
6091.0 0.0001642 6003.06152 6010.25439
6107.0 0.0001637 6000.76807 6007.84180
5993.0 0.0001669 5998.47070 6005.45996
5837.0 0.0001713 5996.17139 6003.10742
5995.0 0.0001668 5993.86768 6000.77783
5905.0 0.0001693 5991.56250 5998.47119
6064.0 0.0001649 5989.25293 5996.48438
5863.0 0.0001706 5986.94141 5994.22510
6095.0 0.0001641 5984.62549 5991.98633
5992.0 0.0001669 5982.30811 5989.76660
5816.0 0.0001719 5979.98730 5987.56885
5895.0 0.0001696 5977.66260 5985.38867
5923.0 0.0001688 5975.33545 5983.22998
6054.0 0.0001652 5973.00488 5981.09473
5957.0 0.0001679 5970.67139 5978.98096
6101.0 0.0001639 5968.33447 5976.89404
6059.0 0.0001650 5965.99512 5974.83838
5955.0 0.0001679 5963.65283 5972.81689
5928.0 0.0001687 5961.30615 5970.82959
5978.0 0.0001673 5958.95801 5968.89111
5959.0 0.0001678 5956.60547 5966.99805
6007.0 0.0001665 5954.25049 5965.15723
5892.0 0.0001697 5951.89209 5963.36572
5882.0 0.0001700 5949.53076 5961.62012
6008.0 0.0001664 5947.16602 5959.91211
5972.0 0.0001674 5944.79834 5958.23975
5954.0 0.0001680 5942.42822 5956.61475
5878.0 0.0001701 5940.05420 5955.06104
5920.0 0.0001689 5937.67725 5953.88037
5894.0 0.0001697 5935.29736 5952.56934
6072.0 0.0001647 5932.91455 5951.41064
5779.0 0.0001730 5930.52734 5950.42773
6000.0 0.0001667 5928.13867 5949.63672
6079.0 0.0001645 5925.74609 5948.88623
5948.0 0.0001681 5923.35059 5948.53760
6059.0 0.0001650 5920.95264 5948.46191
5977.0 0.0001673 5918.55029 5948.73486
5897.0 0.0001696 5916.14551 5949.46973
5925.0 0.0001688 5913.73730 5950.83936
5964.0 0.0001677 5911.32666 5953.01172
5930.0 0.0001686 5908.91211 5956.36035
5972.0 0.0001674 5906.49512 5961.51074
5998.0 0.0001667 5904.07568 5969.60547
6066.0 0.0001649 5901.65186 5982.68457
6021.0 0.0001661 5899.22559 6004.11523
5972.0 0.0001674 5896.79590 6038.83740
6025.0 0.0001660 5894.36377 6093.16211
6160.0 0.0001623 5891.92773 6173.52686
6289.0 0.0001590 5889.48926 6284.17285
6376.0 0.0001568 5887.04736 6423.99316
6506.0 0.0001537 5884.60303 6582.91455
6668.0 0.0001500 5882.15576 6737.98047
6923.0 0.0001444 5879.70459 6851.94873
7038.0 0.0001421 5877.25146 6886.31689
7047.0 0.0001419 5874.79395 6831.05957
6812.0 0.0001468 5872.33447 6714.23438
6507.0 0.0001537 5869.87158 6572.63770
6582.0 0.0001519 5867.40625 6431.58984
6355.0 0.0001574 5864.93701 6305.36279
6238.0 0.0001603 5862.46631 6202.63770
6195.0 0.0001614 5859.99170 6127.59668
6191.0 0.0001615 5857.51367 6080.47266
6099.0 0.0001640 5855.03369 6059.74072
6025.0 0.0001660 5852.54980 6063.88477
6055.0 0.0001652 5850.06396 6091.66992
6114.0 0.0001636 5847.57422 6141.12451
6337.0 0.0001578 5845.08301 6207.87793
6224.0 0.0001607 5842.58838 6283.12793
6275.0 0.0001594 5840.08984 6351.43213
6547.0 0.0001527 5837.58984 6391.03418
6522.0 0.0001533 5835.08594 6383.64600
6265.0 0.0001596 5832.57959 6329.78271
6068.0 0.0001648 5830.06982 6247.98340
5922.0 0.0001689 5827.55859 6159.07520
6095.0 0.0001641 5825.04346 6077.00586
6037.0 0.0001656 5822.52588 6008.69385
6082.0 0.0001644 5820.00635 5956.04590
5903.0 0.0001694 5817.48291 5917.70801
5896.0 0.0001696 5814.95752 5890.95947
5825.0 0.0001717 5812.42822 5872.45703
5922.0 0.0001689 5809.89746 5859.39355
5713.0 0.0001750 5807.36328 5849.70654
5793.0 0.0001726 5804.82666 5842.06543
5856.0 0.0001708 5802.28760 5835.68213
5793.0 0.0001726 5799.74561 5830.11523
5707.0 0.0001752 5797.20166 5825.11719
5692.0 0.0001757 5794.65430 5820.54590
5797.0 0.0001725 5792.10449 5816.31494
5638.0 0.0001774 5789.55176 5812.36035
5821.0 0.0001718 5786.99707 5808.64063
5784.0 0.0001729 5784.43945 5805.12012
5813.0 0.0001720 5781.87988 5801.77686
5837.0 0.0001713 5779.31738 5798.58984
5730.0 0.0001745 5776.75195 5795.54395
5899.0 0.0001695 5774.18506 5792.63184
5811.0 0.0001721 5771.61426 5789.84668
5874.0 0.0001702 5769.04248 5787.18506
5666.0 0.0001765 5766.46729 5784.64600
5842.0 0.0001712 5763.89014 5782.23633
5845.0 0.0001711 5761.31006 5779.96045
5736.0 0.0001743 5758.72852 5777.83105
5755.0 0.0001738 5756.14453 5775.86475
5791.0 0.0001727 5753.55713 5774.08057
5824.0 0.0001717 5750.96875 5772.51123
5809.0 0.0001721 5748.37695 5771.20068
5778.0 0.0001731 5745.78369 5770.21240
5760.0 0.0001736 5743.18701 5769.64990
5739.0 0.0001742 5740.58936 5769.68555
5871.0 0.0001703 5737.98828 5770.60742
5817.0 0.0001719 5735.38623 5772.90332
5705.0 0.0001753 5732.78223 5777.34131
5830.0 0.0001715 5730.17432 5785.04736
5738.0 0.0001743 5727.56592 5797.51514
5856.0 0.0001708 5724.95410 5816.53516
5739.0 0.0001742 5722.34131 5843.58447
5806.0 0.0001722 5719.72559 5879.72217
5917.0 0.0001690 5717.10840 5924.62793
5919.0 0.0001689 5714.48926 5975.79199
6220.0 0.0001608 5711.86719 6027.34375
6114.0 0.0001636 5709.24414 6069.04346
6084.0 0.0001644 5706.61816 6088.05615
6127.0 0.0001632 5703.99121 6076.40283
6091.0 0.0001642 5701.36133 6037.90186
6030.0 0.0001658 5698.73047 5984.67432
5945.0 0.0001682 5696.09668 5928.51953
5840.0 0.0001712 5693.46191 5877.01123
5909.0 0.0001692 5690.82520 5833.89893
5860.0 0.0001706 5688.18652 5800.38086
5709.0 0.0001752 5685.54590 5776.08154
5704.0 0.0001753 5682.90332 5759.81543
5882.0 0.0001700 5680.25977 5750.18018
5804.0 0.0001723 5677.61328 5745.95068
5684.0 0.0001759 5674.96582 5746.28223
5896.0 0.0001696 5672.31592 5750.71436
5619.0 0.0001780 5669.66553 5759.03662
5814.0 0.0001720 5667.01318 5771.08838
5819.0 0.0001719 5664.35840 5786.78125
5867.0 0.0001704 5661.70313 5806.48096
5823.0 0.0001717 5659.04492 5830.77344
5877.0 0.0001702 5656.38623 5859.61816
5759.0 0.0001736 5653.72510 5890.98926
5993.0 0.0001669 5651.06348 5919.91504
5902.0 0.0001694 5648.40039 5938.52588
5927.0 0.0001687 5645.73438 5939.01611
5859.0 0.0001707 5643.06885 5919.15625
5830.0 0.0001715 5640.39990 5884.21240
5768.0 0.0001734 5637.73096 5842.57227
5830.0 0.0001715 5635.05957 5801.04492
5741.0 0.0001742 5632.38770 5763.63135
5703.0 0.0001753 5629.71387 5732.13477
5603.0 0.0001785 5627.03906 5706.96289
5679.0 0.0001761 5624.36328 5687.68018
5804.0 0.0001723 5621.68555 5673.39990
5680.0 0.0001761 5619.00684 5663.22803
5699.0 0.0001755 5616.32666 5655.89844
5721.0 0.0001748 5613.64551 5650.68311
5776.0 0.0001731 5610.96240 5646.82520
5731.0 0.0001745 5608.27930 5643.63232
5593.0 0.0001788 5605.59424 5640.43213
5666.0 0.0001765 5602.90820 5636.75488
5724.0 0.0001747 5600.22217 5632.57080
5724.0 0.0001747 5597.53320 5628.21631
5678.0 0.0001761 5594.84424 5624.05420
5397.0 0.0001853 5592.15332 5620.23096
5722.0 0.0001748 5589.46240 5616.61670
5555.0 0.0001800 5586.76953 5612.92578
5549.0 0.0001802 5584.07617 5608.66309
5598.0 0.0001786 5581.38281 5602.77979
5549.0 0.0001802 5578.68652 5597.57129
5635.0 0.0001775 5575.99072 5592.33740
5548.0 0.0001802 5573.29297 5587.31396
5666.0 0.0001765 5570.59521 5582.62305
5657.0 0.0001768 5567.89600 5578.29639
5458.0 0.0001832 5565.19629 5574.31592
5601.0 0.0001785 5562.49512 5570.62988
5643.0 0.0001772 5559.79395 5567.17676
5632.0 0.0001776 5557.09229 5563.89990
5585.0 0.0001791 5554.38867 5560.74268
5612.0 0.0001782 5551.68506 5557.67090
5367.0 0.0001863 5548.97998 5554.66016
5472.0 0.0001827 5546.27490 5551.69482
5590.0 0.0001789 5543.56885 5548.76367
5483.0 0.0001824 5540.86230 5545.86182
5535.0 0.0001807 5538.15430 5542.98291
5393.0 0.0001854 5535.44678 5540.12891
5594.0 0.0001788 5532.73828 5537.29248
5689.0 0.0001758 5530.02832 5534.47119
5575.0 0.0001794 5527.31934 5531.66504
5425.0 0.0001843 5524.60791 5528.86914
5524.0 0.0001810 5521.89746 5526.12061
5540.0 0.0001805 5519.18506 5523.33643
5471.0 0.0001828 5516.47363 5520.56104
5518.0 0.0001812 5513.76123 5517.79297
5431.0 0.0001841 5511.04736 5515.03906
5447.0 0.0001836 5508.33398 5512.29443
5717.0 0.0001749 5505.61963 5509.56348
5455.0 0.0001833 5502.90527 5506.84473
5543.0 0.0001804 5500.18945 5504.13916
5538.0 0.0001806 5497.47461 5501.44531
5471.0 0.0001828 5494.75830 5498.76611
5417.0 0.0001846 5492.04199 5496.10107
5457.0 0.0001833 5489.32617 5493.45068
5660.0 0.0001767 5486.60840 5490.81543
5445.0 0.0001837 5483.89160 5488.19873
5498.0 0.0001819 5481.17334 5485.60205
5495.0 0.0001820 5478.45605 5483.03027
5340.0 0.0001873 5475.73682 5480.48145
5448.0 0.0001836 5473.01855 5477.96582
5512.0 0.0001814 5470.29932 5475.48340
5369.0 0.0001863 5467.58057 5473.04492
5448.0 0.0001836 5464.86133 5470.65869
5600.0 0.0001786 5462.14160 5468.33496
5524.0 0.0001810 5459.42188 5466.09473
5548.0 0.0001802 5456.70117 5463.96875
5513.0 0.0001814 5453.98145 5462.00879
5495.0 0.0001820 5451.26074 5460.29980
5452.0 0.0001834 5448.54053 5458.98193
5330.0 0.0001876 5445.81982 5458.27002
5454.0 0.0001834 5443.09863 5458.46729
5411.0 0.0001848 5440.37793 5459.95215
5475.0 0.0001826 5437.65576 5463.13770
5421.0 0.0001845 5434.93555 5468.37158
5474.0 0.0001827 5432.21338 5475.79590
5263.0 0.0001900 5429.49219 5485.18994
5491.0 0.0001821 5426.76953 5495.74365
5621.0 0.0001779 5424.04883 5505.79688
5466.0 0.0001829 5421.32715 5512.70068
5530.0 0.0001808 5418.60498 5513.55371
5448.0 0.0001836 5415.88379 5507.22559
5522.0 0.0001811 5413.16113 5495.00732
5659.0 0.0001767 5410.43945 5479.98486
5434.0 0.0001840 5407.71680 5464.75244
5357.0 0.0001867 5404.99561 5450.91553
5370.0 0.0001862 5402.27295 5439.31738
5400.0 0.0001852 5399.55176 5430.01025
5540.0 0.0001805 5396.83057 5422.60693
5490.0 0.0001821 5394.10791 5417.31982
5265.0 0.0001899 5391.38623 5413.38672
5226.0 0.0001914 5388.66406 5410.37305
5413.0 0.0001847 5385.94287 5407.99170
5532.0 0.0001808 5383.22070 5406.26123
5381.0 0.0001858 5380.49951 5405.53418
5339.0 0.0001873 5377.77832 5406.42480
5488.0 0.0001822 5375.05615 5409.73633
5438.0 0.0001839 5372.33545 5416.37793
5493.0 0.0001820 5369.61377 5427.20117
5433.0 0.0001841 5366.89307 5442.74072
5490.0 0.0001821 5364.17139 5462.85400
5541.0 0.0001805 5361.45117 5486.30029
5474.0 0.0001827 5358.72998 5510.23828
5603.0 0.0001785 5356.00928 5529.80029
5592.0 0.0001788 5353.28955 5538.76953
5599.0 0.0001786 5350.56885 5532.81104
5533.0 0.0001807 5347.84863 5513.08057
5512.0 0.0001814 5345.12842 5485.19922
5323.0 0.0001879 5342.40918 5455.12451
5320.0 0.0001880 5339.68848 5426.88623
5364.0 0.0001864 5336.96973 5402.29932
5352.0 0.0001868 5334.24951 5382.63721
5361.0 0.0001865 5331.53125 5367.41260
5267.0 0.0001899 5328.81250 5355.90527
5290.0 0.0001890 5326.09326 5347.21729
5271.0 0.0001897 5323.37500 5340.50146
5417.0 0.0001846 5320.65625 5335.08447
5397.0 0.0001853 5317.93848 5330.48828
5389.0 0.0001856 5315.21973 5326.40771
5261.0 0.0001901 5312.50293 5322.66309
5255.0 0.0001903 5309.78564 5319.14063
5332.0 0.0001875 5307.06787 5315.78613
5275.0 0.0001896 5304.35156 5312.56006
5420.0 0.0001845 5301.63428 5309.43896
5389.0 0.0001856 5298.91797 5306.40820
5259.0 0.0001902 5296.20166 5303.45410
5304.0 0.0001885 5293.48584 5300.56201
5264.0 0.0001900 5290.76953 5297.74219
5280.0 0.0001894 5288.05469 5294.99707
5226.0 0.0001914 5285.33984 5292.30176
5341.0 0.0001872 5282.62402 5289.66943
5326.0 0.0001878 5279.90967 5287.10205
5295.0 0.0001889 5277.19531 5284.60400
5360.0 0.0001866 5274.48145 5282.17432
5226.0 0.0001914 5271.76709 5279.84814
5154.0 0.0001940 5269.05420 5277.63770
5420.0 0.0001845 5266.34033 5275.57568
5390.0 0.0001855 5263.62744 5273.72070
5299.0 0.0001887 5260.91553 5272.16406
5167.0 0.0001935 5258.20264 5271.04346
5296.0 0.0001888 5255.49121 5270.55127
5217.0 0.0001917 5252.77881 5270.94531
5315.0 0.0001881 5250.06836 5272.53857
5271.0 0.0001897 5247.35645 5275.65479
5368.0 0.0001863 5244.64600 5280.57520
5249.0 0.0001905 5241.93652 5287.45996
5289.0 0.0001891 5239.22559 5296.23389
5426.0 0.0001843 5236.51660 5306.43994
5350.0 0.0001869 5233.80664 5317.01123
5412.0 0.0001848 5231.09814 5326.13770
5352.0 0.0001868 5228.38916 5331.64551
5378.0 0.0001859 5225.68115 5332.26123
5363.0 0.0001865 5222.97266 5328.58008
5253.0 0.0001904 5220.26563 5322.38232
5182.0 0.0001930 5217.55859 5315.06641
5401.0 0.0001852 5214.85156 5306.84912
5228.0 0.0001913 5212.14551 5297.11230
5327.0 0.0001877 5209.43896 5285.48486
5252.0 0.0001904 5206.73389 5272.58496
5243.0 0.0001907 5204.02832 5259.57715
5295.0 0.0001889 5201.32373 5247.41113
5252.0 0.0001904 5198.61865 5236.58154
5184.0 0.0001929 5195.91504 5227.26709
5184.0 0.0001929 5193.21191 5219.46631
5173.0 0.0001933 5190.50830 5213.06641
5341.0 0.0001872 5187.80615 5207.88965
5118.0 0.0001954 5185.10303 5203.75049
5255.0 0.0001903 5182.40137 5200.51709
5135.0 0.0001947 5179.69971 5198.15723
5238.0 0.0001909 5176.99902 5196.78027
5239.0 0.0001909 5174.29883 5196.67773
5100.0 0.0001961 5171.59814 5198.34180
5143.0 0.0001944 5168.89941 5202.44482
5196.0 0.0001925 5166.19971 5209.75342
5101.0 0.0001960 5163.50146 5221.18799
5233.0 0.0001911 5160.80225 5236.59180
5277.0 0.0001895 5158.10547 5255.90820
5272.0 0.0001897 5155.40771 5277.52637
5270.0 0.0001898 5152.71143 5298.52637
5211.0 0.0001919 5150.01563 5314.55664
5259.0 0.0001902 5147.31934 5321.85840
5330.0 0.0001876 5144.62451 5319.85254
5336.0 0.0001874 5141.92969 5310.55859
5368.0 0.0001863 5139.23633 5295.69629
5234.0 0.0001911 5136.54199 5275.91309
5177.0 0.0001932 5133.84961 5252.44336
5339.0 0.0001873 5131.15674 5227.82617
5268.0 0.0001898 5128.46533 5204.64502
5161.0 0.0001938 5125.77441 5184.45898
5210.0 0.0001919 5123.08350 5167.80322
5101.0 0.0001960 5120.39355 5154.56641
5149.0 0.0001942 5117.70361 5144.29004
5126.0 0.0001951 5115.01514 5136.36816
5107.0 0.0001958 5112.32666 5130.16846
5179.0 0.0001931 5109.63916 5125.04688
5165.0 0.0001936 5106.95264 5120.67822
4930.0 0.0002028 5104.26611 5116.64941
5029.0 0.0001988 5101.58057 5112.76660
5211.0 0.0001919 5098.89502 5108.96191
5058.0 0.0001977 5096.21143 5105.23682
5198.0 0.0001924 5093.52734 5101.61572
5242.0 0.0001908 5090.84473 5098.11377
5070.0 0.0001972 5088.16162 5094.72949
5123.0 0.0001952 5085.48096 5091.46484
4990.0 0.0002004 5082.80029 5088.30420
5191.0 0.0001926 5080.11963 5085.35596
5109.0 0.0001957 5077.44092 5082.35693
5209.0 0.0001920 5074.76172 5079.41748
5114.0 0.0001955 5072.08447 5076.52686
5122.0 0.0001952 5069.40674 5073.67383
5100.0 0.0001961 5066.73096 5070.85693
5089.0 0.0001965 5064.05518 5068.06787
4986.0 0.0002006 5061.38086 5065.31055
5127.0 0.0001950 5058.70752 5062.58545
5171.0 0.0001934 5056.03369 5059.89600
5059.0 0.0001977 5053.36182 5057.26074
4975.0 0.0002010 5050.68994 5054.69922
5062.0 0.0001976 5048.02002 5052.24170
5168.0 0.0001935 5045.35010 5049.80225
5040.0 0.0001984 5042.68164 5047.69775
4979.0 0.0002008 5040.01416 5045.82910
5017.0 0.0001993 5037.34668 5044.20947
5023.0 0.0001991 5034.68115 5042.92285
5008.0 0.0001997 5032.01563 5041.66699
5050.0 0.0001980 5029.35205 5040.29932
4970.0 0.0002012 5026.68799 5038.55664
4944.0 0.0002023 5024.02637 5036.14453
5018.0 0.0001993 5021.36475 5032.97070
4966.0 0.0002014 5018.70459 5029.45898
5034.0 0.0001986 5016.04590 5025.46729
4917.0 0.0002034 5013.38672 5021.47998
5029.0 0.0001988 5010.72998 5017.65820
5071.0 0.0001972 5008.07324 5014.07080
5083.0 0.0001967 5005.41846 5010.73096
4995.0 0.0002002 5002.76367 5007.84326
5053.0 0.0001979 5000.11084 5004.91211
5036.0 0.0001986 4997.45850 5002.11279
5194.0 0.0001925 4994.80811 4999.41016
4889.0 0.0002045 4992.15869 4996.77197
5060.0 0.0001976 4989.50928 4994.18066
4878.0 0.0002050 4986.86230 4991.62793
4815.0 0.0002077 4984.21533 4989.10889
4941.0 0.0002024 4981.56982 4986.62354
4822.0 0.0002074 4978.92529 4984.18018
4921.0 0.0002032 4976.28271 4981.78369
5083.0 0.0001967 4973.64111 4979.54199
4976.0 0.0002010 4971.00000 4977.27441
5023.0 0.0001991 4968.36133 4975.08740
4941.0 0.0002024 4965.72217 4972.98633
5182.0 0.0001930 4963.08545 4970.97412
5070.0 0.0001972 4960.44922 4969.03271
4940.0 0.0002024 4957.81494 4967.13477
4976.0 0.0002010 4955.18115 4965.31885
4893.0 0.0002044 4952.54980 4963.35840
4954.0 0.0002019 4949.91895 4961.31641
5039.0 0.0001985 4947.28906 4959.24023
5035.0 0.0001986 4944.66113 4957.21826
4921.0 0.0002032 4942.03369 4955.35791
5037.0 0.0001985 4939.40820 4953.73975
4902.0 0.0002040 4936.78320 4952.49414
4984.0 0.0002006 4934.16064 4951.81250
4969.0 0.0002012 4931.53857 4951.99756
4928.0 0.0002029 4928.91846 4953.54834
5014.0 0.0001994 4926.29980 4957.22168
4904.0 0.0002039 4923.68164 4964.05811
4875.0 0.0002051 4921.06543 4975.31396
4950.0 0.0002020 4918.44971 4992.21680
5021.0 0.0001992 4915.83691 5015.60254
5069.0 0.0001973 4913.22363 5045.39355
5014.0 0.0001994 4910.61328 5080.05566
5179.0 0.0001931 4908.00439 5115.95459
5257.0 0.0001902 4905.39551 5146.77930
5074.0 0.0001971 4902.78906 5164.13281
5205.0 0.0001921 4900.18311 5161.33105
5117.0 0.0001954 4897.57959 5138.61475
5081.0 0.0001968 4894.97607 5102.94092
5071.0 0.0001972 4892.37549 5062.70654
5050.0 0.0001980 4889.77539 5024.14307
4936.0 0.0002026 4887.17725 4990.86133
4941.0 0.0002024 4884.58057 4964.46582
4999.0 0.0002000 4881.98438 4945.19580
4997.0 0.0002001 4879.39063 4932.48535
4880.0 0.0002049 4876.79736 4925.32471
4834.0 0.0002069 4874.20605 4922.99316
4944.0 0.0002023 4871.61621 4924.57227
4881.0 0.0002049 4869.02783 4929.30664
4956.0 0.0002018 4866.43994 4936.33398
5002.0 0.0001999 4863.85498 4944.44922
5000.0 0.0002000 4861.27100 4951.84521
5085.0 0.0001967 4858.68701 4956.09326
5127.0 0.0001950 4856.10645 4954.88916
4967.0 0.0002013 4853.52539 4947.46094
4849.0 0.0002062 4850.94678 4935.19727
5010.0 0.0001996 4848.36914 4920.53955
4921.0 0.0002032 4845.79346 4905.61816
4934.0 0.0002027 4843.21924 4891.78174
4835.0 0.0002068 4840.64502 4879.70752
4819.0 0.0002075 4838.07373 4869.60791
4877.0 0.0002050 4835.50244 4861.38037
5047.0 0.0001981 4832.93359 4854.74707
4864.0 0.0002056 4830.36475 4849.36475
4851.0 0.0002061 4827.79883 4844.90234
4819.0 0.0002075 4825.23291 4841.08203
4856.0 0.0002059 4822.66895 4837.70166
4766.0 0.0002098 4820.10693 4834.62061
4807.0 0.0002080 4817.54492 4831.74902
4767.0 0.0002098 4814.98486 4829.04199
4802.0 0.0002082 4812.42529 4826.45996
4876.0 0.0002051 4809.86816 4823.99463
4862.0 0.0002057 4807.31055 4821.63232
4769.0 0.0002097 4804.75586 4819.38477
4830.0 0.0002070 4802.20117 4817.22607
4833.0 0.0002069 4799.64844 4815.17139
4784.0 0.0002090 4797.09668 4813.22656
4900.0 0.0002041 4794.54541 4811.40234
4805.0 0.0002081 4791.99609 4809.71045
4733.0 0.0002113 4789.44678 4808.16309
4829.0 0.0002071 4786.89990 4806.78809
4678.0 0.0002138 4784.35303 4805.61035
4806.0 0.0002081 4781.80762 4804.66553
4774.0 0.0002095 4779.26318 4804.00732
4812.0 0.0002078 4776.71973 4803.71484
4876.0 0.0002051 4774.17725 4803.90186
4981.0 0.0002008 4771.63525 4804.87793
4833.0 0.0002069 4769.09521 4806.71094
4774.0 0.0002095 4766.55469 4809.97266
4809.0 0.0002079 4764.01563 4815.34375
4729.0 0.0002115 4761.47705 4823.75586
4837.0 0.0002067 4758.94043 4836.29004
4809.0 0.0002079 4756.40381 4854.46777
4920.0 0.0002033 4753.86719 4879.50781
4921.0 0.0002032 4751.33301 4912.41846
4813.0 0.0002078 4748.79785 4953.54883
4930.0 0.0002028 4746.26416 5002.13623
5016.0 0.0001994 4743.73047 5055.65430
5124.0 0.0001952 4741.19824 5109.04541
5181.0 0.0001930 4738.66553 5154.81348
5185.0 0.0001929 4736.13428 5185.83154
5287.0 0.0001891 4733.60400 5200.09473
5215.0 0.0001918 4731.07227 5201.80127
5227.0 0.0001913 4728.54248 5196.54004
5183.0 0.0001929 4726.01221 5186.09717
5103.0 0.0001960 4723.48340 5167.27832
5153.0 0.0001941 4720.95313 5135.31201
5125.0 0.0001951 4718.42480 5089.53760
5056.0 0.0001978 4715.89648 5035.21533
4888.0 0.0002046 4713.36768 4979.75342
4895.0 0.0002043 4710.83936 4928.90381
4805.0 0.0002081 4708.31104 4885.93066
4728.0 0.0002115 4705.78271 4852.24072
4884.0 0.0002048 4703.25439 4828.07617
4760.0 0.0002101 4700.72656 4813.01807
4690.0 0.0002132 4698.19775 4806.32959
4693.0 0.0002131 4695.66992 4807.19824
4733.0 0.0002113 4693.14209 4814.84863
4849.0 0.0002062 4690.61279 4828.52393
4847.0 0.0002063 4688.08398 4847.32666
4797.0 0.0002085 4685.55469 4869.94238
4892.0 0.0002044 4683.02588 4894.44873
4958.0 0.0002017 4680.49561 4918.87500
4924.0 0.0002031 4677.96533 4942.72803
4944.0 0.0002023 4675.43457 4967.73145
4952.0 0.0002019 4672.90381 4996.19824
4884.0 0.0002048 4670.37256 5028.52002
5042.0 0.0001983 4667.83984 5061.57275
4947.0 0.0002021 4665.30762 5088.27344
5070.0 0.0001972 4662.77393 5099.49512
5146.0 0.0001943 4660.23975 5087.32910
5080.0 0.0001969 4657.70459 5052.51660
5099.0 0.0001961 4655.16943 5002.48340
4922.0 0.0002032 4652.63330 4946.34766
4882.0 0.0002048 4650.09521 4890.98438
4800.0 0.0002083 4647.55713 4840.49121
4798.0 0.0002084 4645.01758 4796.97168
4743.0 0.0002108 4642.47754 4761.15967
4795.0 0.0002086 4639.93555 4732.74805
4740.0 0.0002110 4637.39355 4710.76270
4658.0 0.0002147 4634.84912 4693.93555
4688.0 0.0002133 4632.30469 4681.00830
4833.0 0.0002069 4629.75879 4670.89404
4699.0 0.0002128 4627.21094 4662.74414
4761.0 0.0002100 4624.66260 4655.93994
4576.0 0.0002185 4622.11182 4650.06152
4622.0 0.0002164 4619.56055 4644.82471
4784.0 0.0002090 4617.00684 4640.05078
4612.0 0.0002168 4614.45313 4635.62109
4509.0 0.0002218 4611.89648 4631.45557
4631.0 0.0002159 4609.33887 4627.50391
4732.0 0.0002113 4606.78027 4623.72656
4633.0 0.0002158 4604.21875 4620.09277
4663.0 0.0002145 4601.65625 4616.58203
4636.0 0.0002157 4599.09082 4613.17236
4736.0 0.0002111 4596.52539 4609.85205
4670.0 0.0002141 4593.95654 4606.61133
4586.0 0.0002181 4591.38672 4603.43896
4641.0 0.0002155 4588.81543 4600.32861
4602.0 0.0002173 4586.24121 4597.51025
4608.0 0.0002170 4583.66553 4594.50635
4725.0 0.0002116 4581.08691 4591.54980
4661.0 0.0002145 4578.50781 4588.63525
4534.0 0.0002206 4575.92529 4585.75635
4561.0 0.0002193 4573.34131 4582.91113
4633.0 0.0002158 4570.75488 4580.10205
4607.0 0.0002171 4568.16699 4577.18457
4607.0 0.0002171 4565.57666 4574.36377
4618.0 0.0002165 4562.98291 4571.64795
4572.0 0.0002187 4560.38867 4568.96826
4426.0 0.0002259 4557.79053 4566.46143
4515.0 0.0002215 4555.19141 4563.86768
4601.0 0.0002173 4552.58887 4561.33252
4586.0 0.0002181 4549.98486 4558.87842
4562.0 0.0002192 4547.37744 4556.52637
4547.0 0.0002199 4544.76904 4554.30273
4489.0 0.0002228 4542.15771 4552.22461
4581.0 0.0002183 4539.54346 4550.29932
4574.0 0.0002186 4536.92725 4548.50439
4561.0 0.0002193 4534.30811 4546.79102
4631.0 0.0002159 4531.68701 4545.06641
4478.0 0.0002233 4529.06250 4543.19189
4486.0 0.0002229 4526.43701 4541.04102
4544.0 0.0002201 4523.80859 4538.57910
4538.0 0.0002204 4521.17676 4535.91016
4526.0 0.0002209 4518.54395 4533.21436
4505.0 0.0002220 4515.90723 4530.65918
4532.0 0.0002207 4513.26855 4528.40039
4530.0 0.0002208 4510.62695 4526.59082
4502.0 0.0002221 4507.98389 4525.41992
4548.0 0.0002199 4505.33740 4525.13086
4532.0 0.0002207 4502.68896 4526.06592
4614.0 0.0002167 4500.03857 4528.63672
4586.0 0.0002181 4497.38477 4533.31396
4518.0 0.0002213 4494.72900 4540.52930
4575.0 0.0002186 4492.07031 4550.54688
4530.0 0.0002208 4489.41016 4563.32178
4666.0 0.0002143 4486.74609 4578.29443
4621.0 0.0002164 4484.08105 4594.17285
4461.0 0.0002242 4481.41309 4608.65723
4478.0 0.0002233 4478.74316 4618.50537
4667.0 0.0002143 4476.07129 4620.58398
4636.0 0.0002157 4473.39648 4613.79150
4565.0 0.0002191 4470.72021 4599.82666
4580.0 0.0002183 4468.04053 4581.75439
4515.0 0.0002215 4465.35986 4562.27734
4476.0 0.0002234 4462.67627 4543.19580
4624.0 0.0002163 4459.99121 4525.65723
4465.0 0.0002240 4457.30420 4510.29883
4560.0 0.0002193 4454.61475 4497.37891
4546.0 0.0002200 4451.92383 4486.79297
4436.0 0.0002254 4449.23047 4478.22070
4517.0 0.0002214 4446.53613 4471.26611
4481.0 0.0002232 4443.83887 4465.54297
4456.0 0.0002244 4441.14111 4460.73096
4474.0 0.0002235 4438.44043 4456.58545
4467.0 0.0002239 4435.73975 4452.93018
4496.0 0.0002224 4433.03711 4449.64111
4549.0 0.0002198 4430.33203 4446.63574
4375.0 0.0002286 4427.62695 4443.86328
4470.0 0.0002237 4424.91895 4441.28955
4398.0 0.0002274 4422.21094 4438.90234
4521.0 0.0002212 4419.50098 4436.69287
4461.0 0.0002242 4416.79102 4434.67090
4332.0 0.0002308 4414.07910 4432.85254
4419.0 0.0002263 4411.36719 4431.26367
4475.0 0.0002235 4408.65430 4429.95508
4507.0 0.0002219 4405.93994 4428.99854
4471.0 0.0002237 4403.22559 4428.51904
4293.0 0.0002329 4400.51025 4428.71924
4296.0 0.0002328 4397.79492 4429.91895
4567.0 0.0002190 4395.07861 4432.62256
4467.0 0.0002239 4392.36230 4437.12988
4468.0 0.0002238 4389.64697 4445.29248
4442.0 0.0002251 4386.92969 4457.89014
4310.0 0.0002320 4384.21387 4476.24414
4497.0 0.0002224 4381.49707 4501.55225
4490.0 0.0002227 4378.78174 4534.54346
4562.0 0.0002192 4376.06543 4575.06201
4677.0 0.0002138 4373.35107 4621.58447
4620.0 0.0002165 4370.63574 4670.58789
4711.0 0.0002123 4367.92236 4715.86816
4651.0 0.0002150 4365.20996 4748.51270
4725.0 0.0002116 4362.49756 4759.35986
4871.0 0.0002053 4359.78662 4744.20166
4688.0 0.0002133 4357.07666 4706.94043
4710.0 0.0002123 4354.36865 4656.64453
4571.0 0.0002188 4351.66113 4602.30713
4459.0 0.0002243 4348.95605 4550.25635
4445.0 0.0002250 4346.25146 4504.10889
4495.0 0.0002225 4343.55029 4465.46289
4449.0 0.0002248 4340.85059 4434.51709
4421.0 0.0002262 4338.15186 4410.56689
4285.0 0.0002334 4335.45703 4392.43652
4423.0 0.0002261 4332.76270 4378.79395
4403.0 0.0002271 4330.07227 4368.42480
4402.0 0.0002272 4327.38330 4360.32617
4409.0 0.0002268 4324.69824 4353.76172
4347.0 0.0002300 4322.01563 4348.22070
4334.0 0.0002307 4319.33545 4343.37256
4365.0 0.0002291 4316.65918 4339.01172
4433.0 0.0002256 4313.98535 4334.64355
4296.0 0.0002328 4311.31543 4330.95117
4340.0 0.0002304 4308.64844 4327.47705
4324.0 0.0002313 4305.98584 4324.20801
4327.0 0.0002311 4303.32617 4321.11865
4242.0 0.0002357 4300.67139 4318.19873
4452.0 0.0002246 4298.02051 4315.43555
4305.0 0.0002323 4295.37305 4312.82764
4302.0 0.0002325 4292.73096 4310.37549
4222.0 0.0002369 4290.09180 4308.08301
4306.0 0.0002322 4287.45850 4305.96289
4361.0 0.0002293 4284.82861 4304.02930
4343.0 0.0002303 4282.20508 4302.30957
4265.0 0.0002345 4279.58496 4300.84131
4233.0 0.0002362 4276.97119 4299.68896
4303.0 0.0002324 4274.36279 4298.95020
4323.0 0.0002313 4271.75781 4298.78223
4361.0 0.0002293 4269.15967 4299.44482
4333.0 0.0002308 4266.56592 4301.32080
4396.0 0.0002275 4263.97949 4304.97412
4284.0 0.0002334 4261.39697 4311.16064
4361.0 0.0002293 4258.82129 4320.80176
4370.0 0.0002288 4256.25195 4334.91602
4381.0 0.0002283 4253.68701 4354.43848
4279.0 0.0002337 4251.12939 4379.99121
4342.0 0.0002303 4248.57715 4411.57813
4275.0 0.0002339 4246.03271 4448.24756
4408.0 0.0002269 4243.49268 4487.65527
4467.0 0.0002239 4240.96045 4525.56885
4510.0 0.0002217 4238.43408 4555.70654
4591.0 0.0002178 4235.91504 4571.19238
4487.0 0.0002229 4233.40234 4568.18115
4523.0 0.0002211 4230.89600 4548.84424
4545.0 0.0002200 4228.39697 4519.96338
4425.0 0.0002260 4225.90381 4488.97803
4383.0 0.0002282 4223.41846 4461.35791
4484.0 0.0002230 4220.93945 4440.11279
4351.0 0.0002298 4218.46777 4426.10059
4522.0 0.0002211 4216.00244 4418.28760
4433.0 0.0002256 4213.54541 4413.93115
4480.0 0.0002232 4211.09521 4409.06348
4436.0 0.0002254 4208.65088 4399.83252
4492.0 0.0002226 4206.21484 4384.35352
4407.0 0.0002269 4203.78467 4363.48730
4445.0 0.0002250 4201.36279 4339.72607
4392.0 0.0002277 4198.94678 4315.68115
4334.0 0.0002307 4196.53906 4292.95410
4234.0 0.0002362 4194.13770 4272.63525
4130.0 0.0002421 4191.74316 4255.15674
4192.0 0.0002385 4189.35596 4240.54492
4236.0 0.0002361 4186.97510 4228.56641
4247.0 0.0002355 4184.60156 4218.83740
4159.0 0.0002404 4182.23438 4210.92041
4139.0 0.0002416 4179.87451 4204.38818
4245.0 0.0002356 4177.52051 4198.87891
4297.0 0.0002327 4175.17383 4194.10400
4198.0 0.0002382 4172.83398 4189.85156
4207.0 0.0002377 4170.49951 4185.97021
4237.0 0.0002360 4168.17188 4182.36230
4103.0 0.0002437 4165.84961 4178.96191
4262.0 0.0002346 4163.53467 4175.72803
4148.0 0.0002411 4161.22412 4172.62646
4268.0 0.0002343 4158.92041 4169.64551
4131.0 0.0002421 4156.62158 4166.77051
4106.0 0.0002435 4154.32910 4164.00195
4199.0 0.0002382 4152.04150 4161.33936
4140.0 0.0002415 4149.75879 4158.79443
4176.0 0.0002395 4147.48145 4156.38574
4162.0 0.0002403 4145.20801 4154.13379
4143.0 0.0002414 4142.94043 4152.06787
4178.0 0.0002393 4140.67578 4150.21240
4074.0 0.0002455 4138.41650 4148.58203
4228.0 0.0002365 4136.16064 4147.17627
4157.0 0.0002406 4133.90820 4145.96436
4108.0 0.0002434 4131.65918 4144.87305
4180.0 0.0002392 4129.41309 4143.77148
4149.0 0.0002410 4127.17090 4142.36328
4201.0 0.0002380 4124.92969 4140.60254
4177.0 0.0002394 4122.69238 4138.21387
4096.0 0.0002441 4120.45605 4135.18750
4133.0 0.0002420 4118.22217 4131.69678
4097.0 0.0002441 4115.98975 4127.97656
4172.0 0.0002397 4113.75781 4124.22705
4148.0 0.0002411 4111.52783 4120.58154
4013.0 0.0002492 4109.29736 4117.10791
4156.0 0.0002406 4107.06738 4113.83789
4151.0 0.0002409 4104.83691 4110.77100
4024.0 0.0002485 4102.60693 4107.88721
4018.0 0.0002489 4100.37451 4105.15723
4114.0 0.0002431 4098.14209 4102.54785
4002.0 0.0002499 4095.90845 4100.02979
4088.0 0.0002446 4093.67163 4097.57715
4047.0 0.0002471 4091.43335 4095.17261
4074.0 0.0002455 4089.19165 4092.80151
4031.0 0.0002481 4086.94751 4090.45557
4071.0 0.0002456 4084.69873 4088.12695
4093.0 0.0002443 4082.44702 4085.43335
4125.0 0.0002424 4080.19141 4083.14258
4100.0 0.0002439 4077.92969 4080.86450
4094.0 0.0002443 4075.66382 4078.60400
4002.0 0.0002499 4073.39185 4076.45947
4176.0 0.0002395 4071.11426 4074.24731
3999.0 0.0002501 4068.82959 4072.07690
4121.0 0.0002427 4066.53906 4070.01196
4077.0 0.0002453 4064.24023 4068.00854
4104.0 0.0002437 4061.93457 4066.15723
4124.0 0.0002425 4059.62109 4064.51831
4076.0 0.0002453 4057.29785 4063.15771
4140.0 0.0002415 4054.96655 4062.13892
4052.0 0.0002468 4052.62500 4061.49121
4090.0 0.0002445 4050.27490 4061.20117
4046.0 0.0002472 4047.91333 4061.17554
4104.0 0.0002437 4045.54199 4061.22266
4015.0 0.0002491 4043.15845 4061.02368
4151.0 0.0002409 4040.76489 4060.14966
4037.0 0.0002477 4038.35913 4058.18970
4038.0 0.0002476 4035.94019 4055.00269
4077.0 0.0002453 4033.51001 4050.82031
3965.0 0.0002522 4031.06519 4046.07886
4042.0 0.0002474 4028.60815 4041.18628
4126.0 0.0002424 4026.13672 4036.42676
4111.0 0.0002432 4023.65161 4031.96240
4017.0 0.0002489 4021.15186 4027.86206
4095.0 0.0002442 4018.63672 4024.12476
3947.0 0.0002534 4016.10742 4020.70898
4103.0 0.0002437 4013.56152 4017.54834
3936.0 0.0002541 4011.00073 4014.57617
3985.0 0.0002509 4008.42358 4011.73242
3889.0 0.0002571 4005.83032 4008.98315
4000.0 0.0002500 4003.21997 4006.26929
3920.0 0.0002551 4000.59375 4003.58398
4004.0 0.0002498 3997.95044 4000.91479
4003.0 0.0002498 3995.28882 3998.25171
3997.0 0.0002502 3992.61133 3995.59546
3949.0 0.0002532 3989.91479 3992.93896
4035.0 0.0002478 3987.20166 3990.28662
3885.0 0.0002574 3984.46973 3987.63599
3965.0 0.0002522 3981.72144 3984.99316
4060.0 0.0002463 3978.95386 3982.36011
3964.0 0.0002523 3976.16919 3979.74536
4064.0 0.0002461 3973.36694 3977.15796
4010.0 0.0002494 3970.54565 3974.60986
3875.0 0.0002581 3967.70728 3972.11890
3986.0 0.0002509 3964.85010 3969.70386
3958.0 0.0002527 3961.97656 3967.38892
3976.0 0.0002515 3959.08423 3965.19775
4017.0 0.0002489 3956.17554 3963.15894
3963.0 0.0002523 3953.25000 3961.30273
3995.0 0.0002503 3950.30615 3959.66211
4002.0 0.0002499 3947.34668 3958.27222
3976.0 0.0002515 3944.37012 3957.16528
3951.0 0.0002531 3941.37866 3956.37646
3938.0 0.0002539 3938.37012 3955.95752
3911.0 0.0002557 3935.34766 3956.01392
3886.0 0.0002573 3932.30981 3956.66113
4097.0 0.0002441 3929.25854 3957.95581
3985.0 0.0002509 3926.19336 3959.80151
3977.0 0.0002514 3923.11475 3961.88062
3934.0 0.0002542 3920.02417 3963.61011
3914.0 0.0002555 3916.92065 3964.20996
3997.0 0.0002502 3913.80737 3963.00537
3919.0 0.0002552 3910.68311 3959.81885
3889.0 0.0002571 3907.55005 3954.79663
4109.0 0.0002434 3904.40698 3949.00073
3855.0 0.0002594 3901.25781 3942.69678
3920.0 0.0002551 3898.10132 3936.31421
3871.0 0.0002583 3894.93799 3930.34082
3900.0 0.0002564 3891.77124 3925.31738
3876.0 0.0002580 3888.59912 3921.71045
3958.0 0.0002527 3885.42529 3919.83203
3944.0 0.0002535 3882.24902 3919.80884
3877.0 0.0002579 3879.07373 3921.57007
3922.0 0.0002550 3875.89893 3924.81152
3870.0 0.0002584 3872.72510 3928.81055
3815.0 0.0002621 3869.55591 3932.89868
3999.0 0.0002501 3866.39014 3935.60205
3977.0 0.0002514 3863.23169 3935.44775
3888.0 0.0002572 3860.07959 3931.44556
3993.0 0.0002504 3856.93799 3923.70947
4052.0 0.0002468 3853.80518 3913.34790
3936.0 0.0002541 3850.68555 3901.73950
3931.0 0.0002544 3847.57983 3890.04688
3934.0 0.0002542 3844.48755 3879.02075
3932.0 0.0002543 3841.41284 3869.07495
3806.0 0.0002627 3838.35522 3860.37256
3942.0 0.0002537 3835.31909 3852.90576
3812.0 0.0002623 3832.30273 3846.54785
3865.0 0.0002587 3829.31055 3841.11963
3812.0 0.0002623 3826.34253 3836.42334
3819.0 0.0002618 3823.40137 3832.28149
3716.0 0.0002691 3820.48804 3828.54736
3825.0 0.0002614 3817.60376 3825.11157
3802.0 0.0002630 3814.75122 3821.89941
3763.0 0.0002657 3811.93042 3818.86133
3767.0 0.0002655 3809.14551 3815.97192
3830.0 0.0002611 3806.39478 3813.21411
3775.0 0.0002649 3803.68262 3810.58740
3903.0 0.0002562 3801.00928 3808.09546
3872.0 0.0002583 3798.37500 3805.75122
3877.0 0.0002579 3795.78296 3803.58521
3816.0 0.0002621 3793.23267 3801.64526
3896.0 0.0002567 3790.72754 3800.01611
3875.0 0.0002581 3788.26636 3798.82642
3646.0 0.0002743 3785.85156 3798.27319
3730.0 0.0002681 3783.48291 3798.62378
3730.0 0.0002681 3781.16284 3800.21753
3807.0 0.0002627 3778.89063 3803.42993
3825.0 0.0002614 3776.66626 3808.61572
3768.0 0.0002654 3774.49170 3816.01294
3685.0 0.0002714 3772.36499 3825.61963
3824.0 0.0002615 3770.28809 3837.11035
3921.0 0.0002550 3768.25879 3849.63672
3848.0 0.0002599 3766.27905 3861.73413
3944.0 0.0002535 3764.34546 3871.23779
3988.0 0.0002508 3762.45898 3875.66431
3780.0 0.0002646 3760.61792 3873.29810
3883.0 0.0002575 3758.81958 3864.33252
3750.0 0.0002667 3757.06348 3850.73315
3855.0 0.0002594 3755.34668 3834.99902
3845.0 0.0002601 3753.66699 3819.19238
3887.0 0.0002573 3752.02051 3804.68237
3747.0 0.0002669 3750.40576 3792.24512
3775.0 0.0002649 3748.81763 3782.20508
3766.0 0.0002655 3747.25146 3774.57544
3746.0 0.0002670 3745.70361 3769.17798
3943.0 0.0002536 3744.16846 3765.74609
3845.0 0.0002601 3742.64014 3764.00415
3664.0 0.0002729 3741.11182 3763.69922
3736.0 0.0002677 3739.57788 3764.60889
3686.0 0.0002713 3738.02930 3766.49512
3846.0 0.0002600 3736.45850 3769.12231
3796.0 0.0002634 3734.85693 3772.10742
3758.0 0.0002661 3733.21313 3774.90698
3751.0 0.0002666 3731.51831 3776.77759
3781.0 0.0002645 3729.76001 3776.90063
3817.0 0.0002620 3727.92700 3774.71631
3720.0 0.0002688 3726.00488 3770.24805
3836.0 0.0002607 3723.98047 3764.06567
3831.0 0.0002610 3721.83765 3756.92139
3800.0 0.0002632 3719.56177 3749.45410
3655.0 0.0002736 3717.13428 3742.09106
3630.0 0.0002755 3714.53564 3735.07935
3737.0 0.0002676 3711.74878 3728.53979
3724.0 0.0002685 3708.74951 3722.48804
3703.0 0.0002701 3705.51831 3716.87207
3806.0 0.0002627 3702.02881 3711.59399
3654.0 0.0002737 3698.25806 3706.53979
3721.0 0.0002687 3694.17773 3701.59863
3572.0 0.0002800 3689.75830 3696.67578
3713.0 0.0002693 3684.97290 3691.70386
3672.0 0.0002723 3679.78516 3686.62939
3711.0 0.0002695 3674.16553 3681.42163
3731.0 0.0002680 3668.07471 3676.04980
3670.0 0.0002725 3661.47852 3670.48120
3677.0 . . .
loop_
_refln_index_h
_refln_index_k
_refln_index_l
_refln_observed_status
_refln_F_squared_meas
_refln_F_squared_calc
_refln_phase_calc
_refln_d_spacing
_gsas_i100_meas
2 0 0 o 6298.609 5940.038 0.00 6.22590 5.59
2 1 1 o 4531.046 3718.242 0.00 4.64446 3.86
2 2 0 o 73671.77 77176.05 180.00 4.40238 21.28
1 1 2 o 55690.19 55821.74 0.00 3.79757 27.41
2 0 2 o 70622.57 71352.98 180.00 3.48705 28.41
3 2 1 o 16740.127 16780.895 0.00 3.19511 11.44
4 0 0 o 48570.66 46724.73 0.00 3.11295 8.58
3 1 2 o 199899.45 201857.34 0.00 2.87554 100.00
4 1 1 o 94122.15 92455.56 180.00 2.84263 44.80
4 2 0 o 233598.25 239147.72 180.00 2.78431 57.15
2 1 3 o 60830.91 59653.89 0.00 2.50595 22.20
4 0 2 o 15342.559 15419.803 0.00 2.50285 3.24
3 3 2 o 99445.52 95789.38 180.00 2.40747 22.37
4 3 1 o 7691.539 9047.808 180.00 2.38806 2.92
4 2 2 o -2.643 79.302 180.00 2.32223 0.00
5 2 1 o 61331.70 60517.22 180.00 2.22967 17.95
4 4 0 o 42366.54 41439.32 0.00 2.20119 3.15
3 2 3 o 6614.286 6802.483 0.00 2.17784 2.09
5 1 2 o 37956.54 37197.49 0.00 2.11226 11.85
0 0 4 o 359059.8 333639.16 180.00 2.10461 11.76
6 0 0 o 363564.8 356427.3 0.00 2.07530 23.14
4 1 3 o 2823.915 2575.420 180.00 2.05570 0.42
6 1 1 o 502.749 627.835 0.00 1.98910 0.12
2 0 4 o 15867.859 23783.959 180.00 1.99377 2.65
6 2 0 o 24745.580 26713.482 180.00 1.96880 3.75
5 3 2 o 149480.66 147188.63 180.00 1.90440 33.23
5 4 1 o 3439.518 3793.238 180.00 1.89475 0.44
2 2 4 o 172778.83 180479.30 0.00 1.89879 19.99
4 3 3 o 9803.403 8750.781 0.00 1.86263 2.34
6 0 2 o 1.291 1.231 180.00 1.86136 0.00
3 1 4 o 2962.677 3562.468 0.00 1.85612 0.70
6 3 1 o 716.072 117.471 180.00 1.81267 0.16
5 2 3 o 2039.904 1678.970 0.00 1.78448 0.24
6 2 2 o 17437.889 12638.594 0.00 1.78337 3.81
4 0 4 o 2143.582 2904.275 180.00 1.74353 0.36
6 4 0 o 4379.502 3768.524 0.00 1.72676 0.58
4 2 4 o 38767.81 38803.22 0.00 1.67893 6.84
7 2 1 o 30274.475 32192.379 0.00 1.67614 4.95
6 1 3 o 762.129 1519.921 0.00 1.65379 0.13
5 5 2 o 21523.264 23195.234 0.00 1.62452 2.11
7 1 2 o 22226.260 23617.947 0.00 1.62452 4.26
2 1 5 o 35423.45 33963.438 180.00 1.61163 5.54
6 4 2 o 20105.418 20341.643 0.00 1.59755 3.60
5 4 3 o 37455.18 36694.39 0.00 1.59836 5.79
5 1 4 o 9.961 12.925 0.00 1.59423 0.00
6 5 1 o 472.445 1280.921 180.00 1.56645 0.07
8 0 0 o 10830.482 16973.439 0.00 1.55648 0.60
6 3 3 o 230.257 97.671 0.00 1.54815 0.04
7 3 2 o 83210.53 76202.34 180.00 1.52406 12.49
7 4 1 o 1669.041 1568.508 0.00 1.51910 0.13
4 4 4 o 105421.17 92187.51 180.00 1.52118 8.23
8 1 1 o 24706.100 22056.660 0.00 1.51910 3.46
8 2 0 o 115444.75 119496.07 180.00 1.51000 8.81
3 2 5 o 3622.817 3454.797 0.00 1.51341 0.59
5 3 4 o 1064.774 1220.339 0.00 1.49897 0.17
6 0 4 o 459636.5 465823.6 180.00 1.47771 32.87
6 6 0 o 430612.6 477533.9 180.00 1.46746 15.15
4 1 5 o 2265.183 2368.358 0.00 1.47058 0.18
7 2 3 o 722.282 679.536 180.00 1.46048 0.05
8 0 2 o 11519.300 10230.101 0.00 1.45986 0.89
8 3 1 o 3360.747 2527.208 0.00 1.43601 0.50
6 2 4 o 4575.000 3222.023 0.00 1.43777 0.86
8 2 2 o -1.306 24.131 0.00 1.42131 0.00
8 4 0 o 26040.328 25981.637 0.00 1.39215 1.66
4 3 5 o 4812.490 4196.790 180.00 1.39482 0.70
6 5 3 o 188.886 173.361 180.00 1.38619 0.02
1 1 6 o 24014.219 23482.738 180.00 1.38559 1.75
7 5 2 o 20397.559 19283.396 0.00 1.36882 2.94
2 0 6 o 3368.708 3143.285 180.00 1.36875 0.25
5 2 5 o 1328.332 1711.001 0.00 1.36108 0.07
8 1 3 o 537.978 500.682 0.00 1.35306 0.03
7 4 3 o 25058.518 21547.258 180.00 1.35306 2.93
7 1 4 o 8.169 5.045 180.00 1.35055 0.00
7 6 1 o 874.183 733.714 0.00 1.33354 0.11
6 4 4 o 16265.306 15195.398 180.00 1.33494 2.46
9 2 1 o 2088.453 1727.340 180.00 1.33354 0.27
8 4 2 o 225.624 232.289 0.00 1.32174 0.03
3 1 6 o 55776.83 57093.07 180.00 1.32167 6.59
8 5 1 o 599.568 835.575 180.00 1.30396 0.02
9 1 2 o 56705.50 59729.02 0.00 1.30709 6.59
6 1 5 o 29.347 715.401 180.00 1.30035 0.00
8 3 3 o 1444.108 2488.321 180.00 1.29335 0.20
7 3 4 o 492.057 1463.847 0.00 1.29116 0.07
4 0 6 o 17118.725 17065.637 0.00 1.27915 1.09
5 4 5 o 24636.285 21650.086 0.00 1.27289 2.69
3 3 6 o 10433.224 11362.024 0.00 1.26586 0.92
9 4 1 o 4097.475 3586.031 0.00 1.25027 0.52
9 3 2 o 17586.979 16077.558 180.00 1.25303 2.78
4 2 6 o 76.653 72.385 180.00 1.25297 0.01
8 0 4 o 3388.369 3113.580 180.00 1.25143 0.28
8 6 0 o 4213.901 3907.925 180.00 1.24518 0.33
6 3 5 o 56.064 40.282 180.00 1.24709 0.01
10 0 0 o 2930.412 2788.448 0.00 1.24518 0.11
8 2 4 o 20121.928 19599.252 0.00 1.22689 2.15
10 1 1 o 1774.981 1511.032 180.00 1.22580 0.12
10 2 0 o 15309.028 16866.311 180.00 1.22100 0.83
7 6 3 o 101.784 105.087 180.00 1.21697 0.01
9 2 3 o 2891.983 3003.974 180.00 1.21697 0.36
5 1 6 o 17087.221 16368.018 180.00 1.21656 2.13
7 7 2 o 9115.340 11295.357 180.00 1.20516 0.57
6 6 4 o 75701.75 80308.70 0.00 1.20374 3.68
7 2 5 o 712.468 763.567 180.00 1.19988 0.03
8 5 3 o 11881.599 10419.301 180.00 1.19437 1.18
8 6 2 o 10086.645 8962.435 0.00 1.19403 1.19
7 5 4 o 10.934 15.461 180.00 1.19264 0.00
10 0 2 o 8583.225 7550.429 180.00 1.19403 0.50
10 3 1 o 2528.489 2505.267 0.00 1.18088 0.30
10 2 2 o 176.932 158.318 0.00 1.17266 0.02
2 1 7 o 374.788 360.738 180.00 1.17553 0.02
5 3 6 o 49883.42 44923.16 0.00 1.17261 5.15
9 5 2 o 44152.46 47515.29 0.00 1.16240 4.47
8 4 4 o 54790.42 56317.90 180.00 1.16112 5.90
8 7 1 o 402.728 407.190 180.00 1.16019 0.02
6 0 6 o 0.019 0.020 0.00 1.16235 0.00
6 5 5 o 81.976 91.144 0.00 1.15765 0.01
10 4 0 o 31489.766 34177.715 0.00 1.15612 1.70
9 4 3 o 1059.056 1337.871 0.00 1.15270 0.12
9 1 4 o 360.618 614.401 0.00 1.15115 0.04
9 6 1 o 22.225 35.033 180.00 1.14056 0.00
6 2 6 o 11462.281 10518.308 0.00 1.14261 1.30
8 1 5 o 631.963 605.121 180.00 1.13814 0.03
7 4 5 o 14183.427 13105.943 180.00 1.13814 1.34
10 1 3 o 14242.753 14444.547 180.00 1.13344 1.34
3 2 7 o 2217.698 1804.547 0.00 1.13574 0.25
10 4 2 o 9.159 17.959 0.00 1.11483 0.00
4 1 7 o 11272.383 10951.982 0.00 1.11730 1.04
9 3 4 o -0.016 0.420 0.00 1.11370 0.00
10 5 1 o 16924.490 13696.723 0.00 1.10410 1.62
11 2 1 o 805.921 713.495 180.00 1.10410 0.05
8 8 0 o 11952.021 12573.629 0.00 1.10059 0.29
8 3 5 o 1516.250 1312.008 0.00 1.10191 0.17
10 3 3 o 1437.479 1611.923 180.00 1.09764 0.16
7 1 6 o 10833.481 12314.409 180.00 1.09734 1.25
5 5 6 o 9360.133 10710.988 180.00 1.09734 0.56
11 1 2 o 10718.450 9673.529 0.00 1.08895 1.25
6 4 6 o 947.859 852.970 0.00 1.08892 0.12
8 7 3 o 6620.632 6614.403 180.00 1.08097 0.59
4 3 7 o 29.093 1336.684 0.00 1.08297 0.01
8 6 4 o 5786.932 6272.050 0.00 1.07166 0.79
10 0 4 o 9640.347 10335.228 180.00 1.07166 0.60
10 6 0 o 9988.046 10513.501 180.00 1.06773 0.62
9 6 3 o 14.583 14.435 180.00 1.06504 0.00
5 2 7 o 7726.874 7730.854 180.00 1.06695 0.70
7 3 6 o 27376.227 26731.955 0.00 1.06476 2.71
9 7 2 o 27655.734 27266.875 180.00 1.05710 2.74
11 4 1 o 10075.302 9963.031 180.00 1.05544 0.93
11 3 2 o 38662.71 38069.22 180.00 1.05710 3.76
10 2 4 o 33924.680 32161.795 0.00 1.05613 3.54
7 6 5 o 48.070 48.887 180.00 1.05352 0.00
9 2 5 o 1536.069 1569.272 180.00 1.05352 0.18
9 5 4 o 529.207 260.611 0.00 1.04862 0.06
0 0 8 o 136447.75 128765.64 0.00 1.05230 1.69
8 0 6 o 5831.794 6841.499 0.00 1.04215 0.33
8 5 5 o 7061.235 6840.930 0.00 1.03875 0.64
12 0 0 o 125076.35 138183.09 0.00 1.03765 3.08
10 5 3 o 725.633 703.545 0.00 1.03517 0.04
11 2 3 o 7854.915 7427.199 0.00 1.03517 0.72
2 0 8 o 1080.319 1303.546 0.00 1.03759 0.09
10 6 2 o 1593.130 1431.235 180.00 1.03496 0.18
6 1 7 o 44.641 50.845 180.00 1.03693 0.00
9 8 1 o 2285.272 1182.408 180.00 1.02635 0.26
12 1 1 o 1802.928 1009.734 0.00 1.02635 0.19
8 2 6 o 92.458 31.301 0.00 1.02785 0.01
12 2 0 o 2576.852 2349.879 180.00 1.02353 0.18
2 2 8 o 13966.313 13280.081 180.00 1.02347 0.69
5 4 7 o 453.112 401.021 180.00 1.02284 0.02
10 7 1 o 9797.983 8937.447 0.00 1.01268 0.91
3 1 8 o 1001.238 791.831 180.00 1.01663 0.11
10 4 4 o 8157.218 9343.639 180.00 1.01330 0.83
9 4 5 o 1198.853 799.077 0.00 1.01099 0.13
12 0 2 o 0.203 0.230 0.00 1.00749 0.00
7 5 6 o 8512.760 9441.669 180.00 1.00746 1.00
6 3 7 o 19.423 14.272 0.00 1.00931 0.00
11 5 2 o 5203.564 6169.498 0.00 1.00096 0.65
12 3 1 o 48.390 72.236 0.00 0.99955 0.01
10 1 5 o 9389.167 8994.480 0.00 0.99792 0.88
4 0 8 o 6873.989 5767.317 0.00 0.99689 0.44
11 4 3 o 447.255 455.999 0.00 0.99475 0.02
12 2 2 o 3973.482 3764.978 180.00 0.99455 0.45
11 1 4 o 8.696 8.360 0.00 0.99375 0.00
11 6 1 o 36.138 27.887 180.00 0.98691 0.00
8 4 6 o -0.568 12.599 0.00 0.98824 0.00
12 4 0 o 6743.601 6593.941 0.00 0.98440 0.44
7 2 7 o 5348.273 5007.301 0.00 0.98378 0.49
4 2 8 o 31405.943 30458.105 180.00 0.98435 3.38
9 1 6 o 20057.631 21357.426 180.00 0.98207 2.03
8 8 4 o 33658.750 31325.846 180.00 0.97529 1.82
10 8 0 o 24798.328 24916.490 0.00 0.97232 1.36
10 3 5 o 1039.494 933.949 0.00 0.97323 0.12
9 8 3 o 815.045 452.946 180.00 0.97028 0.09
9 7 4 o 312.675 358.243 180.00 0.96936 0.04
12 1 3 o 235.931 139.140 0.00 0.97028 0.02
11 3 4 o 87.049 104.676 0.00 0.96936 0.01
5 1 8 o -0.104 2.362 180.00 0.96640 0.00
8 7 5 o 3623.953 4422.257 0.00 0.96155 0.33
10 7 3 o 441.972 429.071 0.00 0.95871 0.02
12 4 2 o 1322.582 1318.202 180.00 0.95854 0.16
6 5 7 o 79.010 164.928 0.00 0.96010 0.01
9 3 6 o 3579.647 3609.343 0.00 0.95851 0.63
9 9 2 o 7061.974 5011.264 0.00 0.95291 0.54
10 6 4 o 1580.245 1516.512 0.00 0.95220 0.23
12 5 1 o 120.160 120.050 180.00 0.95169 0.01
9 6 5 o 9.743 16.570 180.00 0.95029 0.00
10 8 2 o 121.215 60.338 0.00 0.94738 0.01
12 3 3 o 63.719 46.828 180.00 0.94754 0.01
4 4 8 o 9020.186 9858.545 0.00 0.94939 0.49
8 1 7 o 3887.716 3520.790 180.00 0.94889 0.38
7 4 7 o 233.112 221.360 0.00 0.94889 0.01
5 3 8 o -14.922 329.469 180.00 0.94392 0.00
13 2 1 o 356.520 192.174 0.00 0.94076 0.03
11 6 3 o 168.952 129.320 0.00 0.93676 0.02
6 0 8 o 23881.252 23250.313 0.00 0.93854 1.18
7 7 6 o 8982.798 6337.282 0.00 0.93657 0.57
11 7 2 o 5851.953 6020.989 180.00 0.93134 0.78
13 1 2 o 4937.606 5108.544 0.00 0.93134 0.65
10 0 6 o 199.258 206.977 180.00 0.93132 0.02
8 6 6 o 1173.464 1212.062 0.00 0.93132 0.16
12 0 4 o 25258.939 26558.355 180.00 0.93068 1.27
12 6 0 o 29061.541 28073.270 180.00 0.92810 1.50
11 2 5 o 4522.786 4934.881 0.00 0.92889 0.47
10 5 5 o 533.871 559.214 180.00 0.92889 0.03
6 2 8 o 3670.711 3534.320 180.00 0.92806 0.56
8 3 7 o 550.172 468.401 180.00 0.92759 0.07
11 5 4 o 4.736 1.493 0.00 0.92552 0.00
10 9 1 o 738.123 627.417 0.00 0.91999 0.09
10 2 6 o 19.733 14.985 0.00 0.92107 0.00
2 1 9 o 376.172 391.663 0.00 0.92246 0.02
12 2 4 o 4297.076 4130.701 0.00 0.92045 0.66
9 5 6 o 16890.914 17144.434 180.00 0.91607 1.96
13 3 2 o 12296.520 13332.629 180.00 0.91117 1.48
11 8 1 o 3865.859 3475.923 0.00 0.91011 0.43
13 4 1 o 4824.823 4309.658 0.00 0.91011 0.53
12 5 3 o 472.016 490.812 180.00 0.90648 0.06
12 6 2 o 0.460 0.777 0.00 0.90633 0.00
7 1 8 o 3.372 1.067 0.00 0.90331 0.00
3 2 9 o 1131.856 598.515 0.00 0.90285 0.16
11 4 5 o 486.277 395.766 0.00 0.89935 0.04
7 6 7 o 94.004 124.639 0.00 0.89816 0.01
9 2 7 o 269.769 371.162 180.00 0.89816 0.04
13 2 3 o 3649.078 3257.145 180.00 0.89702 0.42
6 4 8 o 872.184 972.149 0.00 0.89859 0.17
12 7 1 o 63.910 76.363 180.00 0.89126 0.01
10 4 6 o 17.762 14.645 0.00 0.89224 0.00
4 1 9 o 4653.131 4732.882 180.00 0.89351 0.55
12 4 4 o 1324.828 1274.263 180.00 0.89168 0.24
