#------------------------------------------------------------------------------
#$Date: 2021-04-16 11:25:30 +0300 (Fri, 16 Apr 2021) $
#$Revision: 264239 $
#$URL: file:///home/coder/svn-repositories/cod/cif/1/56/18/1561850.cif $
#------------------------------------------------------------------------------
#
# This file is available in the Crystallography Open Database (COD),
# http://www.crystallography.net/
#
# All data on this site have been placed in the public domain by the
# contributors.
#
data_1561850
loop_
_publ_author_name
'Abeysinghe, Dileka'
'Gerke, Birgit'
'Morrison, Gregory'
'Hsieh, Chun H.'
'Smith, Mark D.'
'P\"ottgen, Rainer'
'Makris, Thomas M.'
'zur Loye, Hans-Conrad'
_publ_section_title
;
 Synthesis, characterization, and properties of reduced europium
 molybdates and tungstates
;
_journal_name_full               'Journal of Solid State Chemistry'
_journal_page_first              173
_journal_page_last               180
_journal_paper_doi               10.1016/j.jssc.2015.05.014
_journal_volume                  229
_journal_year                    2015
_chemical_formula_moiety         'Eu O4 W'
_chemical_formula_sum            'Eu O4 W'
_chemical_formula_weight         399.81
_space_group_crystal_system      tetragonal
_space_group_IT_number           88
_space_group_name_Hall           '-I 4ad'
_space_group_name_H-M_alt        'I 41/a :2'
_atom_sites_solution_hydrogens   .
_audit_creation_method           SHELXL-2014/6
_cell_angle_alpha                90
_cell_angle_beta                 90
_cell_angle_gamma                90
_cell_formula_units_Z            4
_cell_length_a                   5.4145(3)
_cell_length_b                   5.4145(3)
_cell_length_c                   11.9494(11)
_cell_measurement_reflns_used    920
_cell_measurement_temperature    296(2)
_cell_measurement_theta_max      35.039
_cell_measurement_theta_min      3.410
_cell_volume                     350.32(4)
_computing_cell_refinement       'SAINT-Plus Version 6.45 (Bruker, 2001)'
_computing_data_collection       'SMART Version 5.631 (Bruker, 2001)'
_computing_data_reduction        'SAINT-Plus Version 6.45 (Bruker, 2001)'
_computing_molecular_graphics    various
_computing_publication_material  various
_computing_structure_refinement  'SHELXL-2014/6 (Sheldrick, 2014)'
_computing_structure_solution    'SHELXS97 (Sheldrick, 2008)'
_diffrn_ambient_temperature      296(2)
_diffrn_measured_fraction_theta_full 0.994
_diffrn_measured_fraction_theta_max 0.972
_diffrn_measurement_device_type  'Bruker SMART APEX CCD diffractometer'
_diffrn_measurement_method       'omega and phi scans'
_diffrn_radiation_type           MoK\a
_diffrn_radiation_wavelength     0.71073
_diffrn_reflns_av_R_equivalents  0.0286
_diffrn_reflns_av_unetI/netI     0.0211
_diffrn_reflns_Laue_measured_fraction_full 0.994
_diffrn_reflns_Laue_measured_fraction_max 0.972
_diffrn_reflns_limit_h_max       7
_diffrn_reflns_limit_h_min       -8
_diffrn_reflns_limit_k_max       8
_diffrn_reflns_limit_k_min       -6
_diffrn_reflns_limit_l_max       19
_diffrn_reflns_limit_l_min       -17
_diffrn_reflns_number            2930
_diffrn_reflns_point_group_measured_fraction_full 0.994
_diffrn_reflns_point_group_measured_fraction_max 0.972
_diffrn_reflns_theta_full        25.242
_diffrn_reflns_theta_max         35.039
_diffrn_reflns_theta_min         4.132
_diffrn_source                   'sealed tube'
_exptl_absorpt_coefficient_mu    50.388
_exptl_absorpt_correction_T_max  1.0000
_exptl_absorpt_correction_T_min  0.3580
_exptl_absorpt_correction_type   multi-scan
_exptl_absorpt_process_details   'SADABS Version 2.05 (Bruker, 2001)'
_exptl_crystal_colour            orange
_exptl_crystal_density_diffrn    7.581
_exptl_crystal_description       prism
_exptl_crystal_F_000             676
_exptl_crystal_size_max          0.140
_exptl_crystal_size_mid          0.100
_exptl_crystal_size_min          0.080
_refine_diff_density_max         3.175
_refine_diff_density_min         -1.918
_refine_diff_density_rms         0.507
_refine_ls_extinction_coef       0.0096(6)
_refine_ls_extinction_expression Fc^*^=kFc[1+0.001xFc^2^\l^3^/sin(2\q)]^-1/4^
_refine_ls_extinction_method     SHELXL
_refine_ls_goodness_of_fit_ref   1.130
_refine_ls_hydrogen_treatment    undef
_refine_ls_matrix_type           full
_refine_ls_number_parameters     15
_refine_ls_number_reflns         382
_refine_ls_number_restraints     0
_refine_ls_restrained_S_all      1.130
_refine_ls_R_factor_all          0.0410
_refine_ls_R_factor_gt           0.0263
_refine_ls_shift/su_max          0.000
_refine_ls_shift/su_mean         0.000
_refine_ls_structure_factor_coef Fsqd
_refine_ls_weighting_details
'w=1/[\s^2^(Fo^2^)+(0.0321P)^2^+0.9525P] where P=(Fo^2^+2Fc^2^)/3'
_refine_ls_weighting_scheme      calc
_refine_ls_wR_factor_gt          0.0677
_refine_ls_wR_factor_ref         0.0750
_reflns_number_gt                268
_reflns_number_total             382
_reflns_threshold_expression     'I > 2\s(I)'
_cod_data_source_file            JSSC-2015-229-173.cif
_cod_data_source_block           da1133a4
_cod_original_cell_volume        350.32(5)
_cod_original_sg_symbol_H-M      'I 41/a'
_cod_database_code               1561850
_shelx_space_group_comment
; 
The symmetry employed for this shelxl refinement is uniquely defined 
by the following loop, which should always be used as a source of 
symmetry information in preference to the above space-group names. 
They are only intended as comments. 
;
_shelx_estimated_absorpt_t_min   0.054
_shelx_estimated_absorpt_t_max   0.107
_shelxl_version_number           2014/6
_shelx_res_file
; 
TITL DA1133A4 in I4(1)/a 
CELL 0.71073   5.4145   5.4145  11.9494  90.000  90.000  90.000 
ZERR    4.00   0.0003   0.0003   0.0011   0.000   0.000   0.000 
LATT  2 
SYMM 0.5-X, -Y, 0.5+Z 
SYMM 0.75-Y, 0.25+X, 0.25+Z 
SYMM 0.75+Y, 0.75-X, 0.75+Z 
SFAC O EU W 
UNIT 16 4 4 
LIST 4 
TEMP 23 
  
L.S. 7 
BOND 
FMAP 2 
PLAN 9 
ACTA 
SIZE 0.14         0.10         0.08 
REM orange prism 
REM 920 refl / 2th = 6.820 - 70.078 
REM sadabs 0.358014 
WGHT    0.032100    0.952500 
EXTI    0.009558 
FVAR       0.28535 
W1    3    0.000000    0.250000    0.125000    10.25000    0.00813    0.00813 = 
         0.01164    0.00000    0.00000    0.00000 
EU1   2    0.000000    0.250000    0.625000    10.25000    0.01013    0.01013 = 
         0.01062    0.00000    0.00000    0.00000 
O1    1    0.139259    0.013903    0.206723    11.00000    0.01109    0.01416 = 
         0.01390    0.00010    0.00019    0.00231 
HKLF 4 
  
REM  DA1133A4 in I4(1)/a 
REM R1 =  0.0263 for     268 Fo > 4sig(Fo)  and  0.0410 for all     382 data 
REM     15 parameters refined using      0 restraints 
  
END 
  
WGHT      0.0321      0.9518 
  
REM Highest difference peak  3.175,  deepest hole -1.918,  1-sigma level  0.507 
Q1    1   0.1069  0.3226  0.1249  11.00000  0.05    3.17 
Q2    1   0.0000  0.2500  0.0750  10.50000  0.05    3.11 
Q3    1   0.0000  0.2500  0.5750  10.50000  0.05    3.02 
Q4    1  -0.1089  0.1861  0.6249  11.00000  0.05    2.54 
Q5    1   0.0000  0.2500  0.5079  10.50000  0.05    1.26 
Q6    1  -0.1785  0.2511  0.0994  11.00000  0.05    1.21 
Q7    1  -0.0201  0.1110  0.5858  11.00000  0.05    1.16 
Q8    1   0.0000  0.2500  0.0070  10.50000  0.05    1.14 
Q9    1   0.1999  0.1179  0.2056  11.00000  0.05    1.14 
;
_shelx_res_checksum              40978
_shelx_hkl_file
; 
  -2   0   0 7684.91  166.29   5 
   0   2   0 7708.04  151.69   5 
  -2   0   0 7713.20  150.33   6 
   0  -2   0 7568.05  162.50   6 
   0   2   0 7851.73  172.85   4 
   2   0   0 7882.20  151.75   4 
  -2   2   0 9096.97  185.61   2 
  -2  -2   0 8962.83  207.92   6 
  -2   2   0 9122.18  170.08   1 
   2   2   0 8864.07  188.88   1 
   2   2   0 8831.42  214.38   4 
  -2   2   0 8769.49  199.99   5 
  -2   2   0 8883.47  173.98   4 
   3   1   0   -2.01    6.63   4 
  -1   3   0   10.70    6.34   2 
  -1   3   0   -8.25    5.17   4 
   1  -3   0    4.94    6.11   6 
  -1   3   0   -4.84    3.81   5 
  -1   3   0   14.33    8.56   1 
  -3  -1   0   -5.01    5.15   6 
  -3  -1   0   -5.49    5.43   5 
  -3   1   0    1.46    6.05   2 
  -3   1   0   -7.45    5.82   5 
   3  -1   0   -8.05    2.95   4 
  -1  -3   0    7.72    8.84   6 
   1   3   0  -11.35    4.47   1 
  -3   1   0    2.13    4.67   6 
   1   3   0    4.52    7.51   4 
   1   3   0    0.13    3.57   5 
  -3   3   0    7.45    6.11   2 
   3   3   0    9.04    8.15   1 
  -3  -3   0  -15.95    6.53   6 
  -3   3   0  -10.19    5.91   1 
  -3   3   0    7.16    6.66   4 
  -3   3   0   -2.89    6.87   5 
   3   3   0  -12.94    6.03   4 
  -2   4   0 7161.62  169.90   1 
  -4  -2   0 6786.02  192.48   6 
  -4  -2   0 6814.03  164.59   5 
  -2   4   0 6957.61  175.14   2 
   4   2   0 7023.67  165.58   1 
   4   2   0 6894.58  195.56   4 
  -2   4   0 6916.35  186.95   5 
  -2   4   0 6762.06  171.00   4 
   0   4   0 7054.71  195.68   4 
   0  -4   0 6605.07  179.53   6 
   4   0   0 6872.60  161.24   4 
   0   4   0 6796.84  152.62   5 
  -4   0   0 6486.94  180.36   5 
  -4   0   0 7066.38  167.24   6 
   0   4   0 7006.61  148.62   2 
   0   4   0 6700.83  179.83   1 
  -4   0   0 6820.78  157.75   2 
  -2  -4   0 6602.05  192.35   6 
  -4   2   0 6248.34  188.61   5 
   2   4   0 6345.38  175.33   1 
  -4   2   0 6418.02  130.18   1 
  -4   2   0 6564.83  169.52   2 
   2   4   0 6336.05  195.79   4 
  -4   4   0 3663.84  104.99   1 
   4   4   0 3660.59  142.18   4 
  -4  -4   0 3860.28  149.36   6 
  -4   4   0 3634.36  134.78   2 
   4   4   0 3613.98  122.75   1 
  -4   4   0 3746.17  152.37   5 
   5   3   0  -18.17   10.88   4 
  -3   5   0  -21.96   11.52   5 
  -3   5   0    3.76    8.76   1 
  -3   5   0    5.51   10.00   2 
  -3   5   0    0.52    5.91   4 
  -5  -3   0    7.68   10.34   6 
  -1   5   0   -6.78    6.77   2 
  -1   5   0   -2.23    9.60   1 
  -1   5   0    0.28    6.19   4 
  -5  -1   0   12.50   10.55   5 
  -5  -1   0  -10.86    6.47   6 
  -1   5   0  -12.11    6.45   5 
  -5  -1   0   10.67    8.86   2 
   5   1   0    3.88    9.75   4 
   1  -5   0   -1.09    7.78   6 
  -5   1   0    1.87    7.65   2 
  -5   1   0   15.05    7.97   6 
   1   5   0   -0.63    8.90   1 
  -5   1   0   13.57   10.87   5 
  -1  -5   0   -8.85    8.05   6 
   1   5   0    0.60    7.26   4 
  -5   3   0   -8.47   11.72   5 
   3   5   0    1.39    9.63   1 
   3   5   0   14.36   14.36   4 
  -5   3   0    4.64   10.41   2 
   5   5   0   -8.73   15.08   4 
  -5  -5   0   -5.09   12.96   6 
  -5   5   0   11.21   12.72   2 
  -5   5   0   14.36   17.65   5 
  -4   6   0 3401.70  144.57   2 
  -6  -4   0 3285.70  147.68   6 
  -4   6   0 3550.07  158.02   5 
  -4   6   0 2948.36  111.59   1 
  -6  -2   0 3490.53  141.18   6 
  -2   6   0 3324.06  125.01   2 
  -2   6   0 3202.11  122.18   1 
  -6   0   0 3882.64  148.06   5 
  -6   0   0 3841.62  133.22   6 
   0  -6   0 3699.19  130.62   6 
  -6   0   0 3796.09  120.67   2 
   0   6   0 3747.24  143.15   1 
  -6   2   0 3745.73  136.80   2 
   2   6   0 3862.33  157.62   4 
   2   6   0 3584.95  139.99   1 
   4   6   0 2946.90  140.54   4 
  -6   4   0 3021.62  134.62   2 
   4   6   0 3044.00  127.85   1 
  -6   4   0 2879.20  150.98   5 
  -6   6   0 1620.46  108.60   2 
  -5   7   0    7.00   17.72   2 
  -3   7   0  -30.06   11.31   2 
  -3   7   0  -12.92    8.63   1 
  -7  -3   0   -7.24   15.01   6 
  -7  -1   0   11.05   17.31   6 
  -1   7   0    5.78   10.85   1 
  -7   1   0   -1.85    9.72   2 
   1   7   0    3.91   14.43   1 
   3   7   0    2.87   14.38   1 
   3   7   0  -34.92   12.79   4 
   2   8   0 1584.54   94.86   1 
  -1   0  -1  164.13   12.39   5 
  -1   0   1  155.94   10.24   6 
   0   1  -1  157.39   14.90   4 
   0  -1  -1  168.16   11.48   6 
   0   1  -1  156.62   12.80   5 
   1   0  -1  174.13   11.35   4 
   1   0   1  150.70    8.21   4 
   0   1   1  162.76   12.36   4 
  -1   0   1  166.25   14.10   5 
   0   1   1  152.78    9.20   5 
   0  -1   1  156.46   13.72   6 
  -1   2  -1  305.10   22.48   4 
  -1   2   1  248.95   18.97   4 
  -2  -1  -1  313.36   23.85   6 
   2   1   1  272.03   22.34   4 
  -1   2   1  248.24   19.61   5 
   2   1  -1  315.35   24.53   4 
   1  -2  -1  285.69   16.52   6 
  -2  -1   1  312.00   25.19   6 
  -2  -1  -1  309.43   19.22   5 
  -1   2   1  252.74   18.77   1 
  -2  -1   1  298.79   21.77   5 
  -1   2  -1  270.76   22.61   5 
   1   2  -1   39.94   11.23   1 
  -2   1   1   42.49    6.30   4 
  -2   1   1   51.56   12.98   5 
  -2   1  -1   40.90   11.97   5 
   1   2   1   41.70   11.70   4 
  -1  -2  -1   47.84   12.42   6 
  -2   1  -1   33.79    9.69   2 
  -2   1  -1   42.39    4.86   4 
  -2   1   1   40.87   10.37   2 
  -1  -2   1   48.85   13.04   6 
   1   2  -1   48.74   13.99   4 
  -2   3  -1  294.45   24.83   1 
  -2   3   1  272.09   23.48   1 
   3   2  -1  323.80   33.14   4 
  -2   3  -1  235.05   24.73   2 
  -2   3  -1  272.57   22.62   4 
  -3  -2  -1  235.83   26.48   6 
  -2   3  -1  244.39   27.45   5 
  -2   3   1  258.14   26.61   5 
  -3  -2   1  305.84   23.24   5 
   3   2   1  292.23   23.28   1 
  -3  -2   1  269.63   30.26   6 
  -2   3   1  285.16   25.07   2 
  -3  -2  -1  260.74   19.70   5 
  -2   3   1  268.59   22.48   4 
   3   2   1  280.21   28.98   4 
   3   2  -1  272.84   25.72   1 
   0   3  -1   14.54    6.95   5 
   3   0  -1   17.47    6.70   4 
   0  -3   1   15.58    9.71   6 
   3   0   1   21.31    7.47   4 
  -3   0  -1   25.81   10.73   5 
  -3   0  -1   24.69    8.74   2 
   0   3   1   24.07    8.40   1 
   0   3  -1   19.64   10.61   1 
   0  -3  -1   17.16    9.28   6 
   0   3  -1   24.05   12.17   4 
  -3   0   1   30.05   10.09   2 
  -3   0   1    9.91    5.99   6 
  -3   0   1   15.33    9.55   5 
   0   3   1   23.39   11.09   4 
   0   3   1   17.14    5.83   5 
  -3   0  -1   14.02    6.63   6 
  -3   2  -1   21.83    6.79   1 
   2   3  -1   11.56    7.63   1 
  -3   2   1   20.93    7.46   4 
  -3   2   1   12.24    9.13   2 
  -2  -3  -1    8.96    8.42   6 
   2   3   1   10.79    6.07   1 
  -3   2  -1   23.66    6.56   4 
  -3   2   1   13.00    6.76   5 
  -3   2  -1   31.07   11.31   2 
  -3   2   1   19.59    6.74   1 
   2   3  -1   17.35    9.09   4 
  -3   2  -1    9.18    7.68   5 
  -2  -3   1   35.38   13.81   6 
   2   3   1   19.10   10.68   4 
  -3   4   1   64.68   15.61   4 
  -4  -3   1   76.21   23.86   6 
   4   3   1   82.17   17.86   1 
  -3   4   1  101.63   20.53   1 
  -3   4   1   83.00   23.69   5 
   4   3   1   83.44   23.68   4 
  -3   4  -1   87.01   25.08   5 
   4   3  -1   65.77   18.83   1 
  -3   4  -1   73.90   17.88   1 
  -3   4  -1   63.84   20.00   2 
   4   3  -1   93.37   26.08   4 
  -4  -3  -1   76.42   22.22   6 
  -3   4  -1   72.37   16.05   4 
  -3   4   1   63.21   17.96   2 
   1  -4  -1   50.56   13.89   6 
  -4  -1  -1   28.52   10.86   6 
  -1   4  -1   27.63   11.59   5 
  -4  -1  -1   65.40   13.04   2 
  -4  -1   1   40.97   11.73   2 
  -1   4  -1   24.91   14.86   4 
   1  -4   1   56.19   14.53   6 
  -1   4   1   31.18   13.57   1 
   4   1  -1   68.66   17.95   4 
  -4  -1   1   55.71   16.63   5 
   4   1  -1   51.96   14.15   1 
  -1   4  -1   32.28   13.89   2 
  -4  -1   1   56.73   15.84   6 
  -1   4   1   36.59   10.83   2 
   4   1   1   68.12   17.93   4 
  -1   4  -1   69.04   19.46   1 
  -1   4   1   40.56   11.96   5 
  -1   4   1   52.49   15.93   4 
  -4  -1  -1   58.40   16.81   5 
  -4   1  -1  103.36   15.43   6 
   1   4  -1   35.82   13.68   1 
  -1  -4   1  116.71   26.43   6 
  -4   1   1   87.71   16.63   6 
  -4   1   1  108.85   11.91   1 
  -4   1  -1   78.50   17.34   2 
   1   4   1   78.74   20.04   1 
  -4   1   1  116.22   22.50   2 
   1   4  -1   82.81   12.84   5 
   4  -1   1  101.82   11.78   4 
  -1  -4  -1  104.93   24.00   6 
   1   4  -1  120.60   27.87   4 
   4  -1  -1   76.95   11.98   4 
  -4   1   1  119.02   25.85   5 
   1   4   1   69.31   20.52   4 
  -4   1  -1  116.79   25.23   5 
  -3  -4  -1   37.94   15.72   6 
  -3  -4   1   11.15   12.72   6 
   3   4  -1   34.11   15.68   4 
   3   4   1   47.10   15.44   1 
  -4   3   1   44.21   12.11   1 
  -4   3  -1   34.81   16.80   5 
   3   4   1   46.27   19.65   4 
  -4   3   1   12.39   12.48   5 
  -4   3   1   35.68   10.54   4 
   3   4  -1   13.29   11.63   1 
  -4   3  -1   17.55   11.33   2 
  -4   3   1   12.42    9.81   2 
   5   4   1   63.74   23.11   4 
  -4   5  -1   26.45   19.52   5 
  -4   5   1   49.51   15.96   1 
  -4   5   1   52.64   24.85   5 
  -5  -4   1   27.45   16.97   6 
  -4   5  -1   41.83   15.94   1 
  -4   5  -1   34.43   19.27   2 
  -5  -4  -1   53.37   20.88   6 
   5   4  -1   51.38   23.37   4 
  -4   5   1   29.90   17.21   2 
   5   2  -1  -10.96   10.82   4 
  -5  -2   1    6.81   11.36   5 
  -2   5  -1   30.99   15.62   1 
  -2   5   1   25.07   12.15   2 
  -2   5  -1    9.92   10.90   2 
  -2   5  -1    3.79    7.97   4 
  -5  -2   1    8.99   10.17   6 
  -2   5   1   20.41   10.93   4 
  -2   5  -1   18.34   14.45   5 
   5   2   1   26.33   12.39   4 
  -2   5   1   23.87   12.28   1 
  -5  -2  -1   25.37   12.74   6 
  -2   5   1   15.30   12.51   5 
   0   5  -1   76.96   23.05   4 
  -5   0   1   55.22   19.15   5 
  -5   0  -1   81.15   19.70   2 
   0  -5   1   98.33   23.30   6 
   0   5  -1   64.54   20.82   1 
   0   5   1   48.59   19.71   1 
   0  -5  -1   62.65   18.69   6 
   0   5   1   81.42   22.86   4 
  -5   0   1   79.50   19.14   2 
  -5   0  -1   58.25   18.28   6 
  -5   0   1   92.58   21.59   6 
   5   0  -1   64.59   16.52   4 
  -5   0  -1   84.10   22.55   5 
   0   5  -1   80.87   17.15   2 
  -2  -5  -1  136.49   31.06   6 
   2   5   1   84.53   21.98   1 
   2   5  -1  125.61   27.55   1 
  -5   2  -1  106.12   27.15   5 
   2   5   1   97.74   30.25   4 
  -5   2  -1   91.87   23.22   2 
  -5   2  -1  109.96   16.77   6 
   2   5  -1   82.86   25.36   4 
  -5   2   1  162.60   27.96   5 
  -5   2   1  123.87   26.15   2 
  -2  -5   1  145.95   34.58   6 
   4   5  -1   25.78   17.55   4 
  -5   4  -1   14.63   12.02   2 
   4   5  -1    3.30   10.89   1 
  -5   4  -1   32.17   19.48   5 
   4   5   1   29.97   12.93   1 
  -5   4   1   23.28   16.14   5 
  -5   4   1   14.65   13.71   2 
   4   5   1   17.38   17.27   4 
   6   5  -1   54.78   25.92   4 
  -6  -5  -1   65.95   26.35   6 
  -5   6  -1   33.55   16.72   2 
  -6  -5   1   23.23   22.98   6 
  -5   6   1   36.37   26.66   5 
  -5   6   1   56.71   25.85   2 
  -5   6  -1   25.35   24.74   5 
  -3   6   1   41.98   22.28   5 
  -3   6   1   43.47   16.52   1 
  -6  -3   1   95.62   27.21   6 
  -3   6  -1   56.06   21.08   2 
  -6  -3  -1   47.65   19.65   6 
  -3   6  -1   86.31   28.83   5 
  -3   6   1   74.92   24.29   2 
  -3   6  -1   67.50   21.55   1 
  -1   6   1   24.85   15.11   1 
  -1   6  -1    9.74   10.60   2 
   1  -6   1    8.91    7.64   6 
  -1   6  -1   10.00   12.67   1 
  -6  -1  -1   -1.88    9.91   6 
  -6  -1  -1    9.99   10.38   5 
  -6  -1   1   21.31   13.13   5 
  -6  -1   1    6.47   11.70   6 
  -1  -6  -1   79.11   23.68   6 
   1   6  -1   82.73   24.71   1 
  -6   1  -1   96.84   24.51   2 
  -6   1   1   56.68   19.85   2 
   1   6   1   65.35   19.46   1 
  -6   3  -1   33.76   18.09   2 
   3   6   1    2.21   13.14   1 
   3   6  -1   11.72   14.88   1 
   3   6  -1  -11.24   10.35   4 
  -6   3   1   12.09   13.96   2 
   3   6   1   30.51   19.66   4 
   5   6   1   68.07   29.39   4 
  -6   5  -1   83.32   35.87   5 
  -6   5   1   64.84   25.20   2 
   5   6  -1   54.95   27.10   4 
  -6   5   1  104.92   37.64   5 
  -4   7  -1   36.60   18.97   2 
  -4   7   1   35.56   23.10   2 
  -7  -4   1   16.37   21.59   6 
  -7  -4  -1   17.97   23.08   6 
  -2   7  -1   21.73   12.64   1 
  -7  -2  -1   42.02   21.07   6 
  -2   7   1   62.17   20.25   1 
  -7  -2   1   49.87   22.14   6 
   0   7  -1   16.99   12.66   1 
   0   7   1   37.22   19.56   1 
  -7   2   1   43.23   17.42   2 
  -7   2  -1   14.25   13.20   2 
   2   7   1   29.03   17.70   1 
   2   7  -1   20.40   17.46   1 
   2   7   1   19.18   17.33   4 
   4   7  -1   68.55   25.82   1 
   4   7   1   97.64   37.53   4 
   4   7  -1   -5.28   16.09   4 
   4   7   1   84.77   28.31   1 
   1   8  -1   20.33   16.61   1 
   1   8   1    2.41   14.39   1 
   3   8   1   33.76   23.37   1 
   3   8  -1    9.82   17.63   1 
  -1   1  -2 9988.08  176.02   4 
   1   1   2 9649.88  186.01   4 
  -1  -1   2 9064.74  188.55   6 
   1   1  -2 9552.74  193.98   4 
  -1   1  -2 9668.92  200.48   5 
  -1   1   2 9547.58  179.65   4 
  -1   1   2 9312.10  195.32   5 
  -1  -1  -2 9582.48  176.43   5 
   2   0   2   94.80    7.26   4 
   0   2  -2   63.37   11.30   5 
  -2   0   2   59.91    9.68   6 
   0   2   2   81.28    9.32   5 
   0  -2  -2  100.13   13.29   6 
   0  -2   2   83.98   14.02   6 
  -2   0  -2   82.47   12.96   5 
   2   0  -2   81.00   11.39   4 
   0   2  -2   96.75   16.05   4 
   0   2   2   63.87   10.13   1 
  -2   0   2   97.51   15.14   5 
   0   2   2   90.47   13.27   4 
  -2   2  -2   -4.03    6.37   2 
  -2  -2  -2   14.41    5.45   5 
  -2   2  -2    9.00    5.92   4 
  -2   2   2   12.08    7.97   2 
  -2   2  -2   17.56   10.08   5 
   2   2   2   17.26    9.00   4 
  -2   2   2    6.79    6.36   4 
  -2  -2   2   20.11   12.03   6 
  -2   2   2   16.53    9.25   5 
  -2  -2  -2   12.84    9.52   6 
  -2   2   2   12.32    7.01   1 
   2   2  -2   16.21   10.19   4 
   3   1  -2 8392.67  197.95   4 
  -1   3  -2 8468.42  194.89   4 
  -1   3   2 8380.09  185.46   5 
  -3  -1  -2 8437.61  186.92   6 
  -1   3  -2 8148.12  204.12   5 
  -1   3  -2 8469.02  189.45   2 
  -3  -1   2 8409.51  195.29   5 
  -1   3  -2 8641.29  189.93   1 
  -1   3   2 8656.63  190.04   4 
   3   1  -2 8381.03  174.79   1 
   3   1   2 8161.07  180.48   4 
  -1   3   2 8539.32  177.75   1 
  -3  -1   2 8265.04  192.80   6 
   1  -3  -2 8341.96  172.88   6 
  -3  -1  -2 8227.70  181.95   5 
  -3  -1   2 8233.49  170.82   2 
   1  -3   2 8075.65  183.12   6 
  -1   3   2 8421.17  171.77   2 
   1   3   2 6796.86  183.25   4 
  -1  -3   2 7310.60  184.15   6 
  -1  -3  -2 7035.39  176.69   6 
  -3   1  -2 7232.25  161.37   2 
   1   3  -2 7048.42  174.17   1 
   1   3  -2 7244.49  189.82   4 
  -3   1   2 7143.91  164.59   2 
  -3   1  -2 6781.61  177.05   5 
   3  -1   2 7364.40  132.38   4 
   3  -1  -2 7091.99  153.94   4 
   1   3  -2 6994.26  158.62   5 
   1   3   2 7004.85  161.01   1 
  -3   1   2 7138.36  141.82   6 
  -3   1   2 7295.28  140.08   1 
  -3   1   2 7262.46  189.11   5 
  -3   3  -2 6514.22  188.36   5 
  -3   3   2 6167.20  162.76   2 
  -3  -3   2 6308.41  186.06   6 
  -3   3   2 6261.40  141.97   1 
  -3  -3  -2 6246.75  181.10   6 
   3   3  -2 6150.71  170.34   1 
  -3   3  -2 6451.65  171.78   2 
  -3   3   2 6290.31  180.78   5 
   3   3  -2 6304.64  192.87   4 
   3   3   2 6298.14  179.08   4 
  -3   3  -2 6426.37  137.90   4 
   3   3   2 6311.41  148.09   1 
  -3   3  -2 6448.20  138.44   1 
  -3   3   2 6502.95  151.98   4 
   4   2  -2   20.74   10.88   1 
   4   2  -2   17.67   12.59   4 
  -2   4  -2   -6.44    6.34   2 
  -2   4   2    8.71    8.10   2 
  -4  -2   2   22.79   12.28   6 
  -2   4  -2   14.72    9.66   1 
  -4  -2  -2   28.58   11.98   6 
  -2   4  -2   10.12    9.81   5 
  -2   4   2   12.16    7.89   4 
  -2   4   2   19.15   10.83   5 
  -4  -2  -2   11.68    9.38   5 
  -4  -2   2    2.75    9.06   5 
   4   2   2   11.88    8.83   4 
  -2   4   2   10.00    9.39   1 
  -2   4  -2   16.52   10.40   4 
  -4   0  -2   94.74   14.91   6 
   0   4   2  107.56   22.27   1 
   0   4  -2   86.87   17.75   2 
   0  -4  -2  115.99   23.43   6 
  -4   0  -2  115.98   16.91   2 
  -4   0   2   72.38   20.40   5 
  -4   0   2   98.74   19.97   2 
   0   4   2  110.18   13.66   5 
   4   0  -2  103.73   15.73   4 
   0   4   2  102.70   14.06   2 
   0  -4   2  127.04   20.77   6 
   0   4  -2   93.04   23.74   1 
   4   0   2   90.98   13.35   4 
  -4   0   2  104.19   16.53   6 
  -4   0  -2  111.89   19.97   5 
   0   4  -2  120.18   26.70   4 
   0   4  -2  107.11   16.76   5 
   0   4   2   66.60   20.17   4 
  -4   2  -2   34.38   15.55   2 
   2   4  -2   67.40   18.58   1 
  -2  -4  -2   64.39   19.99   6 
  -2  -4   2   60.22   21.36   6 
   2   4  -2   29.63   16.03   4 
  -4   2   2   59.22   12.74   1 
  -4   2  -2   61.46   19.68   5 
  -4   2   2   55.55   18.99   5 
   2   4   2   36.12   12.20   1 
  -4   2   2   62.92   18.19   2 
   2   4   2   56.93   21.01   4 
   4   4   2   -0.76   10.44   4 
   4   4  -2   12.15   12.60   4 
  -4  -4   2   11.56   12.30   6 
  -4   4   2    2.18    8.22   1 
   4   4  -2   -6.58    8.45   1 
  -4   4  -2   -5.80    8.35   2 
  -4   4   2   -1.30   10.26   5 
   4   4   2  -14.85    7.40   1 
  -4   4  -2    0.92   11.35   5 
  -4   4   2    5.46    8.84   2 
  -4   4   2   -6.92    5.18   4 
   5   3  -2 4208.09  162.00   4 
  -3   5   2 4039.26  133.08   4 
   5   3  -2 4120.44  136.10   1 
  -5  -3  -2 4147.89  154.66   6 
  -3   5   2 4067.73  128.34   1 
  -5  -3   2 4156.69  158.21   6 
  -3   5  -2 3998.99  147.70   2 
  -3   5   2 4045.01  139.44   2 
   5   3   2 4126.81  143.78   4 
  -3   5   2 4286.82  156.30   5 
  -3   5  -2 4182.65  159.21   5 
  -3   5  -2 4338.32  128.69   1 
  -5  -1  -2 4892.13  145.35   5 
  -1   5  -2 4761.73  148.51   5 
  -1   5  -2 4590.35  156.42   4 
  -5  -1   2 4618.91  148.93   5 
  -1   5  -2 4863.17  154.00   1 
  -1   5  -2 5007.08  142.48   2 
  -1   5   2 4571.61  142.00   1 
   1  -5   2 4754.78  139.13   6 
   5   1  -2 4532.71  149.93   4 
  -5  -1   2 4886.92  153.13   6 
  -5  -1   2 4915.60  130.95   2 
  -5  -1  -2 4857.96  147.49   6 
  -1   5   2 4925.12  132.43   2 
  -1   5   2 4731.69  152.38   4 
   5  -1  -2 5683.85  141.57   4 
   1   5  -2 5721.76  184.18   4 
  -5   1  -2 5784.86  149.58   6 
   1   5  -2 5446.99  168.83   1 
  -5   1  -2 5751.04  178.58   5 
  -1  -5   2 5552.46  181.72   6 
  -5   1  -2 5605.52  155.51   2 
   1   5   2 5478.72  190.34   4 
  -5   1   2 5520.40  185.18   5 
   1   5   2 5654.79  165.57   1 
  -1  -5  -2 5722.49  170.81   6 
  -5   1   2 5448.69  159.12   2 
  -5   3   2 4133.76  163.56   5 
   3   5  -2 3722.40  146.23   4 
   3   5   2 3883.98  130.65   1 
  -5   3  -2 3845.72  136.16   2 
  -5   3   2 3775.50  137.70   2 
   3   5   2 3532.92  147.04   4 
   3   5  -2 3788.39  134.77   1 
  -5   5   2 2997.42  151.29   5 
  -5   5   2 2815.60  130.67   2 
  -5   5  -2 2825.99  134.28   2 
  -5   5  -2 2831.25  151.32   5 
   5   5   2 2806.99  131.72   4 
   5   5  -2 2811.56  134.84   4 
   5   5  -2 3028.47  121.83   1 
  -5  -5   2 3021.62  146.80   6 
  -4   6   2   35.89   19.06   2 
   6   4  -2   -9.45   16.08   4 
  -6  -4  -2  -20.36   10.12   6 
  -4   6  -2  -10.79   17.11   5 
  -4   6   2   -6.80    8.73   1 
  -4   6   2    6.66   16.70   5 
  -4   6  -2   -1.19   12.54   2 
  -6  -4   2    6.46   14.85   6 
  -2   6  -2  -14.08   10.92   5 
  -6  -2   2   -2.00   11.88   6 
  -2   6  -2   -8.39    8.97   2 
   6   2  -2    8.06   16.82   4 
  -2   6   2   27.87   13.76   2 
  -2   6  -2    5.48   11.38   1 
  -6  -2  -2   12.76   11.39   6 
  -2   6   2   -8.97    7.29   1 
  -6   0  -2   10.98   11.04   6 
   0  -6  -2   42.38   15.26   6 
  -6   0  -2    0.04   11.70   5 
   0   6  -2    0.72   12.35   1 
   0   6   2    5.03   11.52   1 
  -6   0   2   28.53   14.85   2 
  -6   0  -2   21.33   12.76   2 
  -6   2  -2    5.50   10.65   2 
   2   6   2    0.45   14.24   4 
  -6   2   2   -3.95    8.59   2 
   2   6  -2    6.89   12.25   1 
   2   6   2   13.26   11.38   1 
  -6   4  -2   23.56   12.90   2 
   4   6   2   -5.58   14.00   4 
   4   6  -2   -5.30   13.47   1 
   4   6   2    8.17   14.44   1 
   4   6  -2  -13.47   12.59   4 
  -6   4  -2   14.94   19.18   5 
  -6   4   2   40.29   21.57   5 
  -6   4   2   -8.94    8.61   2 
  -6   6  -2   -5.30   14.50   2 
  -6   6   2   14.35   16.34   2 
  -5   7  -2 1563.20  102.88   2 
  -5   7   2 1887.25  112.93   2 
  -3   7  -2 2487.16  117.33   2 
  -7  -3   2 2554.22  130.61   6 
  -3   7   2 2614.37  118.98   2 
  -7  -3  -2 2598.96  129.68   6 
  -3   7  -2 2341.22  107.07   1 
  -1   7   2 2681.05  125.27   1 
  -7  -1  -2 2885.57  124.38   6 
  -1   7  -2 2675.93  119.03   1 
   1   7   2 2534.35  121.49   1 
  -7   1   2 2759.43  115.71   2 
   1   7  -2 2644.45  119.47   1 
  -7   1  -2 2657.16  108.95   2 
   3   7   2 2367.08  128.69   4 
   3   7  -2 2221.66  120.03   4 
   3   7  -2 2226.85  110.97   1 
   3   7   2 2268.69  110.77   1 
   5   7  -2 1986.59  106.28   1 
  -8  -2  -2   32.21   23.17   6 
   0   8   2    3.88   12.68   1 
   2   8  -2    2.28   14.83   1 
   2   8   2   16.35   15.14   1 
  -1   0   3  198.39   13.58   6 
  -1   0  -3  169.02   17.90   5 
  -1   0   3  194.55   17.15   5 
   0   1   3  196.61   13.22   4 
   0  -1   3  206.63   16.67   6 
   1   0  -3  194.10   15.41   4 
   0   1  -3  186.05   15.47   4 
   1   0   3  204.00    8.94   4 
  -1   2  -3   47.41   12.42   2 
  -1   2  -3   38.36   11.81   5 
  -1   2   3   48.12   10.41   1 
  -2  -1  -3   43.55   11.13   6 
  -2  -1   3   38.11   11.15   6 
  -1   2   3   38.06    9.72   2 
  -1   2   3   26.50    9.11   5 
   1  -2  -3   44.81    6.77   6 
  -2  -1   3   47.47   11.94   5 
  -1   2  -3   36.70   10.92   4 
  -1   2   3   37.46    9.72   4 
   2   1  -3   41.48   11.75   4 
   2   1  -3   45.40   11.40   1 
   2   1   3   41.26    8.85   4 
   1  -2   3   31.62    9.28   3 
  -2  -1  -3   50.05   10.38   5 
   1   2   3  128.21   12.67   1 
   1   2   3  116.31   15.06   4 
   1   2  -3  126.89   16.62   1 
  -1  -2  -3  136.20   16.03   6 
  -2   1   3  161.41   14.82   1 
  -2   1   3  143.59   14.22   4 
  -2   1  -3  138.85   19.17   5 
  -2   1   3  143.70   17.35   2 
   1   2  -3  157.41   20.85   4 
  -1  -2   3  174.23   21.91   6 
  -2   1  -3  126.64   16.62   2 
  -2   1   3  131.50   18.48   5 
   3   2  -3   67.41   18.84   1 
  -3  -2  -3   67.57   17.10   6 
   3   2  -3   64.65   19.02   4 
  -2   3   3   51.17   15.40   5 
   3   2   3   59.05   13.97   4 
  -2   3  -3   47.78   14.36   1 
  -3  -2  -3   63.12   11.90   5 
  -2   3   3   54.32   14.21   2 
  -2   3  -3   77.98   13.24   4 
  -2   3  -3   54.66   16.04   5 
  -3  -2   3   61.36   18.44   6 
  -2   3   3   54.62   14.01   4 
  -2   3   3   55.18   13.39   1 
  -2   3  -3   41.26   14.12   2 
  -3  -2   3   75.73   14.42   2 
   0  -3   3    8.94    7.60   6 
   0  -3  -3   35.27   11.34   6 
  -3   0   3   34.87   13.43   5 
   0   3   3   19.34    7.88   1 
  -3   0   3   27.27   10.04   2 
  -3   0   3   23.64    8.41   6 
  -3   0   3   27.31    8.91   1 
   0   3   3   32.27    7.57   5 
   0  -3   3   19.07    7.94   3 
  -3   0  -3   51.30   12.00   2 
   0   3  -3   21.76    8.58   2 
   0   3  -3   42.62   14.70   1 
   0   3  -3   22.83   11.44   4 
   0   3  -3   24.87    9.65   5 
  -3   0  -3   17.24    9.48   5 
   3   0  -3   16.78    7.51   4 
   3   0   3   32.44    4.52   4 
   0   3   3   26.95   10.90   4 
  -3   2  -3  213.72   28.52   5 
  -2  -3   3  271.79   21.77   3 
  -3   2   3  263.48   20.89   1 
  -3   2  -3  239.09   12.66   4 
   2   3  -3  222.26   26.69   1 
   2   3  -3  230.88   29.85   4 
  -2  -3   3  211.28   27.76   6 
  -3   2   3  220.92   24.57   2 
  -2  -3  -3  248.06   27.90   6 
  -3   2   3  273.67   30.57   5 
   2   3   3  268.89   22.77   1 
   2   3   3  258.30   28.20   4 
  -3   2   3  214.98   19.94   4 
  -3   2  -3  201.74   25.54   2 
  -3   4   3    5.24    7.79   1 
  -3   4  -3    7.36    8.84   2 
   4   3  -3   10.21   10.35   1 
   4   3   3    8.27    8.51   4 
  -3   4  -3   15.54   11.86   1 
  -3   4  -3   22.81   15.93   5 
   4   3  -3   17.50   13.39   4 
  -3   4   3   29.88   12.17   2 
  -4  -3   3    2.58   10.20   6 
  -3   4   3    5.55   10.07   5 
  -3   4   3   14.92    8.85   4 
  -4  -3  -3   11.62   10.40   6 
  -4  -1  -3  187.14   18.18   2 
  -4  -1  -3  143.47   20.80   6 
  -1   4   3  184.84   21.86   5 
  -1   4  -3  166.37   24.70   1 
  -1   4  -3  160.52   24.11   5 
  -1   4   3  185.18   23.06   1 
   1  -4  -3  208.31   22.32   6 
  -4  -1  -3  177.67   22.04   5 
  -1   4  -3  187.08   24.34   2 
   4   1  -3  172.21   20.58   1 
  -1   4  -3  184.03   25.50   4 
   4   1   3  131.75   15.04   4 
  -4  -1   3  190.54   24.98   6 
  -1   4   3  172.01   19.78   2 
  -4  -1   3  206.31   23.03   2 
   4   1  -3  158.38   22.00   4 
  -1   4   3  134.47   20.19   4 
  -4  -1   3  177.71   25.41   5 
   1   4  -3   57.57   13.32   2 
  -1  -4  -3   68.33   19.29   6 
  -4   1  -3   57.55   18.99   5 
  -1  -4   3   55.21   18.43   6 
  -4   1   3   39.59   14.40   2 
   1   4   3   61.49   18.09   4 
   1   4  -3   63.46   14.54   5 
  -4   1   3   67.51   20.62   5 
   1   4  -3   75.88   21.48   4 
   4  -1  -3   52.65   12.09   4 
  -4   1   3   65.25   12.87   6 
   1   4  -3   62.19   17.18   1 
  -4   1  -3   68.53   16.98   2 
   1   4   3   37.61   12.90   1 
  -4   1   3   64.92   13.55   1 
  -3  -4  -3   19.79   13.57   6 
  -4   3   3   -7.80    6.90   5 
  -4   3   3   17.04    8.92   1 
   3   4  -3    5.15   10.24   4 
  -4   3  -3   18.19   14.19   5 
  -4   3  -3   50.23   18.03   2 
  -4   3   3   23.66    9.39   4 
   3   4  -3   -4.69    8.30   1 
   3   4   3   37.34   15.41   4 
  -4   3   3   30.06   10.86   2 
  -3  -4   3   12.73   12.74   6 
   3   4   3   16.69    8.40   1 
   5   4  -3   58.48   19.50   1 
  -4   5   3   45.71   23.34   5 
  -4   5   3   55.76   17.84   1 
  -5  -4   3   47.44   22.38   6 
  -4   5  -3   36.92   22.39   5 
   5   4   3    1.44   14.51   4 
  -4   5   3   36.95   17.46   2 
   5   4  -3   52.49   22.86   4 
  -4   5  -3   41.32   19.48   2 
   5   2  -3   80.46   24.53   4 
  -2   5   3   92.21   21.59   1 
  -2   5   3   90.43   24.17   5 
  -5  -2   3  126.55   21.47   5 
  -2   5   3   96.32   21.85   2 
   5   2  -3  128.23   26.41   1 
  -2   5  -3   79.95   20.47   4 
  -2   5  -3   98.60   24.73   2 
  -5  -2   3  108.07   28.07   6 
  -5  -2  -3  118.92   25.95   6 
  -2   5   3   82.31   20.10   4 
  -2   5  -3  137.22   30.46   5 
  -2   5  -3   79.37   22.24   1 
  -5   0  -3   32.17   15.42   5 
   0   5   3   34.52   14.00   1 
  -5   0  -3   39.41   13.08   6 
   5   0  -3   32.06   10.61   1 
   0  -5  -3   25.87   12.62   6 
   0   5  -3   12.17   11.57   1 
   5   0  -3   46.95   14.09   4 
  -5   0   3   32.79   15.71   5 
  -5   0   3   31.70   13.83   2 
   0   5  -3   12.30   10.13   5 
  -5   0  -3   22.42   11.37   2 
   0  -5   3   15.25   11.65   6 
  -5   0   3   26.40   12.73   6 
   0   5  -3   26.89   12.77   4 
   0   5   3    4.52    7.34   4 
   0   5  -3   57.15   15.84   2 
   2   5  -3   34.01   12.22   1 
   2   5   3   38.65   18.16   4 
  -5   2  -3   50.52   18.24   2 
   5  -2  -3   26.34   10.49   4 
  -2  -5  -3   15.61   13.47   6 
  -5   2  -3   24.35   13.79   5 
  -5   2   3   23.43    9.91   1 
  -2  -5   3   34.65   19.50   6 
  -5   2   3   45.07   18.25   2 
   2   5   3   28.44   12.80   1 
   4   5  -3   60.93   23.69   4 
  -5   4  -3   35.63   21.53   5 
  -5   4   3   66.27   23.14   2 
   4   5  -3   43.23   16.58   1 
  -5   4   3   62.36   25.89   5 
  -4  -5   3   52.85   23.56   6 
  -5   4   3   47.82   15.28   1 
   4   5   3   70.08   24.29   4 
  -5   4  -3   44.55   18.14   2 
  -5   6  -3   88.78   30.32   2 
   6   5  -3   66.36   27.74   4 
  -5   6  -3   40.85   28.64   5 
  -6  -5  -3   74.93   29.41   6 
  -5   6   3   29.50   19.19   2 
  -5   6   3   30.61   27.62   5 
  -6  -5   3  113.12   34.14   6 
  -6  -3  -3   21.30   15.30   6 
  -6  -3   3   16.08   15.28   6 
  -3   6   3   22.67   15.67   2 
  -3   6  -3   89.88   25.43   2 
  -3   6  -3   38.59   21.04   5 
  -3   6   3   38.60   14.11   1 
  -3   6  -3   48.47   19.13   1 
   6   3  -3   -1.03   18.13   4 
  -1   6   3   61.62   20.79   1 
   6   1  -3   86.42   23.47   4 
  -6  -1   3   20.09   15.94   6 
  -1   6  -3   63.31   20.37   1 
  -6  -1  -3   38.13   17.33   6 
  -1   6  -3   28.20   13.78   2 
  -6   1  -3   28.73   11.67   6 
  -1  -6  -3   33.70   15.47   6 
   1   6   3   16.22   14.61   4 
  -6   1  -3   12.88   13.58   2 
   1   6   3   28.09   12.17   1 
  -6   1   3   15.51   12.84   2 
   1   6  -3    3.37   10.39   1 
   3   6   3  102.58   30.70   4 
   3   6   3   95.00   24.64   1 
   3   6  -3  115.40   31.13   4 
   3   6  -3  101.00   28.35   1 
  -6   3  -3  117.49   28.64   2 
  -6   5  -3    3.57   20.48   5 
   5   6  -3   21.59   18.95   1 
  -5  -6   3    4.70   20.10   6 
   5   6   3   52.88   26.13   4 
  -6   5   3  -12.37   14.13   2 
  -6   5   3   12.50   22.44   5 
   5   6  -3   12.27   18.30   4 
  -4   7   3   50.16   25.21   2 
  -7  -4   3   26.44   24.69   6 
  -4   7  -3   41.60   21.27   2 
  -2   7  -3   26.07   14.57   2 
  -2   7  -3   20.28   13.65   1 
  -7  -2  -3   36.22   18.68   6 
  -2   7   3   -1.10   10.38   1 
  -7   0  -3  105.60   25.26   6 
   0   7  -3   62.02   21.64   1 
  -7   0   3   41.70   15.49   2 
   0   7   3   80.24   26.00   1 
  -7   2  -3   30.42   16.51   2 
   2   7   3   45.66   22.72   4 
  -7   2   3    3.10   13.02   2 
   2   7   3   13.87   15.32   1 
   2   7  -3   -2.22   12.54   1 
   4   7   3   11.84   20.94   4 
   4   7  -3   33.37   19.73   1 
   1   8   3   22.21   20.42   1 
   3   8  -3   17.02   17.27   1 
   3   8   3    5.72   18.34   1 
  -1   1  -4  223.06   22.82   2 
   1   1  -4  288.23   24.20   4 
   1   1  -4  285.33   21.69   1 
  -1   1   4  257.40   22.72   5 
  -1   1   4  255.82   19.17   4 
  -1   1  -4  293.22   17.07   4 
  -1  -1   4  269.50   23.20   6 
   1  -1   4  315.71   25.14   3 
  -1   1   4  276.17   18.60   1 
   1   1   4  289.75   17.22   4 
  -1   1   4  284.00   22.32   2 
  -1  -1   4  318.36   22.30   3 
  -1   1  -4  245.31   25.68   5 
   0   2  -4 9230.02  189.73   1 
   0   2   4 9264.47  176.27   1 
   2   0  -4 9169.53  188.94   4 
   2   0   4 9186.15  156.91   4 
   0   2  -4 8629.53  198.60   4 
  -2   0  -4 8977.06  199.52   5 
   0  -2   4 8611.04  191.30   6 
  -2   0   4 8871.53  183.10   6 
  -2   0   4 8926.25  174.69   1 
   0   2   4 8779.40  188.23   4 
   0  -2  -4 8767.93  176.00   6 
  -2   0   4 8997.94  206.09   5 
  -2   0   4 8804.23  185.65   2 
   0  -2   4 9048.24  176.20   3 
   0   2  -4 8774.51  206.42   5 
  -2  -2  -4 7483.27  174.12   6 
   2   2  -4 7379.52  176.69   1 
  -2   2   4 7792.24  169.42   4 
  -2   2  -4 7842.09  152.54   4 
  -2  -2   4 7407.23  188.77   6 
  -2   2   4 7513.04  170.81   2 
  -2   2   4 7750.45  157.07   1 
   2   2   4 7491.83  169.81   4 
  -2   2   4 7481.09  186.95   5 
  -2   2  -4 7200.67  176.91   2 
   2   2  -4 7414.76  194.06   4 
  -2   2  -4 7380.45  195.54   5 
  -2  -2  -4 7707.26  149.42   5 
   2   2   4 7457.82  149.20   1 
  -3  -1  -4    6.82    6.72   6 
   3   1  -4   -8.36    4.33   4 
  -1   3  -4    1.74    8.63   1 
   3   1   4   -1.77    3.43   4 
  -1   3  -4  -12.98    5.58   5 
  -3  -1   4    4.41    7.38   2 
  -1   3   4    1.85    6.48   4 
  -1   3   4   11.50    6.80   2 
  -3  -1   4    0.48    6.82   6 
  -1   3  -4   -0.79    6.53   4 
  -1   3  -4    4.50    6.91   2 
  -1   3   4    5.96    7.38   1 
   1  -3   4   -0.95    5.99   3 
   1  -3  -4    9.06    6.69   6 
   3   1  -4   -3.58    4.90   1 
  -1   3   4    1.97    6.84   5 
  -3  -1  -4   -2.27    6.42   5 
  -3  -1   4   14.28   10.18   5 
  -3   1  -4    8.59    8.36   2 
  -1  -3  -4   -3.11    5.92   6 
  -1  -3   4   -0.65    7.60   3 
  -3   1   4   11.33    6.84   6 
  -3   1  -4   18.38   11.02   5 
   1   3   4   11.01    6.34   1 
  -3   1   4   -0.14    8.16   5 
   1   3  -4    0.23    9.06   4 
  -1  -3   4    8.29    9.64   6 
   3  -1  -4   -4.60    4.54   4 
   1   3  -4    8.04    8.99   1 
   1   3   4    0.85    5.42   4 
  -3   1   4    1.05    5.62   1 
  -3   1   4    9.27    8.64   2 
  -3   3   4   33.33   11.67   1 
   3   3   4   29.78   11.17   4 
   3   3  -4   41.21   17.96   4 
   3   3   4   45.70   10.72   1 
  -3   3  -4   12.15    9.46   1 
  -3   3  -4   15.62    9.98   2 
  -3   3   4   32.89   10.88   4 
  -3   3   4   12.68    8.00   2 
  -3  -3   4   55.10   18.28   6 
  -3   3  -4   28.52   14.36   5 
   3   3  -4   18.96   12.66   1 
  -3  -3  -4    3.33    6.89   6 
  -3   3   4    7.67    8.73   5 
   4   2   4 4987.78  133.08   4 
  -2   4   4 5230.56  140.54   1 
  -2   4  -4 5442.23  148.86   4 
  -2   4   4 5164.62  140.63   2 
  -2   4  -4 5265.33  167.00   5 
   4   2  -4 5137.49  149.97   1 
   4   2  -4 5019.58  168.34   4 
  -4  -2   4 5054.33  127.58   2 
  -2   4  -4 5163.10  143.43   1 
  -2   4   4 5163.23  146.57   4 
  -2   4  -4 5295.79  156.10   2 
  -4  -2   4 5396.13  159.32   6 
  -4  -2  -4 5181.19  153.66   6 
  -2   4   4 5237.07  155.33   5 
  -4   0   4 6221.38  163.88   2 
   0  -4   4 6197.08  134.55   3 
   0   4  -4 6360.14  165.51   5 
  -4   0   4 5526.62  174.60   5 
   0   4   4 6185.20  157.88   1 
   0   4  -4 6114.52  172.38   4 
   0   4  -4 6192.00  164.76   1 
   4   0  -4 6214.49  157.49   4 
   0   4  -4 6065.71  153.22   2 
   0   4   4 6389.86  136.89   5 
   0   4   4 6266.06  171.12   4 
  -4   0   4 6132.54  141.39   1 
   0   4   4 6396.91  136.82   2 
  -4   0  -4 6149.22  166.75   5 
  -4   0   4 6076.48  149.00   6 
  -4   0  -4 6246.47  155.99   6 
   0  -4   4 6004.91  169.56   6 
   0  -4  -4 6015.01  153.96   6 
  -4   0  -4 6245.74  146.29   2 
  -4   2  -4 5164.30  168.73   5 
  -4   2   4 5320.86  128.49   1 
   2   4  -4 5395.38  141.38   5 
  -4   2   4 5242.70  152.35   2 
  -4   2  -4 5068.20  148.49   2 
   2   4  -4 5312.26  172.06   4 
   2   4  -4 5311.86  156.96   1 
   2   4  -4 5115.83  127.87   2 
   2   4   4 5233.95  161.40   4 
  -2  -4   4 5347.46  175.31   6 
  -2  -4  -4 5133.42  163.15   6 
  -4   2   4 5105.56  170.28   5 
   2   4   4 5281.64  137.32   1 
   4   4   4 4216.17  146.34   4 
  -4   4  -4 4177.12  150.73   2 
   4   4  -4 4494.32  152.45   1 
  -4   4   4 4154.26  133.31   4 
  -4   4   4 4340.24  145.42   2 
  -4  -4   4 4685.66  169.54   6 
   4   4  -4 4459.69  171.86   4 
  -4   4  -4 4252.13  166.24   5 
  -4   4   4 4168.41  126.13   1 
  -4   4   4 4427.27  163.08   5 
  -3   5   4   13.80   10.16   1 
   5   3  -4   23.40   13.34   1 
  -3   5  -4   38.53   19.69   5 
   5   3  -4   20.01   14.35   4 
  -3   5   4   16.73   14.28   5 
  -3   5   4   36.58   14.53   2 
  -5  -3   4   19.74   15.91   6 
  -5  -3  -4   14.62   12.98   6 
  -3   5  -4   40.32   16.15   1 
  -3   5  -4   35.01   14.81   2 
   5   1  -4   -2.65    7.81   4 
  -5  -1   4    7.14   11.49   6 
  -1   5   4    5.31    7.76   2 
  -5  -1  -4    6.76    8.13   6 
  -1   5  -4   -0.23    8.28   2 
  -5  -1  -4   -3.54    8.79   5 
  -5  -1   4   26.57   13.24   5 
  -1   5  -4    1.74    9.42   1 
   5   1  -4   20.69   10.91   1 
  -1   5   4   -3.93    7.32   1 
  -1   5   4    0.62    6.76   4 
  -5  -1   4   16.13   11.40   2 
  -1   5  -4   11.60    9.61   4 
  -1   5  -4   10.50   10.39   5 
  -5   1  -4    2.25    8.16   5 
  -5   1   4  -17.68    6.24   2 
   5  -1  -4    3.78    7.36   4 
  -5   1  -4    3.34    5.86   6 
  -5   1   4    4.46    9.88   5 
  -1  -5  -4   -3.91    8.67   6 
   1   5  -4   -1.59    7.42   4 
  -5   1   4    0.68    6.07   1 
   1   5   4    4.48    9.06   4 
  -1  -5   4    4.82    9.27   6 
   1   5  -4    4.19    8.76   1 
  -5   1  -4    3.34   10.08   2 
   1   5   4   -1.43    6.16   1 
   3   5   4   43.53   17.06   4 
  -5   3   4    1.42   10.14   2 
   3   5  -4   22.43   11.57   1 
   5  -3  -4   12.81    9.33   4 
  -5   3   4    4.27   12.38   5 
   3   5   4   19.88   11.04   1 
   3   5  -4   -2.95   10.08   4 
  -5   3  -4    9.85   11.52   2 
  -5   3   4   19.80   11.09   1 
  -5  -5   4   45.44   25.91   6 
  -5   5  -4   38.57   22.69   5 
  -5   5   4   36.03   16.78   2 
  -5   5   4   34.30   12.31   1 
  -5   5  -4   30.88   18.21   2 
   5   5  -4   36.36   20.06   1 
   5   5  -4   26.47   20.04   4 
  -5   5   4   62.25   26.14   5 
  -4   6  -4 2521.08  127.44   5 
  -4   6   4 2358.91  103.96   1 
  -4   6  -4 2387.28  117.52   2 
   6   4  -4 2296.41  124.75   4 
  -6  -4  -4 2274.23  120.23   6 
  -4   6   4 2700.94  132.02   5 
  -4   6   4 2435.64  115.57   2 
  -6  -4   4 2551.84  132.89   6 
  -2   6  -4 3536.79  130.45   2 
   6   2  -4 3541.78  148.10   4 
  -2   6  -4 3920.99  143.46   5 
  -2   6   4 3683.78  127.18   2 
  -6  -2   4 3549.60  139.76   6 
  -2   6   4 3481.44  129.75   1 
  -6  -2  -4 3602.84  139.16   6 
  -2   6  -4 3632.72  130.91   1 
  -6   0   4 3570.38  125.89   2 
   0   6  -4 3504.46  131.85   1 
   6   0  -4 3749.93  125.81   4 
   0   6   4 3754.73  135.32   1 
  -6   0  -4 3773.93  131.05   6 
   2   6   4 3233.00  141.69   4 
  -6   2  -4 3214.17  120.91   2 
   2   6   4 3280.97  120.11   1 
  -6   2   4 3051.72  127.97   2 
  -6   2  -4 3309.90  116.58   6 
   2   6  -4 3250.08  125.93   1 
   4   6  -4 2234.43  109.08   1 
  -6   4  -4 2329.16  113.87   2 
  -6   4  -4 2482.60  136.06   5 
   4   6   4 2377.76  120.39   4 
  -6   4   4 2249.05  127.70   5 
   4   6  -4 2270.71  120.20   4 
  -6   6  -4 1522.88  101.20   2 
  -6   6   4 1702.98  107.66   2 
  -7  -3  -4    0.88   15.07   6 
  -3   7  -4   12.48   13.11   2 
  -3   7  -4   -4.21   10.67   1 
  -7  -3   4   -8.82   20.12   6 
  -7  -1  -4    8.53   11.86   6 
  -1   7   4   11.36   11.90   1 
  -1   7  -4   -9.02    7.69   1 
   1   7   4   11.06   14.16   1 
  -7   1  -4   14.43   10.92   2 
   1   7   4    7.72   15.54   4 
   1   7  -4   -0.92    8.38   1 
  -7   1   4   27.41   12.98   2 
   3   7   4   17.28   19.38   4 
   3   7   4   -4.70   10.80   1 
   3   7  -4    3.27   13.38   1 
   0   8   4 1927.06  109.03   1 
   2   8  -4 1953.59  103.68   1 
   2   8   4 1828.04  102.05   1 
  -1   0   5    4.42    5.24   2 
   0  -1   5   -6.30    6.42   3 
  -1   0   5   15.00    5.59   1 
   1   0  -5    0.54    4.29   4 
   1   0   5   26.95    9.10   3 
   0   1   5   17.57    5.16   1 
   0   1  -5   15.98    7.65   1 
   0   1   5   13.48    5.15   4 
   0   1  -5    6.91    5.66   4 
  -1   0  -5   14.19    8.60   5 
  -1   2  -5  162.58   18.77   1 
  -1   2   5  147.87   17.17   4 
   2   1  -5  136.42   18.70   4 
  -1   2  -5  162.74   18.69   4 
   1  -2  -5  165.68   11.70   6 
  -1   2  -5  117.75   16.81   2 
   2   1  -5  154.02   17.71   1 
  -2  -1  -5  149.97   18.33   5 
   2   1   5  130.94   11.70   4 
  -2  -1   5  125.78   18.51   6 
  -1   2  -5  138.52   21.61   5 
  -2  -1   5  160.51   17.76   2 
  -1   2   5  127.91   17.43   5 
  -1   2   5  145.43   17.72   2 
   1  -2   5  135.51   19.05   3 
  -1   2   5  175.05   17.70   1 
  -1  -2  -5  169.37   17.58   6 
  -2   1   5  182.11   18.59   4 
  -2   1  -5  171.72   10.97   4 
  -1  -2   5  164.65   18.07   3 
  -2   1   5  212.77   22.77   2 
  -2   1  -5  180.22   24.72   5 
   1   2  -5  225.50   24.67   4 
  -2   1   5  166.00   16.61   1 
  -1  -2   5  168.06   21.29   6 
  -2   1   5  126.20   19.83   5 
  -2   1  -5  174.28   21.08   2 
   1   2   5  203.02   16.85   1 
   1   2   5  157.91   16.84   4 
   1   2  -5  187.29   22.29   1 
   2  -1   5  159.99   21.47   3 
  -3  -2   5   18.44   12.98   6 
  -2   3  -5   10.91    9.19   4 
  -3  -2  -5   -2.90    6.41   6 
  -3  -2   5   21.13   10.72   2 
  -2   3   5    5.30    7.25   1 
  -2   3  -5    6.64    8.89   1 
  -2   3  -5    4.00    5.58   2 
  -2   3   5    8.55    6.02   2 
  -3  -2  -5    4.19    5.95   5 
   3   2  -5    1.42    8.41   4 
  -2   3  -5    7.57    9.34   5 
  -2   3   5    9.89    6.63   4 
  -2   3   5   -3.82    6.77   5 
   3   2  -5    6.55    8.33   1 
   3   2   5   13.73    7.73   4 
   0  -3  -5  192.06   19.49   6 
  -3   0  -5  186.37   20.23   2 
   0   3  -5  211.53   24.96   1 
   0   3   5  152.91   19.64   4 
   0   3  -5  145.87   22.13   4 
   0   3   5  247.70   20.69   2 
   0   3   5  128.63   16.87   1 
  -3   0   5  249.26   22.00   1 
  -3   0   5  202.88   22.04   6 
  -3   0  -5  172.94   23.14   5 
  -3   0   5  234.57   29.00   5 
   0   3  -5  244.86   28.13   5 
   0  -3   5  221.84   24.41   6 
   0  -3   5  160.47   19.11   3 
   0   3  -5  157.77   20.33   2 
  -3   0   5  235.76   25.88   2 
   3   0  -5  205.88   22.02   4 
   2   3  -5   23.06   11.79   1 
  -3   2  -5    5.26    8.73   5 
   2   3   5    9.32    7.17   1 
  -2  -3  -5   32.62   13.02   6 
   2   3  -5   38.63   16.22   4 
  -2  -3   5   25.57   10.65   3 
  -3   2  -5   11.09    8.79   2 
  -2  -3   5   36.46   14.62   6 
  -3   2   5   25.22   12.84   5 
  -3   2   5   27.85   10.58   1 
  -3   2   5   23.67    9.86   4 
  -3   2   5   19.22   10.97   2 
   2   3   5   23.70   10.27   4 
   4   3  -5   97.21   30.35   4 
  -3   4  -5   88.58   23.66   2 
  -3   4   5   79.67   19.94   2 
  -3   4   5   84.83   23.18   5 
  -3   4   5   70.77   19.36   1 
  -4  -3   5   94.31   26.38   6 
  -4  -3  -5   60.40   18.49   6 
   4   3   5   67.45   16.75   4 
   4   3  -5   86.64   23.72   1 
  -3   4   5   91.03   20.84   4 
  -3   4  -5   73.35   18.18   1 
  -3   4  -5   50.39   18.92   5 
  -1   4  -5   19.26   11.13   1 
   4   1  -5   16.61    9.20   1 
  -1   4  -5   21.08   13.44   4 
  -1   4  -5    7.39    7.79   2 
  -1   4   5   15.33    8.36   4 
  -4  -1   5    2.97    9.32   6 
  -4  -1   5   14.67   10.58   5 
  -4  -1   5   27.74   11.93   2 
  -1   4   5    5.59    6.38   2 
  -1   4   5   14.28    9.25   1 
  -1   4  -5   10.03    9.62   5 
  -4  -1  -5   24.66    9.94   6 
  -1   4   5   26.73   11.66   5 
   4   1  -5   14.07    9.26   4 
   1  -4   5    6.64    7.24   3 
  -4  -1  -5   19.60   10.81   5 
  -4   1   5   18.61   11.16   2 
   4  -1  -5    7.08    6.89   4 
   1   4  -5   35.11   13.99   1 
  -4   1  -5   34.79   13.42   2 
  -4   1   5   49.55   17.90   5 
   1   4   5   18.51    8.66   1 
  -1  -4  -5   28.67   13.30   6 
   1   4  -5   10.04   10.27   5 
   1   4  -5   27.59   10.24   2 
   1   4   5   37.68   14.61   4 
  -1  -4   5   30.06   11.64   3 
  -4   1   5   40.78   12.00   1 
  -1  -4   5   24.56   12.73   6 
  -4   1  -5    7.67    9.27   5 
   1   4  -5   44.38   16.34   4 
  -3  -4   5  115.02   21.83   3 
  -4   3   5   63.74   18.77   2 
  -3  -4  -5  117.54   28.02   6 
   3   4   5   91.46   15.18   1 
  -3  -4   5  104.81   29.25   6 
   3   4  -5  122.49   31.99   4 
   3   4  -5  130.14   28.78   1 
   3   4   5   68.49   20.76   4 
  -4   3   5   94.60   16.57   4 
  -4   3  -5  132.26   31.19   5 
  -4   3   5   72.70   23.24   5 
  -4   3   5   97.99   20.33   1 
  -4   3  -5   90.09   25.26   2 
  -4   5  -5   49.44   20.06   2 
   5   4  -5   34.64   19.28   1 
   5   4  -5   41.64   20.20   4 
  -4   5  -5   39.76   20.26   5 
  -4   5   5   38.47   14.92   1 
  -5  -4   5   55.95   24.69   6 
  -4   5   5   27.31   19.79   5 
  -4   5   5   45.82   19.75   2 
  -2   5   5   55.74   16.46   2 
  -2   5   5   63.80   19.80   5 
  -2   5  -5   46.61   18.17   5 
  -2   5  -5   57.31   18.61   1 
  -5  -2   5   52.87   20.31   6 
  -2   5  -5   19.94   11.09   2 
   5   2  -5   49.72   18.55   1 
  -2   5  -5   36.87   14.32   4 
  -5  -2  -5   35.31   14.16   6 
  -5  -2   5   33.71   11.61   2 
   5   2  -5   42.92   20.67   4 
  -2   5   5   46.03   15.75   1 
   0   5  -5   53.11   16.54   1 
  -5   0  -5   44.48   15.54   2 
  -5   0   5   54.81   18.24   2 
   5   0  -5   75.29   19.53   4 
   0  -5   5   41.53   16.60   6 
   0   5  -5   52.87   16.57   2 
   5   0  -5   60.42   14.37   1 
   0   5   5   58.73   20.02   4 
   0   5  -5   47.71   16.43   4 
  -5   0  -5   48.66   15.74   6 
   0   5  -5   45.78   16.12   5 
  -5   0   5   60.18   21.09   5 
   0   5   5   43.08   14.78   1 
  -5   0  -5   54.92   17.42   5 
   2   5  -5    4.16    8.54   1 
  -5   2  -5   27.30   14.73   2 
  -5   2   5   33.78   15.74   2 
   2   5   5   23.48   14.56   4 
  -5   2   5   16.20   11.43   1 
   2   5   5   22.72   10.60   1 
   5  -2  -5   15.58   10.07   4 
  -2  -5  -5    9.69   12.10   6 
  -4  -5   5   65.59   23.30   6 
   4   5  -5  110.52   33.41   4 
  -5   4  -5   91.39   28.09   5 
  -5   4   5   86.15   25.24   2 
   4   5   5   34.07   16.88   4 
   4   5  -5   50.49   21.48   1 
  -5   4   5   54.98   19.55   1 
  -5   4  -5   86.92   26.48   2 
  -5   4   5   94.19   27.38   5 
  -5   6  -5   21.11   15.76   2 
   6   5  -5   35.19   23.75   4 
  -5   6   5    0.21   14.87   2 
  -5   6  -5   16.03   20.59   5 
  -5   6   5   -9.32   20.47   5 
  -6  -5   5   54.49   26.65   6 
  -3   6   5    2.07    9.03   1 
  -3   6  -5    6.76   10.00   2 
  -6  -3  -5   12.15   12.99   6 
  -3   6  -5   17.46   12.02   1 
  -3   6  -5   30.75   18.69   5 
  -3   6   5    5.37   12.07   2 
  -6  -3   5   10.25   14.82   6 
   6   3  -5   32.29   19.80   4 
  -1   6  -5   73.49   20.45   1 
   6   1  -5  104.05   25.86   4 
  -1   6   5   67.91   20.37   1 
  -6  -1   5   56.39   16.37   2 
  -1   6  -5   72.51   20.86   2 
  -6  -1  -5   45.30   17.26   6 
   1   6  -5   40.22   14.33   1 
  -6   1  -5   32.32   15.14   2 
  -6   1   5   11.99   12.67   2 
   1   6   5   31.09   17.86   4 
  -6   1  -5   31.29   14.88   6 
   1   6   5   43.60   18.61   1 
   6  -1  -5   35.92   12.88   4 
   3   6   5   20.83   14.01   1 
  -6   3   5   19.02   13.38   2 
  -6   3  -5    6.75    8.56   2 
  -6   3   5   23.29   19.62   5 
   3   6   5   16.99   16.64   4 
   3   6  -5   18.29   13.63   1 
   5   6  -5   30.21   18.26   1 
  -6   5   5   45.11   21.67   2 
  -6   5   5   27.51   23.68   5 
  -4   7  -5   11.38   15.43   2 
  -4   7   5   10.46   18.22   2 
  -2   7  -5   40.71   17.12   1 
  -7  -2  -5   39.26   17.48   6 
  -2   7  -5   54.88   18.16   2 
   0   7   5   11.48   13.50   1 
   0   7  -5   36.28   14.56   1 
  -7   0   5    0.93   10.43   2 
  -7   0  -5    1.17   11.96   6 
  -7   2  -5   72.85   23.59   2 
   2   7   5   80.66   24.49   1 
   2   7  -5   46.61   20.10   1 
   2   7   5   32.00   22.07   4 
   4   7  -5   21.54   16.00   1 
   1   8   5   39.68   19.74   1 
   0   0  -6   -0.07    5.28   4 
   0   0   6    6.86    5.95   1 
   0   0   6   10.77    7.72   3 
   1   1  -6 7981.32  170.42   1 
   1   1   6 8478.21  155.41   1 
  -1   1  -6 7714.97  162.91   4 
   1   1  -6 7879.22  183.54   4 
  -1   1  -6 7578.90  158.88   1 
  -1   1   6 7799.90  171.62   4 
  -1  -1   6 8031.35  173.08   3 
   1   1   6 7928.88  168.83   3 
  -1   1   6 8036.95  174.53   2 
  -1   1  -6 7925.16  207.90   5 
  -1   1   6 7991.34  163.11   1 
   1  -1   6 7992.53  179.59   3 
   1   1   6 7867.29  161.67   4 
   0   2   6   -0.61    5.06   1 
  -2   0   6   15.79   10.58   2 
   0   2  -6    2.86    8.13   4 
  -2   0  -6   13.08   10.21   2 
   0  -2   6    0.94    6.95   3 
   0   2   6   -3.23    6.04   2 
   0   2   6   -0.46    4.51   4 
   2   0   6   24.48   10.03   3 
  -2   0  -6    3.43    4.47   4 
  -2   0  -6    6.74    9.60   5 
   2   0  -6   -4.81    4.30   4 
   0   2   6    3.93    5.37   3 
   0  -2  -6    5.08    5.65   6 
   0   2  -6    8.51    8.60   1 
  -2   0   6   -5.42    4.84   1 
  -2   2   6    0.23    5.23   4 
  -2  -2   6   -3.60    7.65   3 
  -2   2   6    2.31    7.25   5 
   2  -2   6    1.66    7.83   3 
  -2   2  -6    9.06    7.06   4 
  -2   2   6    5.70    7.40   2 
  -2  -2  -6    1.05    6.07   6 
  -2  -2   6    6.07    7.55   6 
   2   2  -6   14.95   11.88   4 
  -2   2  -6   -8.71    6.77   2 
  -2   2   6   11.27    6.91   1 
   2   2  -6    2.85   10.12   1 
  -2   2  -6    2.00    7.76   5 
  -2  -2  -6    4.20    7.16   5 
   2   2   6   -4.13    4.26   1 
  -2   2  -6    0.79    8.13   1 
   2   2   6   -3.85    4.06   4 
  -1   3  -6 5591.72  154.55   2 
   3   1  -6 5843.74  145.47   1 
  -1   3   6 5715.48  150.89   5 
  -1   3  -6 5675.49  169.49   5 
   1  -3   6 5831.57  145.04   3 
   3   1   6 5869.33  119.86   4 
  -3  -1   6 5669.57  148.46   2 
  -1   3  -6 5694.82  147.61   1 
  -1   3   6 6017.05  145.66   2 
  -3  -1   6 5781.23  158.69   6 
  -3  -1  -6 5633.87  149.54   5 
  -3  -1  -6 5930.58  132.65   2 
  -1   3   6 5575.89  152.82   4 
  -1   3  -6 5857.94  153.05   4 
  -1   3   6 5832.04  144.18   1 
   3   1  -6 5623.08  159.35   4 
  -3   1   6 7225.78  161.45   1 
   1   3  -6 7285.32  200.69   4 
  -1  -3  -6 7046.05  171.07   6 
   1   3   6 7298.17  177.26   4 
   1   3  -6 6963.88  183.30   1 
  -3   1   6 7074.77  201.39   5 
  -3   1  -6 7438.58  179.84   2 
  -3   1   6 7119.94  183.28   2 
   1   3   6 7567.76  163.35   1 
  -1  -3   6 7233.89  164.73   3 
  -3   1  -6 7142.91  196.12   5 
  -1  -3   6 7351.35  190.21   6 
   3  -1  -6 7307.96  176.14   4 
  -3   3  -6 4812.89  166.97   5 
   3   3   6 4759.76  131.05   4 
  -3  -3   6 4456.68  154.37   6 
   3   3  -6 4817.70  154.19   1 
   3   3  -6 4746.90  171.24   4 
  -3   3   6 4677.94  135.73   4 
  -3   3   6 4780.07  153.76   5 
  -3   3   6 4633.77  127.16   1 
  -3  -3  -6 4684.97  143.91   6 
  -3  -3   6 4806.51  132.24   3 
  -3   3   6 4571.22  143.31   2 
  -3   3  -6 4735.73  146.79   2 
  -2   4  -6   -5.58    9.02   1 
   4   2  -6   -0.89    8.50   1 
  -2   4   6   -2.77    5.16   4 
  -2   4   6   -5.49    6.13   1 
  -2   4  -6   -5.61    6.79   5 
  -4  -2  -6   -7.55    4.52   6 
   4   2  -6   -5.04    7.82   4 
  -2   4   6    8.96    8.86   2 
  -2   4   6   10.08    8.97   5 
  -4  -2   6    8.97   10.53   2 
  -2   4  -6    9.73    7.60   2 
  -4  -2   6   11.31   10.50   6 
   0   4  -6   -1.29    5.78   2 
   0   4  -6   -2.66    6.40   4 
  -4   0  -6   -8.02    8.79   5 
   0  -4   6   15.38    8.85   3 
   0   4   6   -7.54    4.90   2 
   4   0  -6   -3.00    5.81   4 
  -4   0  -6   -4.08    7.54   2 
   0  -4   6    5.22    9.44   6 
  -4   0   6    4.31    9.06   2 
   0   4  -6   20.93   10.74   5 
   0   4   6   -3.25    4.68   4 
  -4   0   6   -3.45    9.36   6 
   0  -4  -6    3.65    8.01   6 
   0   4  -6    5.14    9.16   1 
  -4   0   6    6.54    6.80   1 
   0   4   6    2.22    5.89   1 
  -4   0   6    5.88    8.41   5 
  -4   2  -6   10.55    9.31   2 
  -4   2  -6    4.49    9.66   5 
  -2  -4   6   -0.96    8.63   3 
   2   4   6    7.36    9.60   4 
  -2  -4   6    5.56    9.10   6 
  -4   2   6    0.77    7.84   5 
   2   4   6    2.98    4.99   1 
   2   4  -6   11.50   10.14   1 
  -4   2   6    0.99   10.26   2 
   2   4  -6   -8.45    7.70   4 
   4  -2  -6   -0.86    5.61   4 
  -4   2   6    2.74    7.08   1 
  -2  -4  -6  -13.74    6.31   6 
   4   4   6    9.53   10.77   4 
  -4   4   6    9.93   10.75   5 
  -4   4  -6    4.89   10.60   5 
  -4  -4   6   14.22   13.50   6 
  -4   4   6   10.65   10.03   2 
  -4   4   6    2.36    8.55   1 
   4   4  -6   -0.30   10.34   1 
  -4   4  -6    4.41    9.71   2 
  -4  -4   6    9.60   11.79   3 
   4   4  -6   -9.04   12.06   4 
  -5  -3   6 3655.71  149.02   6 
   5   3  -6 3669.97  159.10   4 
  -3   5   6 3531.82  129.34   2 
  -3   5   6 3863.36  142.59   5 
   5   3  -6 3338.24  132.87   1 
  -3   5   6 3555.33  126.19   1 
  -3   5  -6 3540.43  135.60   2 
  -3   5  -6 3579.85  145.29   5 
  -5  -1  -6 4683.41  145.57   6 
   5   1  -6 4513.80  128.67   1 
  -1   5  -6 4860.04  151.31   5 
  -5  -1   6 4638.03  139.17   2 
  -1   5  -6 4684.52  137.39   2 
  -1   5   6 4266.25  130.78   2 
  -1   5  -6 4532.97  147.79   4 
   5   1  -6 4615.05  149.36   4 
  -5  -1   6 4521.49  159.70   5 
  -1   5  -6 4679.31  142.17   1 
  -5  -1  -6 4738.00  137.95   5 
  -5  -1   6 4302.08  144.86   6 
  -1   5   6 4515.26  139.21   1 
   5  -1  -6 3337.05  113.41   4 
   1   5  -6 3445.03  115.93   5 
  -5   1  -6 3422.70  115.72   2 
  -5   1   6 3251.37  124.31   2 
   1   5   6 3426.75  126.68   4 
  -5   1  -6 3309.03  130.20   5 
   1   5   6 3364.13  111.84   1 
  -5   1   6 3288.19  102.98   1 
   1   5  -6 3293.93  120.47   1 
  -1  -5  -6 3231.16  119.42   6 
   1   5  -6 3401.29  104.95   2 
  -3  -5   6 3613.20  150.16   6 
   3   5   6 3579.44  112.65   1 
   5  -3  -6 3527.03  124.72   4 
  -5   3   6 3683.39  117.38   1 
   3   5   6 3609.60  131.84   4 
  -5   3  -6 3529.77  133.95   2 
  -5   3   6 3575.86  140.21   2 
   3   5  -6 3717.33  142.30   1 
  -5   3   6 3780.74  153.43   5 
  -5   5   6 2697.80  135.09   5 
  -5   5   6 2204.01   99.87   1 
  -5   5   6 2541.63  120.76   2 
   5   5  -6 2476.20  135.70   4 
  -5  -5   6 2881.59  144.51   6 
   5   5  -6 2562.37  119.80   1 
  -5   5  -6 2517.55  130.57   5 
   6   4  -6  -12.40   15.57   4 
   6   4  -6   10.79   17.24   1 
  -4   6   6   22.37   17.18   2 
  -4   6  -6   -2.80   11.94   2 
  -4   6  -6  -24.86   13.88   5 
  -6  -4   6   14.20   22.10   6 
   6   2  -6   14.88   12.90   4 
  -2   6  -6    0.95   11.07   1 
  -6  -2  -6    0.27    8.30   6 
  -2   6  -6    5.39   10.51   2 
  -2   6   6   15.83    9.52   1 
   6   2  -6    9.65   16.61   1 
  -2   6  -6   -5.88   11.16   5 
   6   0  -6   -7.44    7.35   4 
   6   0  -6   -2.16    7.87   1 
  -6   0   6    7.05   11.93   2 
   0   6  -6    2.46    8.28   2 
   0   6  -6   13.33   11.28   1 
  -6   0  -6    6.37    9.54   6 
   0   6   6    9.76   10.34   1 
   2   6   6   10.88   12.47   1 
   2   6  -6   -5.33    8.42   1 
  -6   2   6    5.88   11.01   2 
  -6   2  -6   -9.09    8.54   2 
   6  -2  -6   -7.68    9.05   4 
   2   6   6   -6.46   11.19   4 
  -6   4   6  -10.86   11.93   2 
   4   6   6   11.97   16.30   4 
  -4  -6   6  -13.93   16.18   6 
  -6   4   6   -3.75   14.44   5 
   4   6  -6   -8.23   12.87   4 
   4   6  -6  -13.71   12.46   1 
  -3   7  -6 1867.20   93.77   2 
   7   3  -6 1899.65  111.90   4 
  -1   7  -6 2266.36  104.02   1 
  -1   7   6 2250.65  108.24   1 
  -7  -1  -6 2306.85  111.01   6 
   1   7   6 2678.29  129.19   4 
  -7   1  -6 2688.31  113.61   6 
   1   7   6 2528.33  113.05   1 
  -7   1   6 2310.45  111.98   2 
   3   7   6 2056.05  114.00   4 
   3   7  -6 2202.46  111.25   1 
   3   7   6 2201.77   99.63   1 
   0   8   6   -8.01   12.80   1 
   2   8  -6   -7.50   13.68   1 
   2   8   6   16.88   17.12   1 
   1   0   7   13.63    6.13   1 
   0   1   7    5.97    4.30   4 
   0   1  -7   11.76    7.97   1 
   1   0  -7   24.54    9.24   4 
   0   1   7    1.69    4.31   1 
   0  -1   7    4.62    8.09   3 
  -1   0   7   11.24    5.97   1 
  -1   0   7    8.50    5.31   2 
   1   0   7    1.65    7.21   3 
  -1   0  -7   18.38    7.41   4 
   0   1   7   16.67    7.50   3 
  -1   0   7   19.98    8.80   3 
   0   1  -7   10.38    7.69   4 
   2   1   7  135.66   18.59   3 
  -1   2   7   99.56   15.35   4 
  -1   2  -7  110.59   18.21   1 
  -1   2   7  100.02   15.71   3 
   2   1  -7   73.77   16.41   1 
  -2  -1  -7  106.12   22.78   5 
  -1   2   7   68.91   15.91   2 
  -2  -1   7  104.04   20.59   6 
  -2  -1   7   82.53   17.14   2 
  -1   2   7   79.82   12.16   1 
   1  -2   7  110.92   22.85   3 
  -1   2  -7  121.39   25.32   2 
  -1   2  -7   83.94   23.18   5 
   1  -2  -7  103.13   11.02   6 
  -2  -1   7  106.72   21.58   3 
   2   1  -7  138.47   20.77   4 
  -1   2  -7   95.44   16.00   4 
   2   1   7   96.57   11.43   4 
   1   2  -7  190.42   25.13   4 
  -2   1   7  142.31   18.40   1 
  -1  -2  -7  161.47   18.55   6 
   1   2  -7  176.89   22.37   1 
  -1  -2   7  137.10   18.96   3 
  -2   1  -7  153.79   23.33   2 
   2  -1   7  139.99   21.55   3 
   1   2   7  165.81   17.07   3 
  -2   1  -7   72.74   21.22   5 
   1   2   7  140.86   17.11   4 
  -2   1   7  152.31   20.38   2 
   1   2   7  157.87   16.70   1 
  -2   1  -7  144.85   13.90   4 
  -1  -2   7  152.85   22.21   6 
   2  -3   7   16.08   10.27   3 
  -2   3   7   -2.12    7.29   5 
  -3  -2   7  -11.80    7.29   6 
  -2   3  -7   13.94    8.87   2 
   3   2   7   21.58    7.31   4 
  -2   3   7    8.10    7.71   1 
  -2   3  -7   -0.79    7.87   1 
   3   2  -7    1.70    9.72   1 
  -2   3   7    4.71    6.49   2 
  -2   3   7   -4.29    4.38   4 
  -3  -2  -7    6.34    7.04   6 
   3   2  -7   13.15    9.05   4 
  -2   3  -7   18.68   11.53   5 
  -3   0   7  152.88   18.17   6 
   0   3  -7  165.43   24.85   4 
  -3   0   7  155.97   19.61   1 
  -3   0  -7  126.36   26.79   5 
   0   3  -7  139.66   22.60   1 
   0   3  -7  172.71   26.73   5 
  -3   0  -7  137.07   25.56   2 
  -3   0   7  170.54   24.00   2 
   0  -3   7  130.06   20.26   3 
   0  -3  -7  155.11   17.94   6 
   0   3   7  123.24   19.39   4 
   0   3   7  142.02   18.36   2 
   3   0  -7  137.67   19.69   4 
   0   3   7  145.69   19.36   1 
  -2  -3  -7   38.10   13.27   6 
   2   3  -7   38.93   15.18   4 
  -3   2  -7   26.45   14.04   5 
   2   3  -7   18.67   12.87   1 
  -3   2   7   25.92   10.83   1 
  -3   2   7   18.03   10.04   4 
  -3   2  -7   35.72   15.09   2 
   2   3   7   27.27    9.98   4 
   2   3   7   26.96    9.30   1 
  -2  -3   7   15.61   11.27   6 
  -3   2   7   11.74   11.76   5 
  -2  -3   7   18.25   10.75   3 
  -3   2   7   33.82   13.85   2 
   4   3  -7   34.95   17.60   1 
  -3   4   7   45.82   15.66   1 
   4   3  -7   52.58   23.13   4 
  -3   4   7   58.14   17.70   2 
  -3   4  -7   40.69   15.14   2 
  -4  -3   7   69.18   21.38   3 
  -3   4   7   66.74   22.26   5 
  -3   4  -7   53.45   19.59   5 
  -4  -3   7   62.27   23.28   6 
  -1   4  -7    9.08   11.83   4 
  -4  -1  -7   24.34   12.71   5 
   1  -4   7    3.44    8.92   3 
   4   1  -7   19.89    9.49   1 
  -1   4   7   20.43    9.28   1 
  -4  -1  -7   18.03    9.89   6 
  -1   4  -7   17.24   10.61   1 
  -4  -1   7   24.91   13.44   6 
  -4  -1   7   15.09    9.45   2 
  -1   4  -7   25.17   10.80   2 
  -1   4   7   32.43   11.11   2 
  -1   4  -7   20.16   13.72   5 
   4   1  -7   34.44   15.16   4 
  -1   4   7    8.86    8.59   4 
  -4   1  -7   36.23   14.72   2 
   1   4  -7   32.44   15.47   5 
   1   4  -7   22.01   12.23   2 
  -1  -4  -7   43.06   15.16   6 
   1   4   7   15.17   11.16   4 
  -1  -4   7   31.61   11.71   3 
   4  -1  -7   25.69   10.82   4 
  -1  -4   7   -0.74    7.58   6 
   1   4  -7   32.33   14.38   1 
   1   4   7   31.33   11.65   1 
  -4   1  -7   34.91   13.76   5 
  -4   1   7   26.55   16.96   5 
   1   4  -7   23.12   15.20   4 
  -4   1   7   42.75   13.95   1 
  -4   1   7   24.49   13.33   2 
  -4   3   7   77.04   23.60   5 
  -3  -4   7   83.52   19.73   3 
  -4   3   7   78.16   19.49   1 
   3   4  -7   59.80   20.92   1 
  -3  -4   7   72.01   22.60   6 
  -4   3  -7   82.32   24.43   2 
   3   4   7   80.08   21.04   4 
  -4   3   7   86.34   22.82   2 
  -5  -4   7   36.96   21.14   6 
   5   4  -7   31.39   22.33   4 
  -4   5   7   31.64   12.40   1 
  -4   5   7   63.16   25.10   5 
  -4   5  -7   21.52   15.68   5 
  -4   5   7   17.48   15.71   2 
  -4   5  -7   25.19   14.87   2 
   5   4  -7   27.71   18.85   1 
  -2   5   7   50.57   16.55   2 
  -2   5  -7   31.80   16.27   1 
  -5  -2   7   70.22   20.00   2 
  -5  -2  -7   31.92   15.51   6 
  -2   5  -7   31.14   13.55   2 
  -2   5  -7   56.94   20.92   5 
  -2   5   7   79.49   21.17   1 
  -5  -2   7   74.79   22.52   6 
   5   2  -7   32.66   15.47   1 
   5   2  -7   10.07   11.01   4 
   0  -5   7   65.03   18.03   3 
   0   5  -7   37.23   16.15   4 
  -5   0  -7   51.14   17.04   5 
  -5   0   7   37.88   17.19   2 
   0   5  -7   56.58   15.32   2 
  -5   0  -7   54.49   17.75   6 
   5   0  -7   54.56   15.68   1 
   5   0  -7   48.04   15.35   4 
   0   5  -7   31.84   15.71   1 
  -5   0  -7   50.81   16.75   2 
   0   5   7   47.90   17.97   4 
   0   5   7   41.61   13.81   1 
   0   5  -7   45.22   17.77   5 
   5  -2  -7   17.76    9.80   4 
  -5   2   7   15.86   14.66   2 
   2   5   7   24.50   12.92   4 
   2   5   7   23.55   10.31   1 
  -5   2   7    3.04   11.06   5 
  -5   2  -7   42.42   18.15   2 
   2   5  -7   29.02   17.25   1 
  -5   2   7   22.00   11.63   1 
  -4  -5   7   37.89   22.77   6 
  -5   4   7   74.03   24.33   2 
  -5   4  -7   27.95   15.89   2 
  -5   4   7   21.72   11.52   1 
  -5   4  -7   94.40   29.08   5 
   4   5   7   22.15   13.60   4 
   4   5  -7   68.85   28.61   4 
  -5   4   7   47.98   20.34   5 
   4   5  -7   88.43   28.03   1 
  -5   6  -7   43.11   18.01   2 
   6   5  -7   19.52   19.39   1 
  -5   6   7    0.97   19.81   2 
  -6  -3  -7   12.19   10.84   6 
  -3   6   7   -1.00    8.78   1 
  -3   6  -7   15.63   13.12   2 
   6   3  -7   18.41   17.04   1 
  -6  -3   7   11.74   19.53   6 
  -3   6  -7   55.09   21.05   5 
  -3   6   7   38.00   19.21   2 
   6   3  -7  -14.17   12.70   4 
  -1   6  -7   83.75   21.80   2 
  -6  -1   7   70.79   21.47   2 
   6   1  -7   96.16   25.47   4 
   6   1  -7   63.36   19.33   1 
  -1   6  -7   78.65   19.85   1 
  -6  -1  -7   90.07   24.68   6 
  -1   6  -7   63.73   20.80   5 
  -1   6   7   47.89   17.23   1 
  -6   1   7   25.22   14.64   1 
  -6   1   7   34.76   15.36   2 
   1   6  -7   36.20   14.99   1 
   1   6   7   21.53   13.70   1 
   1   6   7   46.91   21.66   4 
  -6   1  -7   16.25   11.61   6 
  -6   1  -7   46.01   17.76   2 
   6  -1  -7   32.60   15.73   4 
  -6   3  -7   29.70   14.91   2 
   3   6   7    6.68   16.14   4 
  -3  -6   7   39.03   22.30   6 
   6  -3  -7   12.19   12.65   4 
  -6   3   7   24.25   13.52   2 
   3   6  -7   33.25   20.05   1 
   3   6   7   26.59   16.18   1 
  -6   3   7   22.50   11.36   1 
  -6   3   7   27.37   18.13   5 
   5   6  -7    8.78   15.06   1 
  -6   5   7   14.25   16.64   2 
  -4   7  -7    6.62   14.16   2 
  -4   7   7  -12.33   15.49   2 
   7   2  -7   49.02   26.31   4 
  -7  -2  -7   36.71   20.11   6 
  -2   7  -7   23.06   14.47   2 
   0   7   7    5.76   15.12   1 
  -7   0   7    5.89   11.60   2 
   0   7   7   12.02   16.42   4 
  -7   0  -7    4.21   13.34   6 
   2   7   7   16.99   16.69   1 
   2   7   7   46.73   23.66   4 
   4   7  -7   -4.51   14.99   1 
  -1   8   7   26.00   17.66   1 
   1   8   7   35.52   18.92   1 
   0   0   8 5846.91  153.95   3 
   0   0   8 6195.99  140.24   1 
   0   0  -8 6175.24  146.07   4 
  -1   1   8   91.40   15.69   2 
  -1   1   8   67.64   17.12   3 
   1   1   8   59.98   14.51   3 
   1   1   8   90.59   12.51   4 
   1   1  -8   61.94   15.45   4 
   1   1  -8   97.62   16.57   1 
  -1   1   8   86.60   14.22   4 
  -1   1   8   70.80   15.14   1 
  -1  -1   8   52.05   15.61   3 
   1  -1   8   66.36   18.00   3 
  -1   1  -8   80.28   16.81   1 
  -1   1  -8   78.00   13.56   4 
   1   1   8   64.01   11.20   1 
  -1   1  -8   49.58   18.94   5 
  -2   0  -8 6632.17  195.28   5 
  -2   0  -8 6685.90  142.67   4 
   0   2   8 6591.26  162.33   4 
  -2   0   8 6620.56  167.49   2 
   0   2   8 6896.09  159.51   2 
  -2   0  -8 6784.07  137.82   1 
   2   0  -8 6644.21  168.53   4 
   0   2  -8 6661.84  165.39   1 
   0   2   8 6665.95  152.84   1 
   2   0   8 6640.41  175.64   3 
   0  -2   8 6747.55  164.79   3 
   0   2  -8 6732.36  173.31   4 
  -2   0   8 6629.12  159.48   1 
  -2   0   8 6721.54  168.68   3 
  -2   0  -8 6865.01  177.24   2 
   0   2   8 7044.11  156.99   3 
  -2  -2   8 5541.35  160.61   6 
   2  -2   8 5619.51  158.80   3 
  -2   2  -8 5647.38  138.06   1 
  -2   2   8 5521.65  153.00   2 
   2   2  -8 5557.11  155.97   1 
  -2   2  -8 5670.81  163.24   2 
  -2  -2  -8 5507.56  159.67   5 
  -2   2   8 5494.31  141.86   1 
   2   2   8 5567.38  137.45   4 
   2   2   8 5693.84  130.53   3 
   2   2   8 5635.11  126.18   1 
  -2  -2   8 5432.24  149.27   3 
  -2  -2  -8 5295.54  143.84   6 
  -2   2  -8 5512.66  179.41   5 
  -2   2   8 5341.13  149.04   4 
   2   2  -8 5283.22  166.19   4 
   3   1  -8    7.37    6.75   1 
  -1   3   8    3.00    5.28   1 
  -1   3  -8    5.68   10.18   4 
  -1   3  -8    1.32    6.20   2 
  -3  -1  -8   -7.18    9.37   2 
  -3  -1  -8   -0.77    9.11   5 
  -1   3  -8   15.25   12.13   5 
   3   1  -8    7.20    6.42   4 
  -1   3  -8    9.47    9.38   1 
   1  -3   8   18.22   10.32   3 
  -3  -1   8   -6.29    8.19   6 
  -3  -1   8   -3.74    5.90   2 
  -1   3   8    6.08    6.43   2 
  -1   3   8   13.95    8.47   3 
  -1   3   8   -9.22    4.37   4 
   1   3  -8    5.62   10.59   1 
  -1  -3  -8  -14.73    5.04   6 
  -3   1   8   12.85    9.98   2 
  -3   1  -8   16.93   11.31   2 
   1   3   8   -3.03    5.64   4 
  -1  -3   8    1.25    8.75   3 
   3  -1  -8    7.59    6.05   4 
   1   3   8   -7.46    4.90   1 
   1   3  -8   12.81    9.83   4 
  -3   1   8   18.29    9.85   1 
  -3   1  -8    4.64    8.70   5 
  -3   3   8    0.25    7.39   1 
  -3  -3  -8   10.44    9.32   6 
  -3  -3   8    8.24    9.65   6 
  -3   3   8    8.35    8.16   4 
  -3  -3   8   13.15   12.37   3 
  -3   3   8   15.53    8.41   2 
   3   3   8    2.38    7.13   4 
   3   3  -8   -7.92    7.31   1 
  -3   3   8   -7.12    6.60   5 
  -3   3  -8   13.32   12.12   2 
  -3   3  -8   10.18   10.65   5 
  -2   4   8 4122.51  129.61   2 
  -2   4  -8 3891.15  134.41   2 
  -2   4   8 3698.41  125.99   1 
  -2   4  -8 4008.87  148.69   5 
  -4  -2   8 4058.34  136.35   6 
  -2   4  -8 4004.27  122.51   1 
   4   2  -8 3914.94  131.38   1 
   2  -4   8 3795.68  121.28   3 
   4   2  -8 3884.44  146.24   4 
   0   4  -8 4467.48  144.86   1 
  -4   0   8 4546.21  131.35   1 
   0   4  -8 4630.55  150.68   4 
  -4   0  -8 4521.74  154.41   5 
  -4   0  -8 4546.75  132.03   2 
   0   4   8 4589.81  147.17   4 
   0   4  -8 4733.80  161.31   5 
   0   4  -8 4465.93  142.67   2 
   0  -4   8 4686.69  129.58   3 
  -4   0   8 4612.84  148.33   2 
   4   0  -8 4429.15  139.05   4 
   0   4   8 4491.57  134.31   1 
  -2  -4   8 3826.35  119.12   3 
   4  -2  -8 3852.01  130.82   4 
  -2  -4  -8 3857.03  131.06   6 
  -4   2   8 3949.28  139.31   2 
  -2  -4   8 3913.03  141.54   6 
  -4   2   8 3921.26  120.05   1 
   2   4   8 3946.97  126.66   4 
   2   4   8 3981.83  113.31   1 
  -4   2  -8 3993.58  137.13   2 
   2   4  -8 4027.10  145.21   1 
  -4   2   8 3802.53  145.97   5 
  -4   4   8 3154.85  119.16   1 
  -4   4   8 3414.26  142.16   5 
  -4  -4   8 3326.06  134.69   6 
  -4  -4   8 3344.11  120.14   3 
  -4   4  -8 3384.07  145.85   5 
   4   4  -8 3257.10  155.78   4 
  -4   4  -8 3301.95  131.76   2 
   4   4  -8 3256.20  139.89   1 
  -4   4   8 3379.77  132.72   2 
  -3   5   8    2.58   13.25   5 
  -3   5  -8    1.94    9.59   5 
  -5  -3   8   -4.87   13.67   6 
   5   3  -8   11.28   14.71   1 
  -3   5   8    8.34   10.81   2 
  -3   5   8   15.14   11.77   1 
  -3   5  -8   20.78   13.02   2 
   5   3  -8   29.57   19.27   4 
   5   1  -8  -10.27    7.35   4 
   1  -5   8   12.17   11.75   3 
  -1   5  -8    5.33    9.44   4 
  -1   5  -8    5.10    9.25   2 
  -1   5   8   23.13   13.71   1 
  -1   5  -8   -5.72    7.78   1 
   5   1  -8    7.16    7.42   1 
  -5  -1  -8   19.11    9.68   6 
  -1   5  -8   -2.13    9.55   5 
  -5  -1   8   -3.10   10.56   2 
   1   5  -8    4.11    8.09   2 
  -5   1   8    6.28    9.90   1 
   1   5   8   -7.45    6.49   4 
  -5   1   8    8.75   11.73   2 
  -5   1  -8   20.49   13.97   2 
   5  -1  -8    1.98    8.69   4 
   1   5  -8   -3.63    8.70   1 
   1   5   8   -1.02    6.90   1 
   1   5  -8   -5.40   11.66   5 
  -5   3   8   16.41   13.05   5 
   5  -3  -8    4.98   10.93   4 
  -5   3  -8  -11.56    8.39   2 
  -5   3   8   -6.02    7.16   1 
   3   5   8   -3.88   10.16   4 
  -5   3   8   -2.40   10.35   2 
   3   5  -8   10.44   13.75   1 
  -3  -5   8    3.07   12.34   6 
  -5  -5   8   39.94   20.93   6 
   5   5  -8   15.02   19.62   4 
  -5   5   8    8.62   12.53   2 
   5   5  -8   10.81   15.62   1 
  -5   5  -8   24.07   19.31   5 
  -5   5   8   23.37   20.44   5 
  -6  -4   8 1922.18  107.40   6 
   6   4  -8 1751.76  114.03   4 
   6   4  -8 1630.46   94.86   1 
  -4   6   8 1946.95  104.05   2 
  -4   6  -8 1721.38   95.37   2 
  -4   6  -8 1890.21  107.59   5 
   6   2  -8 2723.86  126.66   4 
  -2   6  -8 2734.16  118.83   5 
  -6  -2  -8 2480.64  118.40   6 
  -2   6  -8 2531.47  108.05   2 
  -2   6   8 2591.82  114.34   1 
  -2   6  -8 2880.04  111.41   1 
   6   2  -8 2832.25  112.95   1 
   0   6  -8 2718.78  103.62   2 
   0   6   8 2790.70  108.44   1 
  -6   0   8 2655.24  112.41   2 
   0   6   8 2815.40  119.67   4 
   6   0  -8 2607.70   95.19   1 
   0   6  -8 2654.83  109.53   1 
   6   0  -8 2629.50  108.44   4 
  -6   0  -8 2600.52  112.42   6 
  -6   2  -8 2390.10  108.17   2 
   2   6   8 2561.49  112.69   4 
   2   6   8 2460.43   97.55   1 
  -6   2   8 2358.08  115.08   2 
  -6   2   8 2458.33   99.01   1 
   2   6  -8 2480.49  114.14   1 
   6  -2  -8 2460.66  104.75   4 
   4   6  -8 2034.58  109.48   1 
  -6   4   8 1809.93  104.66   2 
  -6   4   8 1794.57  114.37   5 
  -3   7  -8  -16.05    9.50   2 
   7   1  -8   -7.44   12.69   4 
  -1   7  -8    2.84   11.11   2 
  -1   7   8   -8.14    9.88   1 
  -7  -1  -8  -17.89   10.06   6 
   1   7   8   -0.64   12.94   1 
  -7   1  -8    2.08   15.24   6 
   1   7   8   13.93   18.06   4 
   3   7  -8   -5.55   12.94   1 
   0   1  -9   98.60   16.66   4 
   0  -1   9  115.79   24.33   3 
  -1   0   9   43.03   11.81   1 
  -1   0   9   66.88   17.50   3 
   0   1   9   81.41   13.36   4 
   1   0   9   71.27   14.41   1 
   0   1  -9   77.02   17.68   1 
   1   0  -9   76.16   17.11   4 
  -1   0  -9   61.57   13.73   4 
   0   1   9   80.74   13.31   1 
   0   1   9   76.35   18.43   3 
   1   0   9   82.11   20.32   3 
   2   1  -9    7.77    6.60   4 
  -1   2   9   12.24   10.28   3 
   1  -2   9   -7.57    7.07   3 
  -1   2  -9   20.27   11.44   1 
  -1   2  -9   21.40   10.57   4 
   2   1   9    1.16    5.34   4 
   2   1   9    4.16    7.38   3 
  -1   2   9    6.98    7.27   1 
  -1   2   9   11.67    7.06   4 
   2   1   9    7.83    5.91   1 
  -2  -1   9    7.94   10.67   3 
   2   1  -9    0.61    6.88   1 
  -1   2   9    0.16    5.80   2 
  -2  -1  -9   20.33   13.23   5 
  -1   2  -9   20.83   12.82   5 
  -2   1   9   87.97   21.30   3 
   2  -1   9   71.21   20.29   3 
  -1  -2   9   64.34   17.85   3 
   1   2   9   97.62   17.19   3 
   1   2   9   56.42   14.18   4 
   2  -1  -9   70.54   18.12   4 
   1   2  -9   84.02   20.82   1 
  -2   1   9   69.56   16.43   1 
  -2   1  -9   88.14   23.31   2 
  -2   1  -9   66.69   21.27   5 
   1   2  -9   57.79   18.16   4 
  -2   1   9   61.59   17.53   2 
   1   2   9   81.31   17.18   1 
   2  -3   9   32.35   16.32   3 
  -3  -2   9   12.42   14.64   3 
  -3  -2   9   21.62   13.57   6 
  -2   3  -9   26.03   14.80   1 
  -2   3   9   25.25   13.37   1 
  -2   3  -9   48.87   18.47   2 
  -2   3   9   38.31   13.89   2 
  -2   3  -9   25.55   14.88   5 
  -3  -2  -9   18.75    9.43   6 
  -2   3   9   27.70   11.49   3 
   3   2  -9   29.72   13.29   1 
   3   2  -9   16.64   12.26   4 
  -2   3   9   31.39   12.27   4 
   0   3  -9   18.17   13.08   5 
   0   3   9   18.68   10.08   4 
  -3   0   9   18.86   11.26   1 
   0   3  -9   15.80   13.67   4 
   0   3   9   29.74    9.98   1 
   3   0  -9   11.03    8.63   4 
  -3   0  -9   31.17   16.96   2 
  -3   0   9   24.27   13.62   2 
   0  -3   9   27.01   13.87   3 
   0   3  -9   33.54   15.71   1 
   0   3   9   28.53   11.37   2 
   0  -3  -9   39.06   11.96   6 
  -3   0  -9   19.77   12.48   5 
  -3   2   9   78.45   21.93   2 
  -3   2  -9  115.65   28.44   5 
   2   3   9  134.01   20.31   4 
  -2  -3  -9  136.50   25.79   6 
  -3   2  -9  111.10   27.33   2 
  -3   2   9  120.66   24.59   1 
   2   3  -9  116.83   29.42   1 
  -2  -3   9  105.95   24.21   6 
   2   3  -9  112.89   27.95   4 
   2   3   9  118.84   20.74   1 
  -2  -3   9  119.01   24.89   3 
  -3   4  -9    3.45    9.32   2 
  -4  -3   9   -4.59    9.42   6 
   4   3  -9    8.00   11.80   1 
  -3   4   9    6.66   13.01   5 
  -3   4   9   33.01   13.21   2 
  -4  -3   9    3.51   14.71   3 
   4   3  -9   -9.38    9.84   4 
  -3   4   9    0.35    6.46   1 
  -3   4  -9    7.45   12.10   5 
  -4  -1   9   99.70   25.60   2 
   4   1  -9   92.35   20.51   1 
  -1   4  -9   27.24   15.26   5 
  -1   4  -9   66.07   18.39   4 
  -1   4   9   75.95   20.41   1 
   4   1  -9   62.00   19.43   4 
  -1   4  -9   66.11   20.83   1 
  -1   4   9   72.97   20.51   4 
  -1   4   9   69.25   19.59   2 
   1  -4   9   81.35   21.15   3 
  -4  -1  -9   54.92   19.10   5 
  -1   4  -9   58.93   18.77   2 
  -1  -4  -9   32.45   13.59   6 
   1   4   9   29.53   13.84   4 
  -4   1   9   39.96   14.89   1 
   1   4  -9   41.70   21.18   5 
  -1  -4   9   19.80   10.64   3 
  -4   1   9   35.48   16.69   2 
   1   4  -9   35.86   16.74   1 
  -4   1  -9   53.55   17.98   2 
   4  -1  -9   33.71   14.45   4 
   1   4  -9   24.08   13.53   4 
   1   4   9   15.00   10.72   1 
  -4   3   9    6.61    8.69   1 
   3   4  -9   25.59   17.76   1 
  -3  -4   9   34.91   16.09   3 
  -3  -4   9    7.16   12.46   6 
  -4   3   9   29.71   15.82   5 
  -4   3  -9    7.18    9.47   2 
   3   4   9   25.68   12.17   4 
  -4   3   9   26.34   15.37   2 
  -4   5  -9   25.05   14.92   2 
   5   4  -9    5.65   18.85   4 
  -5  -4   9   11.36   15.86   3 
  -4   5  -9   65.98   25.32   5 
  -5  -4   9   38.52   19.49   6 
  -4   5   9   58.30   23.41   5 
   5   4  -9   30.97   20.58   1 
  -4   5   9   30.61   17.21   2 
  -2   5  -9   70.66   23.45   2 
  -2   5  -9   82.68   22.18   1 
  -2   5   9   84.14   20.07   2 
   5   2  -9   78.96   23.47   4 
  -2   5  -9   49.98   20.47   5 
  -2   5   9   44.70   17.38   1 
   5   2  -9   81.45   24.32   1 
   0   5  -9   28.80   15.30   1 
   0   5   9   16.51   12.61   1 
   0   5  -9   35.10   17.58   5 
  -5   0   9   28.72   15.65   2 
   0  -5   9   22.03   13.39   3 
   0   5  -9   13.01   10.07   2 
   0   5   9    5.26    9.45   4 
   5   0  -9   21.56   10.29   1 
   5   0  -9   43.84   15.26   4 
   2   5   9    9.99    9.35   1 
  -5   2   9   26.64   12.88   1 
  -5   2   9    7.19   12.22   2 
   5  -2  -9   11.04   11.17   4 
  -2  -5   9   31.11   13.77   6 
   2   5  -9   26.07   12.02   2 
  -5   2  -9   18.78   12.58   2 
   2   5   9   38.73   14.63   4 
   2   5  -9   35.10   18.03   1 
  -5   2   9   26.02   17.30   5 
  -5   4   9   38.36   14.92   1 
   4   5  -9   -2.22   14.93   1 
  -5   4   9   43.28   20.43   5 
   5  -4  -9    5.29   18.60   4 
  -4  -5   9   28.39   17.60   6 
  -5   4   9   44.02   19.67   2 
  -3   6  -9   16.63   11.95   2 
   6   3  -9   -1.56   16.21   1 
  -3   6  -9   44.05   20.44   5 
   6   3  -9    1.47   18.09   4 
  -3   6   9   10.12   16.21   2 
  -1   6  -9    7.62   12.67   2 
   6   1  -9   39.66   18.05   1 
  -1   6   9   18.54   15.39   1 
  -6  -1  -9   20.93   12.75   6 
  -6  -1   9   28.08   12.66   2 
   6   1  -9   33.25   17.08   4 
  -1   6  -9   12.52   11.96   1 
  -1   6  -9    0.06   12.83   5 
   6  -1  -9  -12.51    9.48   4 
   1   6   9    2.38   11.72   4 
   1   6  -9  -20.37    7.83   1 
  -6   1  -9    4.77   10.43   6 
  -6   1  -9    5.75   11.09   2 
  -6   1   9   10.71   12.63   2 
   1   6   9   38.55   16.33   1 
  -6   3   9   40.32   14.55   1 
  -6   3   9   20.41   18.95   5 
   3   6   9   69.85   22.11   4 
   3   6  -9   70.68   24.61   1 
   6  -3  -9   53.86   21.40   4 
  -3  -6   9   63.06   24.72   6 
  -2   7  -9    8.84   12.21   2 
   0   7   9   12.97   13.69   1 
  -7   0  -9   84.31   26.77   6 
   7   0  -9   93.22   27.86   4 
   2   7   9    9.29   14.32   1 
  -7   2  -9   21.08   17.49   6 
   0   0  10   11.49    6.20   1 
   0   0 -10    7.63    6.69   4 
   0   0  10   -5.26    7.74   3 
   1  -1  10 5251.97  154.81   3 
   1  -1 -10 5356.55  148.19   4 
   1   1  10 5168.55  145.24   3 
  -1  -1  10 5335.20  153.40   3 
   1   1  10 5359.85  135.91   4 
  -1   1 -10 5272.45  175.65   5 
  -1   1 -10 5345.35  136.29   1 
   1   1 -10 5067.32  140.77   1 
  -1   1  10 5386.76  147.98   3 
   1   1 -10 5137.67  150.20   4 
  -1   1  10 5182.05  138.46   1 
  -1   1 -10 5350.34  139.72   4 
   1   1  10 5439.43  132.85   1 
   0   2 -10   22.14   12.63   1 
   0  -2  10   11.34    9.88   3 
   0   2  10   14.47    8.23   1 
   2   0  10   10.09   10.01   3 
   0   2  10   13.52    9.40   3 
  -2   0  10   11.67   11.03   2 
   0   2  10   13.50    9.01   4 
  -2   0  10   14.38    7.81   1 
  -2   0  10   19.83   11.24   3 
  -2   0 -10   17.61   13.41   5 
   0   2 -10    3.94    9.58   4 
   2   0 -10   23.04   11.28   4 
   2  -2  10    0.10   10.96   3 
  -2   2  10   -3.26    7.85   2 
  -2  -2  10    0.08    8.31   3 
   2   2 -10    1.40    8.33   4 
   2   2  10   -4.21    6.23   3 
   2   2  10   17.34    7.32   1 
  -2   2  10   -1.61    5.94   4 
  -2   2 -10   18.32   12.54   5 
  -2   2 -10   17.84   12.55   2 
  -2   2  10   -6.04    5.89   1 
   2   2 -10    8.44    8.71   1 
  -2   2  10    0.65    9.51   3 
  -2  -2 -10   -6.84    4.75   6 
  -2  -2 -10    7.09   14.90   5 
   2   2  10    0.96    5.43   4 
  -3  -1 -10 4413.24  140.05   2 
  -1   3 -10 4592.30  151.84   2 
   1  -3  10 4374.38  136.02   3 
  -1   3  10 4452.92  141.31   4 
   3   1 -10 4439.38  133.01   1 
  -1   3 -10 4480.17  142.23   1 
  -1   3  10 4511.37  126.61   3 
  -3  -1  10 4421.30  148.01   3 
  -1   3 -10 4150.48  160.53   5 
  -3  -1 -10 4326.13  156.86   5 
  -1   3 -10 4516.06  143.84   4 
  -1   3  10 4521.27  136.18   2 
  -1   3  10 4410.87  134.15   1 
   1   3 -10 4224.04  149.42   4 
  -1  -3 -10 3835.22  117.04   6 
  -3   1  10 4054.99  127.42   1 
  -3   1 -10 4037.73  138.75   2 
   1   3 -10 4085.61  140.98   1 
   3  -1  10 3757.80  138.13   3 
  -1  -3  10 3886.94  128.73   3 
  -3   1  10 4036.71  142.40   2 
   1   3  10 4079.89  117.94   1 
   1   3  10 4023.93  128.54   4 
  -3   1 -10 4073.18  159.21   5 
  -3   3  10 3458.21  126.55   2 
  -3  -3  10 3690.84  130.23   6 
  -3   3 -10 3358.85  132.05   2 
  -3  -3  10 3531.64  124.47   3 
  -3   3  10 3354.68  118.48   1 
   3   3 -10 3273.16  132.75   1 
  -2   4 -10   17.21   11.76   2 
  -2   4  10    8.70   10.30   1 
   4   2 -10    6.71   11.60   1 
  -4  -2  10    7.85   11.56   6 
   4   2 -10   20.59   12.84   4 
   2  -4  10  -10.30    7.11   3 
  -2   4  10   14.56    8.83   2 
  -4  -2  10   18.49   13.56   3 
  -2   4 -10   28.40   15.18   5 
   0   4 -10   21.35   16.13   5 
   0   4  10   21.68   11.35   4 
   0   4  10   71.96   18.45   1 
   0  -4  10   20.05   12.90   3 
   0   4 -10   18.83   14.96   4 
  -4   0 -10   33.26   16.83   2 
   4   0 -10   19.49   10.58   4 
   0   4 -10   19.73   13.07   2 
   0   4 -10   64.78   20.80   1 
  -4   0  10   54.64   19.29   2 
  -4   0 -10   48.09   18.80   5 
  -2  -4  10   44.22   16.14   3 
  -4   2  10   15.87   10.01   1 
  -4   2  10   36.89   15.76   2 
   2   4  10    9.72   10.27   1 
   4  -2 -10   26.49   15.41   4 
   2   4  10   41.43   14.61   4 
   2   4 -10   26.40   14.40   1 
  -4   2 -10   53.82   19.63   2 
  -4   4 -10    4.84   10.55   2 
  -4   4  10  -17.10    9.72   2 
  -4  -4  10  -11.23   10.42   6 
  -4   4 -10   -0.76    9.88   5 
   4   4 -10   10.23   16.67   1 
  -4   4  10   18.54   11.29   1 
  -4  -4  10    8.46   11.26   3 
   5   3 -10 2461.91  126.65   4 
   5   3 -10 2547.74  115.84   1 
  -3   5  10 2562.97  108.30   2 
  -3   5 -10 2433.66  125.75   5 
  -3   5  10 2313.25  108.95   1 
  -5  -3  10 2497.80  116.99   3 
  -3   5 -10 2258.25  108.35   2 
  -1   5 -10 2775.11  118.12   2 
  -1   5 -10 2616.95  109.58   1 
   5   1 -10 2740.58  104.03   1 
  -1   5  10 2746.01  121.18   4 
  -5  -1  10 2533.53  112.67   2 
   5   1 -10 2865.40  117.25   4 
  -1   5  10 2963.38  115.41   1 
  -1   5 -10 2859.92  129.66   5 
   1  -5  10 2785.43  100.96   3 
   1   5 -10 3077.49  128.79   1 
  -1  -5  10 3177.46  110.50   3 
   1   5 -10 3470.91  142.64   5 
   1   5  10 3168.63  113.67   1 
   1   5  10 3288.14  129.60   4 
  -5   1  10 2862.17  127.43   2 
   1   5 -10 3131.65  124.06   2 
  -5   1 -10 3317.78  126.03   2 
  -5   1  10 3115.90  115.95   1 
   5  -1 -10 3033.61  121.59   4 
   3   5 -10 2180.41  117.87   1 
  -5   3 -10 2226.05  111.43   2 
  -3  -5  10 2336.61  108.40   6 
   3   5  10 2150.97   95.73   4 
  -5   3  10 2246.91   97.41   1 
   5  -3 -10 2202.19  108.27   4 
  -5   3  10 2187.06  107.84   2 
   5   5 -10 1742.25  104.54   1 
  -5   5  10 1521.05   93.42   2 
  -4   6 -10   11.95   14.57   2 
   6   4 -10    7.43   12.92   1 
  -4   6  10  -23.07   11.97   2 
   6   2 -10   18.83   15.36   4 
   6   2 -10    5.68   12.10   1 
  -2   6  10   -7.70    9.51   1 
  -2   6 -10   -7.98    8.48   2 
  -2   6 -10   -0.52   14.07   5 
  -6   0 -10   23.11   15.84   6 
   6   0 -10    5.71   10.88   1 
   0   6 -10   -4.70   11.43   2 
   0   6 -10   13.21   11.04   1 
  -6   0  10    3.03   11.30   2 
   0   6  10   20.80   15.29   4 
   0   6  10   17.37   13.50   1 
   6   0 -10   16.38   13.70   4 
  -6   2 -10   14.86   11.97   2 
   2   6  10   21.13   16.59   4 
   2   6  10  -13.13   12.17   1 
  -6   2  10    8.84   11.30   1 
   6  -2 -10  -15.45   10.71   4 
  -6   4  10   -6.46   11.21   2 
   4   6 -10   -6.66   14.66   1 
  -1   7 -10 1719.46   87.69   2 
  -1   7  10 1778.59   95.68   1 
   1   7  10 1729.95   91.11   1 
  -1   0  11   30.76   13.41   3 
   1   0  11   42.22   16.42   3 
  -1   0  11   48.89   15.39   1 
  -1   0 -11   45.17   14.75   4 
   0  -1 -11   78.14   17.99   4 
   0  -1  11   42.83   15.58   3 
   1   0 -11   53.76   16.09   4 
   0   1 -11   45.76   15.48   1 
   0   1  11   42.61   12.14   1 
   0   1 -11   37.08   13.59   4 
   0   1  11   59.97   18.79   3 
  -1   2 -11   97.95   24.15   1 
  -1   2  11   46.57   14.96   1 
   2   1 -11   70.83   18.50   1 
  -1   2  11   34.18   14.43   4 
  -2  -1 -11   49.49   20.00   5 
  -1   2 -11   43.47   18.83   5 
  -1   2  11   98.77   22.79   2 
  -2  -1  11  113.79   26.42   3 
  -1   2  11   45.76   15.81   3 
   1  -2  11   60.53   20.42   3 
   2   1  11   52.26   16.51   3 
   2   1 -11   67.18   18.19   4 
   1   2 -11   -3.49    8.10   4 
  -2   1  11    5.19    6.91   1 
   2  -1  11   11.86   10.96   3 
  -2   1 -11    3.66   11.02   5 
   2  -1 -11   11.70    8.30   4 
   1   2  11    3.41    6.28   1 
  -2   1 -11    4.08   11.60   2 
  -1  -2  11   11.09   12.61   3 
   1   2  11   10.10    7.31   3 
  -2   1  11    0.47    8.11   2 
  -2   1  11   13.52    9.45   3 
   1   2  11   17.18    7.77   4 
   1   2 -11   11.13   12.66   1 
  -3  -2  11  100.12   28.04   3 
  -2   3  11   44.97   15.13   4 
  -2   3  11   45.90   16.89   2 
  -2   3  11   73.73   21.85   3 
   3   2 -11   73.59   21.10   1 
  -2   3 -11   69.51   23.27   5 
   2  -3  11   66.42   20.97   3 
  -2   3 -11  111.12   28.60   2 
  -2   3  11   56.43   16.54   1 
   0   3 -11   30.11   16.55   1 
  -3   0 -11   11.21   13.84   2 
   0  -3  11   11.81   11.04   3 
   0   3 -11   32.09   16.71   5 
   0   3 -11   38.39   15.18   4 
  -3   0  11    6.50   10.89   1 
   3   0  11   16.62    9.32   3 
   0   3  11    6.22    7.82   4 
  -3   0 -11   28.70   16.62   5 
  -3   0  11   20.08   11.99   2 
   0   3  11   21.53   10.72   1 
  -3   0  11   21.64   10.18   3 
   2   3  11   28.20   12.88   4 
   2   3 -11    5.99   12.22   1 
  -3   2  11    9.06   11.35   2 
  -3   2  11    4.04    9.92   1 
  -3   2 -11   18.03   14.65   2 
  -3   2  11    0.31   10.19   3 
  -2  -3 -11    7.33    9.06   6 
  -2  -3  11   21.33   13.57   3 
   3  -2  11   10.20   13.60   3 
  -3   4 -11   22.74   14.57   2 
  -4  -3  11   50.27   19.31   3 
  -3   4  11   19.36   14.77   2 
  -4  -3  11   72.37   22.86   6 
   4   3 -11   29.20   17.44   1 
  -3   4  11   22.96   10.78   1 
  -3   4 -11   26.54   16.82   5 
  -1   4 -11  -12.41    8.11   2 
   4   1 -11   43.75   17.53   4 
   1  -4  11   49.50   18.03   3 
  -1   4  11   33.24   16.01   1 
  -4  -1  11   20.16   15.45   3 
  -1   4 -11   25.44   17.25   5 
   4   1 -11   15.70   10.50   1 
  -1   4 -11    6.50   14.33   1 
  -1   4  11   19.47   12.17   4 
  -1   4  11    8.12   12.45   2 
   4  -1 -11   26.45   13.70   4 
  -1  -4  11   30.33   12.55   3 
   1   4  11   27.14   12.88   1 
   1   4 -11   42.08   22.44   5 
   1   4 -11    5.53   13.06   1 
  -4   1 -11   66.18   27.45   2 
  -4   1  11   25.48   16.08   2 
   1   4  11   53.11   17.29   4 
  -4   1  11   22.92   11.09   1 
   3   4 -11    0.77   13.89   1 
  -3  -4  11   17.51   13.62   3 
  -4   3 -11    7.35   11.17   2 
  -4   3  11    7.01    9.25   1 
  -4   3  11    9.53   12.35   2 
   4  -3 -11   47.07   20.00   4 
  -5  -4  11   53.77   23.46   6 
   5   4 -11   15.00   17.31   1 
  -4   5  11    3.75   11.30   2 
  -2   5 -11    9.52   15.20   5 
  -2   5  11   11.15   12.09   1 
  -2   5  11   -7.34   12.27   2 
  -5  -2  11   -2.28   11.26   3 
   5   2 -11  -14.80    8.89   4 
   5   2 -11    4.61   12.36   1 
  -2   5 -11    3.23   12.18   2 
   0   5 -11    9.88   14.91   2 
   0   5 -11   38.68   18.75   5 
   5   0 -11   26.15   13.23   1 
   0   5 -11   25.59   14.96   1 
   5   0 -11   11.60   11.54   4 
   0   5  11   30.21   14.72   1 
   0   5  11   28.53   14.07   4 
  -5   0  11    1.06    8.69   2 
   0  -5  11   48.44   16.06   3 
   2   5 -11   62.20   26.54   5 
   2   5  11   51.25   17.70   1 
   2   5 -11   76.53   23.97   1 
   2   5 -11  101.21   27.44   2 
  -5   2  11   22.67   15.15   2 
   5  -2 -11   40.11   18.19   4 
  -5   2  11   15.46   12.94   1 
   2   5  11   60.25   21.97   4 
  -5   2 -11   12.96   13.83   2 
  -2  -5  11   45.66   15.51   3 
  -5   4  11    5.00   12.18   2 
   4   5 -11  -11.49   11.41   1 
   5  -4 -11   32.58   23.46   4 
  -4  -5  11   22.51   14.40   6 
  -3   6 -11   56.97   20.33   2 
   6   3 -11   48.83   22.07   1 
  -1   6 -11   20.39   16.07   5 
   6   1 -11   20.47   16.50   4 
  -1   6 -11   26.71   14.49   2 
  -6  -1 -11   13.43   11.42   6 
  -1   6  11    3.00   11.87   1 
  -1   6  11  -10.90   10.80   4 
   6   1 -11    5.95   12.92   1 
   1   6  11   38.33   20.78   4 
   6  -1 -11   34.63   17.34   4 
   1   6  11   26.28   18.81   1 
   6  -1 -11   27.13   15.11   1 
   1   6 -11   60.13   21.51   2 
   0   7  11   10.10   14.04   1 
   7   0 -11   -1.74   12.42   1 
   0   0  12 5350.43  160.65   3 
   0   0  12 5205.50  148.22   1 
   0   0 -12 5374.67  152.96   4 
   1  -1 -12    2.38    5.73   4 
   1   1  12    7.62    9.03   3 
  -1   1 -12   -4.19    8.57   1 
  -1  -1 -12   -6.58    6.12   4 
   1   1 -12    1.32    7.17   4 
   1  -1  12   -1.10    6.11   3 
   1   1 -12   -0.23    7.92   1 
  -1   1  12   14.27   11.35   3 
   1   1  12    6.50    8.24   1 
  -1  -1  12    8.72    9.39   3 
  -1   1  12    4.57    8.19   1 
  -2   0  12 3219.00  123.23   3 
   0   2  12 3403.64  112.02   1 
  -2   0  12 3519.99  120.26   1 
   0   2  12 3401.80  114.56   3 
   0   2 -12 3445.40  125.17   4 
   2   0  12 3256.72  123.30   3 
  -2   0 -12 3403.94  147.36   5 
   0   2 -12 3580.06  122.12   1 
   0   2  12 3292.28  115.09   4 
   0  -2  12 3467.97  121.27   3 
  -2   2  12 3614.00  134.18   2 
  -2  -2  12 3455.23  130.71   3 
  -2   2 -12 3674.56  137.55   2 
  -2   2  12 3525.04  125.54   3 
  -2   2  12 3399.21  118.03   1 
   2   2 -12 3568.17  129.08   1 
   2  -2  12 3696.75  136.22   3 
   2   2  12 3443.66  107.57   3 
  -3  -1 -12   18.77   13.94   5 
  -1   3 -12   -1.85   10.65   5 
  -1   3 -12   -4.61   14.41   1 
  -1   3  12   -3.39    7.47   1 
   1  -3  12   15.50   11.48   3 
   3   1 -12   -0.41    6.32   1 
   3   1  12    4.39    9.00   3 
  -1   3  12   24.56   14.06   2 
  -1   3  12   -3.32    7.07   4 
  -3  -1  12   -8.93    9.39   3 
  -1   3 -12   16.49   11.55   2 
  -3   1 -12   -8.69   11.26   2 
   3  -1  12   11.52   12.06   3 
   1   3  12    9.86    7.74   1 
   1   3  12    6.08    9.93   4 
  -3   1  12    5.65   11.43   2 
   1   3 -12   19.84   15.72   1 
  -3   1  12   -4.12    7.22   1 
  -1  -3  12   16.58   11.61   3 
  -3   1  12   -8.55    9.32   3 
  -3  -3  12   -5.33    8.81   3 
   3   3 -12  -10.29    7.36   1 
  -3   3 -12    6.97   10.03   2 
  -3   3  12    2.99   11.51   2 
  -3   3  12  -11.59    5.31   1 
  -3   3  12   16.85   15.40   3 
  -2   4 -12 2787.43  136.31   5 
  -2   4  12 2934.32  114.98   2 
  -2   4  12 2799.06  115.10   1 
  -2   4  12 2812.86  122.09   4 
   2  -4  12 2667.18  107.32   3 
  -2   4 -12 2793.50  124.07   2 
   4   2 -12 2763.03  115.20   1 
  -4  -2  12 2771.18  126.04   3 
  -4   0  12 2798.60  123.98   2 
   0   4 -12 2953.42  139.21   5 
   0  -4  12 2936.76  109.52   3 
   0   4  12 2755.28  111.02   1 
   4   0 -12 2884.98  106.10   1 
   0   4 -12 2933.43  124.00   1 
   0   4 -12 2876.97  126.67   2 
  -4   0 -12 2953.30  121.89   2 
   0   4  12 2980.37  121.01   4 
  -4   0  12 2705.19  119.27   3 
   4   0 -12 2782.06  116.32   4 
  -4   2  12 2725.50  124.03   2 
   2   4 -12 3133.45  134.72   1 
  -2  -4  12 2697.09  108.68   3 
   2   4  12 2757.90  111.78   4 
  -4   2  12 2610.62  110.06   1 
   4  -2 -12 2575.36  116.45   4 
  -4   2 -12 2628.95  119.98   2 
  -4   2  12 2654.84  112.18   3 
   4   4 -12 1847.63  106.45   1 
   4  -4 -12 1922.07  113.36   4 
  -4   4  12 1934.99  103.16   2 
   5   3 -12    8.50   17.58   4 
   5   3 -12   -3.78   13.37   1 
  -3   5 -12   17.41   12.22   2 
  -3   5 -12   -5.30   16.87   5 
  -3   5  12   13.25   14.71   2 
  -1   5 -12    7.81   12.67   2 
  -1   5  12  -10.67   11.30   4 
   1  -5  12    8.92    9.75   3 
  -1   5 -12   12.24   14.99   5 
  -1   5 -12   13.74   11.57   1 
   5   1 -12    3.99   10.69   1 
  -1   5  12    5.87   13.41   1 
   5   1 -12    3.04   10.37   4 
   1   5  12   14.19   15.49   4 
  -5   1 -12    7.86   12.50   2 
   1   5 -12    3.72   12.98   1 
  -1  -5  12    2.91   10.83   3 
   1   5  12   -1.79   11.73   1 
   5  -1 -12    4.86   11.02   4 
   1   5 -12    0.65   11.28   2 
   1   5 -12  -25.46   13.18   5 
  -5   1  12   -4.36    8.22   1 
  -5   3  12   -2.25   11.30   2 
   5  -3 -12  -13.11   14.92   4 
   6   2 -12 1564.61   87.43   1 
  -2   6 -12 1692.90   92.73   2 
  -2   6  12 1580.69   94.39   1 
   6   0 -12 1636.35   89.93   4 
   0   6 -12 1090.44   81.77   5 
   0   6  12 1538.06   82.86   1 
   0   6  12 1203.77   84.25   4 
   6   0 -12 1648.23   79.29   1 
   2   6  12 1050.83   71.13   4 
  -1   0  13   26.57   13.38   3 
  -1   0 -13   18.63   13.17   1 
   0   1 -13   48.09   15.22   4 
   0   1 -13   40.12   16.87   1 
   1   0  13   17.09   11.68   3 
   0  -1 -13   49.22   15.35   4 
   0   1  13   41.72   15.16   3 
   0  -1  13   19.14   11.97   3 
  -1   0  13   28.71   14.10   1 
   0   1  13   59.68   16.40   1 
   1  -2  13   59.03   19.48   3 
  -1   2 -13   46.47   19.89   1 
  -2  -1  13   62.05   22.15   3 
   2   1 -13   42.01   14.92   1 
   2   1  13   61.65   19.84   3 
  -1   2  13   50.72   16.89   1 
   1   2  13   12.85   10.85   4 
   2  -1  13   -2.22   10.19   3 
   1   2  13   17.39    9.39   3 
  -2   1 -13   14.61   14.17   2 
  -2   1  13    5.92   10.59   1 
  -1  -2  13   19.82   13.82   3 
   1   2  13    9.40    9.71   1 
  -2   1  13   -5.88    9.43   3 
   1   2 -13  -15.48    9.79   1 
  -2   3  13   80.24   23.24   1 
   3   2 -13   57.67   18.19   1 
   2  -3  13   76.03   22.24   3 
  -2   3  13   70.30   21.60   3 
  -3  -2  13   80.01   22.96   3 
  -2   3  13   48.68   19.20   4 
  -2   3 -13   77.80   23.26   2 
  -2   3  13   44.19   20.01   2 
   0   3 -13   27.91   16.09   5 
   0   3  13   -3.66    8.10   4 
  -3   0  13   -9.80   11.09   3 
   0   3 -13   18.26   15.63   1 
  -3   0 -13   -2.05   14.70   2 
   0  -3  13    0.80    8.75   3 
   0   3  13   15.75   12.04   1 
   3   0  13  -13.95    8.80   3 
  -3   2  13   20.89   12.91   2 
  -3   2 -13   15.54   11.60   2 
   2   3 -13    1.60    9.41   1 
  -3   2  13    2.74   13.96   3 
   3  -2  13  -11.38    8.37   3 
  -3   2  13   21.16   11.20   1 
  -2  -3  13    3.27   10.29   3 
  -3   4  13   28.12   15.86   2 
   4   3 -13   10.12   14.29   1 
  -3   4 -13   28.18   16.10   5 
   1  -4  13   10.74   12.09   3 
  -1   4 -13   10.29   14.39   5 
   4   1 -13   17.66   12.46   1 
  -1   4  13    8.58   10.89   1 
  -1   4  13    2.83   10.26   4 
  -1   4 -13   43.94   17.44   2 
  -4  -1  13   21.53   15.97   3 
  -1   4 -13   21.52   15.82   1 
   1   4 -13   23.40   20.92   5 
  -1  -4  13   30.50   13.70   3 
  -4   1 -13   32.14   18.01   2 
   4  -1 -13   58.45   19.61   4 
  -4   1  13   34.28   17.78   2 
   1   4  13   14.44   14.71   4 
  -4   1  13    4.90   13.81   3 
  -4   1  13   41.92   18.17   1 
   1   4 -13   34.55   17.35   1 
   1   4  13   25.84   16.85   1 
   4  -3 -13    1.51   14.70   4 
  -4   3  13   39.99   20.24   2 
  -4   3  13   -3.28   13.92   3 
  -4   5  13   58.74   23.58   2 
   5   4 -13    9.77   18.93   1 
   5   2 -13   12.11   15.76   4 
  -2   5 -13  -14.04   10.79   2 
  -2   5  13   -0.55   13.83   4 
  -2   5 -13  -12.74   13.66   5 
  -2   5  13    2.82   13.86   1 
   5   2 -13    5.12   12.05   1 
   0   5 -13   -1.14   13.95   2 
   0   5 -13   58.89   20.54   1 
   5   0 -13    2.51   14.06   4 
   5   0 -13   38.05   16.12   1 
  -5   0  13   46.63   18.40   3 
   0   5  13   13.59   13.59   4 
   0  -5  13    8.57   11.38   3 
   0   5 -13    7.36   19.48   5 
   0   5  13   10.71   14.06   1 
  -5   2  13   23.49   16.66   3 
   5  -2 -13   29.64   17.92   4 
   2   5 -13   42.08   27.45   5 
   2   5 -13   54.21   22.07   2 
  -5   4  13  -12.36   11.82   2 
   4   5 -13   29.21   19.75   1 
  -1   6 -13  -20.60   10.72   2 
   6   1 -13   -5.28   12.13   1 
  -1   6  13    4.02   13.74   1 
  -6   1  13    6.89   16.26   3 
   1   6 -13   36.92   19.31   2 
   6  -1 -13   23.00   15.65   1 
   1   6  13   35.78   18.30   1 
   0   0 -14    4.50   10.63   1 
   0   0  14    7.77    9.67   3 
  -1   1  14 3267.19  119.22   1 
  -1   1 -14 3206.79  116.33   1 
   1   1  14 3236.03  113.27   1 
  -1  -1  14 3084.95  131.12   3 
   1   1  14 2997.07  116.23   3 
   1  -1  14 3082.66  124.17   3 
   1   1 -14 3049.87  115.32   1 
  -1   1  14 3332.13  128.13   3 
   2   0 -14   -1.33    5.85   1 
   0   2  14   19.51   12.19   3 
  -2   0  14   16.42   13.74   3 
   2   0  14   -1.72   10.66   3 
   0   2 -14   -9.33   10.62   1 
   0   2  14    6.34   10.67   1 
   0  -2  14   15.97   11.55   3 
   2  -2  14    3.98   10.05   3 
  -2   2  14   -1.49    9.49   1 
  -2  -2  14   12.41   10.85   3 
  -2   2 -14    6.32    9.60   2 
   2   2 -14   -3.74    8.39   1 
   2   2  14   12.32   10.93   3 
  -2   2  14    4.37   13.53   3 
   3   1  14 2776.66  105.47   3 
  -1   3 -14 2331.00  122.16   5 
  -1   3 -14 1884.50   99.41   1 
  -3  -1  14 2364.32  112.42   3 
  -1   3 -14 2422.36  113.48   2 
   1  -3  14 2457.44  105.55   3 
  -1   3  14 2527.59  111.16   4 
  -1   3  14 2528.79  105.29   1 
   3   1 -14 2388.93  101.23   1 
   3  -1  14 2240.25  105.66   3 
   1   3 -14 2108.90  106.84   1 
   1   3  14 2182.14   93.92   1 
  -3   1 -14 2223.22  107.49   2 
   1   3  14 2317.80   99.12   4 
  -1  -3  14 2219.25   98.51   3 
  -3   1  14 2207.97  105.42   3 
  -3   1  14 2194.63  100.91   1 
  -3   3  14 2170.63  103.05   1 
  -3   3  14 2318.41  108.47   3 
  -3   3  14 2223.45  110.17   2 
  -2   4  14    4.74   12.86   2 
   4   2 -14   13.33   11.54   1 
  -2   4  14   17.08   14.93   1 
  -2   4 -14  -23.64   13.73   5 
  -2   4  14    0.06   12.47   4 
   0   4 -14    1.84   12.93   2 
   0   4  14   23.00   16.91   1 
   4   0 -14    4.87    9.80   1 
  -4   0  14    3.90   12.51   3 
   0   4 -14   -4.63   11.85   1 
   0   4  14   -0.13   12.30   4 
   0   4 -14   15.17   14.33   5 
   0  -4  14    1.04    8.02   3 
  -4   2  14   36.06   16.33   2 
  -4   2  14    0.58   15.09   3 
   4  -2 -14   28.52   16.88   4 
   2   4 -14   36.88   22.75   5 
   4   4 -14    9.97   14.74   1 
  -4   4  14   -1.37   13.07   2 
  -3   5  14 1564.00   88.36   2 
  -3   5  14 1396.37   90.45   1 
  -3   5 -14 1414.82   87.84   2 
   5   3 -14 1431.09   89.11   1 
  -1   5 -14 1295.45   94.53   5 
  -1   5 -14 1504.24   91.85   2 
  -1   5  14 1435.67   84.28   1 
   5   1 -14 1639.54   84.81   1 
   1   5 -14 1978.42  107.33   2 
   1   5  14 1991.07   95.69   1 
  -5   1  14 1818.94  102.33   3 
   1   5 -14 2165.69  122.24   5 
   1   5  14 2114.99  106.25   4 
  -5   3  14 1341.24   87.99   2 
   0   6  14    4.85   16.14   1 
   6   0 -14   12.31   13.42   1 
   0   6 -14    8.54   15.94   2 
  -6   0  14   14.09   15.69   3 
   1   0 -15   26.50   13.55   1 
   0   1  15   34.09   17.23   1 
   0   1  15   26.47   15.55   3 
   0  -1  15   11.78   12.98   3 
   0   1 -15   38.11   15.51   1 
  -1   0  15   31.82   17.63   3 
   1   0  15   31.39   15.04   3 
  -2  -1  15   21.42   14.65   3 
   2   1 -15   -0.47    9.23   1 
  -1   2  15    6.15   11.61   1 
  -1   2  15   31.43   16.73   3 
   2   1  15    7.31   12.24   3 
   1  -2  15   15.08   11.98   3 
  -2   1  15   36.04   16.18   3 
   2  -1  15   24.78   16.02   3 
  -1  -2  15   41.80   16.61   3 
   1   2  15   10.65   14.21   3 
  -2   1  15   30.89   16.69   1 
  -2   1 -15   33.49   15.24   2 
   1   2 -15    4.65   13.07   1 
   1   2  15   -3.36   12.63   1 
  -2   3  15   29.85   17.66   1 
   0   3 -15    7.12   17.84   5 
  -3   0 -15   -9.81   13.54   2 
   3   0  15   15.74   12.41   3 
   0   3  15   -6.26   12.54   1 
   3   0 -15    2.31    8.03   1 
   0   3 -15    0.64   11.54   1 
  -3   0  15  -11.49   12.50   3 
   0  -3  15   20.16   11.17   3 
  -3   2  15   30.63   16.23   1 
   3  -2  15   22.73   16.25   3 
  -3   2  15   32.93   16.61   3 
   4   3 -15   -6.29    9.91   1 
  -3   4  15  -21.93    9.71   1 
  -3   4  15    5.50   14.44   2 
  -1   4  15   51.56   21.63   1 
  -1   4 -15   27.65   18.87   5 
   4   1 -15   24.03   13.92   1 
  -1   4  15   35.98   19.48   4 
  -1   4 -15   20.24   15.30   2 
  -4   1  15  -13.05   11.68   3 
   1   4  15   11.44   16.85   4 
   1   4 -15   28.80   20.38   5 
   1   4  15   18.29   16.36   1 
  -4   3  15    4.73   18.35   3 
  -4   3  15   -5.91   12.47   2 
   5   2 -15   36.15   18.40   1 
  -2   5  15   35.22   19.98   1 
  -2   5 -15   33.80   18.69   2 
   5   0 -15   20.18   16.08   1 
  -5   0  15   12.58   14.98   3 
   0   5  15    1.63   14.91   1 
   0   5 -15   16.14   17.41   2 
  -5   2  15    3.98   16.37   3 
   2   5 -15   22.59   18.99   2 
  -5   2  15   -8.06   10.54   2 
   0   0 -16 2449.01  110.07   1 
   0   0  16 2531.59  115.34   3 
  -1   1  16   -7.25   12.18   1 
   1   1  16   26.81   16.21   3 
   1  -1  16   26.35   16.75   3 
   1   1 -16    9.53   12.03   1 
  -1  -1  16   -4.89   11.03   3 
  -1   1  16    9.76   12.56   3 
   0   2  16 2508.80  108.56   3 
   0   2 -16 2469.99  114.99   1 
  -2   0 -16 2410.45  126.77   2 
   2   0  16 2292.26  110.06   3 
   0   2  16 2345.08  107.33   1 
  -2   0  16 2381.41  117.62   3 
  -2   2  16 1960.79   99.88   1 
   2  -2  16 2114.73  105.92   3 
  -2   2  16 1996.87  104.13   3 
  -1   3 -16  -16.69   15.16   5 
  -3  -1  16  -18.48   10.50   3 
  -1   3  16   21.81   15.37   1 
   3  -1  16    2.60   13.25   3 
   1   3 -16    8.71   24.66   5 
  -3   1  16    3.42   13.16   1 
  -3   1  16   16.46   15.14   3 
  -3   3  16   14.90   13.81   1 
  -2   4  16 1410.66   87.59   1 
   0   4 -16 1553.96   94.75   2 
   0   4  16 1606.10   87.09   1 
  -4   0  16 1486.36   90.37   3 
   0   4  16 1226.64   83.01   4 
  -4   2  16 1374.55   85.60   3 
   0  -1  17   -1.04   12.50   3 
   1   0  17   13.62   14.96   3 
   0   1  17   18.64   15.54   3 
  -1   0  17    6.38   13.01   3 
   0   1 -17    4.76   13.46   1 
   2   1  17   32.01   16.58   3 
  -1   2  17   41.69   20.72   3 
  -2  -1  17   29.81   19.08   3 
  -1   2  17   21.71   18.06   1 
   1  -2  17   10.39   13.14   3 
   2  -1  17   34.50   18.35   3 
  -2   1  17   26.63   19.38   3 
  -2   3  17  -12.85   12.69   1 
   0   3 -17   14.46   17.35   2 
   3   0  17   50.33   22.63   3 
  -3   0  17  -13.55   11.52   3 
   0   3  17   13.33   15.79   1 
  -3   2  17    0.54   13.09   1 
  -3   2  17  -19.48   13.60   3 
   3  -2  17  -11.89   10.71   3 
  -1   4  17   12.32   16.96   1 
  -4  -1  17   15.55   17.37   3 
  -1   4 -17   16.90   16.10   2 
   1   4 -17    9.55   20.42   2 
  -4   1  17  -22.27   13.64   3 
   0   0  18  -21.76   11.50   3 
   1   1  18 1690.93   91.44   3 
   1  -1  18 1726.30   96.30   3 
  -1  -1  18 1637.58   96.70   3 
  -1   1  18 1732.66   93.90   3 
   2   0  18    8.64   14.04   3 
  -2   0  18   23.58   16.56   3 
   0   2  18  -22.76   16.04   1 
   0  -2  18   -7.54   12.00   3 
  -2   2  18  -24.97   11.85   1 
   2  -2  18    2.64   14.63   3 
  -2   2  18   -9.55   16.00   3 
  -1   3  18 1360.57   87.50   1 
  -3  -1  18 1285.67   91.12   3 
  -3   1  18 1648.09   98.75   3 
   3  -1  18 1583.39   92.93   3 
   1   0  19   19.80   17.20   3 
   0   1  19   21.55   17.31   3 
  -1   0  19  -16.74   13.10   3 
   0  -1  19   -0.04   13.45   3 
   0   0   0    0.00    0.00   0 
;
_shelx_hkl_checksum              22113
loop_
_space_group_symop_operation_xyz
'x, y, z'
'-x+1/2, -y, z+1/2'
'-y+3/4, x+1/4, z+1/4'
'y+3/4, -x+3/4, z+3/4'
'x+1/2, y+1/2, z+1/2'
'-x+1, -y+1/2, z+1'
'-y+5/4, x+3/4, z+3/4'
'y+5/4, -x+5/4, z+5/4'
'-x, -y, -z'
'x-1/2, y, -z-1/2'
'y-3/4, -x-1/4, -z-1/4'
'-y-3/4, x-3/4, -z-3/4'
'-x+1/2, -y+1/2, -z+1/2'
'x, y+1/2, -z'
'y-1/4, -x+1/4, -z+1/4'
'-y-1/4, x-1/4, -z-1/4'
loop_
_atom_site_label
_atom_site_type_symbol
_atom_site_fract_x
_atom_site_fract_y
_atom_site_fract_z
_atom_site_U_iso_or_equiv
_atom_site_adp_type
_atom_site_occupancy
_atom_site_site_symmetry_order
_atom_site_calc_flag
_atom_site_refinement_flags_posn
_atom_site_refinement_flags_adp
_atom_site_refinement_flags_occupancy
_atom_site_disorder_assembly
_atom_site_disorder_group
W1 W 0.0000 0.2500 0.1250 0.0093(2) Uani 1 4 d S T P . .
Eu1 Eu 0.0000 0.2500 0.6250 0.0103(2) Uani 1 4 d S T P . .
O1 O 0.1393(7) 0.0139(7) 0.2067(3) 0.0131(8) Uani 1 1 d . . . . .
loop_
_atom_site_aniso_label
_atom_site_aniso_U_11
_atom_site_aniso_U_22
_atom_site_aniso_U_33
_atom_site_aniso_U_23
_atom_site_aniso_U_13
_atom_site_aniso_U_12
W1 0.0081(2) 0.0081(2) 0.0116(3) 0.000 0.000 0.000
Eu1 0.0101(2) 0.0101(2) 0.0106(3) 0.000 0.000 0.000
O1 0.0111(19) 0.0142(19) 0.0139(19) 0.0001(15) 0.0002(14) 0.0023(15)
loop_
_atom_type_symbol
_atom_type_description
_atom_type_scat_dispersion_real
_atom_type_scat_dispersion_imag
_atom_type_scat_source
O O 0.0106 0.0060 'International Tables Vol C Tables 4.2.6.8 and 6.1.1.4'
Eu Eu -0.1578 3.6682 'International Tables Vol C Tables 4.2.6.8 and 6.1.1.4'
W W -0.8490 6.8722 'International Tables Vol C Tables 4.2.6.8 and 6.1.1.4'
loop_
_geom_angle_atom_site_label_1
_geom_angle_atom_site_label_2
_geom_angle_atom_site_label_3
_geom_angle
_geom_angle_site_symmetry_1
_geom_angle_site_symmetry_3
O1 W1 O1 107.59(11) . 15
O1 W1 O1 113.3(2) . 6_454
O1 W1 O1 107.59(11) 15 6_454
O1 W1 O1 107.59(11) . 12_666
O1 W1 O1 113.3(2) 15 12_666
O1 W1 O1 107.59(11) 6_454 12_666
O1 W1 Eu1 77.95(11) . 5_444
O1 W1 Eu1 36.01(12) 15 5_444
O1 W1 Eu1 102.05(11) 6_454 5_444
O1 W1 Eu1 143.99(12) 12_666 5_444
O1 W1 Eu1 102.05(11) . 5_554
O1 W1 Eu1 143.99(12) 15 5_554
O1 W1 Eu1 77.95(11) 6_454 5_554
O1 W1 Eu1 36.01(12) 12_666 5_554
Eu1 W1 Eu1 180.0 5_444 5_554
O1 W1 Eu1 143.99(12) . 5_454
O1 W1 Eu1 77.95(11) 15 5_454
O1 W1 Eu1 36.01(12) 6_454 5_454
O1 W1 Eu1 102.05(11) 12_666 5_454
Eu1 W1 Eu1 90.0 5_444 5_454
Eu1 W1 Eu1 90.0 5_554 5_454
O1 W1 Eu1 36.01(12) . 5_544
O1 W1 Eu1 102.05(11) 15 5_544
O1 W1 Eu1 143.99(12) 6_454 5_544
O1 W1 Eu1 77.95(11) 12_666 5_544
Eu1 W1 Eu1 90.0 5_444 5_544
Eu1 W1 Eu1 90.0 5_554 5_544
Eu1 W1 Eu1 180.0 5_454 5_544
O1 Eu1 O1 127.42(10) 14_556 3_455
O1 Eu1 O1 127.42(10) 14_556 8_444
O1 Eu1 O1 77.56(16) 3_455 8_444
O1 Eu1 O1 77.56(16) 14_556 9_556
O1 Eu1 O1 127.42(10) 3_455 9_556
O1 Eu1 O1 127.42(10) 8_444 9_556
O1 Eu1 O1 150.04(14) 14_556 16_556
O1 Eu1 O1 67.90(8) 3_455 16_556
O1 Eu1 O1 78.04(12) 8_444 16_556
O1 Eu1 O1 73.56(7) 9_556 16_556
O1 Eu1 O1 73.56(7) 14_556 11_666
O1 Eu1 O1 78.04(12) 3_455 11_666
O1 Eu1 O1 67.90(8) 8_444 11_666
O1 Eu1 O1 150.04(14) 9_556 11_666
O1 Eu1 O1 136.05(16) 16_556 11_666
O1 Eu1 O1 78.04(12) 14_556 2
O1 Eu1 O1 150.04(14) 3_455 2
O1 Eu1 O1 73.56(6) 8_444 2
O1 Eu1 O1 67.90(8) 9_556 2
O1 Eu1 O1 98.05(6) 16_556 2
O1 Eu1 O1 98.05(6) 11_666 2
O1 Eu1 O1 67.90(8) 14_556 5_455
O1 Eu1 O1 73.56(7) 3_455 5_455
O1 Eu1 O1 150.04(14) 8_444 5_455
O1 Eu1 O1 78.04(12) 9_556 5_455
O1 Eu1 O1 98.05(6) 16_556 5_455
O1 Eu1 O1 98.05(6) 11_666 5_455
O1 Eu1 O1 136.05(16) 2 5_455
O1 Eu1 W1 126.76(8) 14_556 5_445
O1 Eu1 W1 79.34(8) 3_455 5_445
O1 Eu1 W1 100.66(8) 8_444 5_445
O1 Eu1 W1 53.24(8) 9_556 5_445
O1 Eu1 W1 23.60(8) 16_556 5_445
O1 Eu1 W1 156.40(8) 11_666 5_445
O1 Eu1 W1 98.17(8) 2 5_445
O1 Eu1 W1 81.83(8) 5_455 5_445
O1 Eu1 W1 53.24(8) 14_556 5
O1 Eu1 W1 100.66(8) 3_455 5
O1 Eu1 W1 79.34(8) 8_444 5
O1 Eu1 W1 126.76(8) 9_556 5
O1 Eu1 W1 156.40(8) 16_556 5
O1 Eu1 W1 23.60(8) 11_666 5
O1 Eu1 W1 81.83(8) 2 5
O1 Eu1 W1 98.17(8) 5_455 5
W1 Eu1 W1 180.0 5_445 5
O1 Eu1 W1 79.34(8) 14_556 5_455
O1 Eu1 W1 53.24(8) 3_455 5_455
O1 Eu1 W1 126.76(8) 8_444 5_455
O1 Eu1 W1 100.66(8) 9_556 5_455
O1 Eu1 W1 98.17(8) 16_556 5_455
O1 Eu1 W1 81.83(8) 11_666 5_455
O1 Eu1 W1 156.40(8) 2 5_455
O1 Eu1 W1 23.60(8) 5_455 5_455
W1 Eu1 W1 90.0 5_445 5_455
W1 Eu1 W1 90.0 5 5_455
O1 Eu1 W1 100.66(8) 14_556 5_545
O1 Eu1 W1 126.76(8) 3_455 5_545
O1 Eu1 W1 53.24(8) 8_444 5_545
O1 Eu1 W1 79.34(8) 9_556 5_545
O1 Eu1 W1 81.83(8) 16_556 5_545
O1 Eu1 W1 98.17(8) 11_666 5_545
O1 Eu1 W1 23.60(8) 2 5_545
O1 Eu1 W1 156.40(8) 5_455 5_545
W1 Eu1 W1 90.0 5_445 5_545
W1 Eu1 W1 90.0 5 5_545
W1 Eu1 W1 180.0 5_455 5_545
W1 O1 Eu1 134.67(18) . 9_556
W1 O1 Eu1 120.39(17) . 5_544
Eu1 O1 Eu1 101.96(12) 9_556 5_544
loop_
_geom_bond_atom_site_label_1
_geom_bond_atom_site_label_2
_geom_bond_distance
_geom_bond_site_symmetry_2
W1 O1 1.777(4) .
W1 O1 1.777(4) 15
W1 O1 1.777(4) 6_454
W1 O1 1.777(4) 12_666
W1 Eu1 3.8286(2) 5_444
W1 Eu1 3.8286(2) 5_554
W1 Eu1 3.8286(2) 5_454
W1 Eu1 3.8286(2) 5_544
Eu1 O1 2.579(4) 14_556
Eu1 O1 2.579(4) 3_455
Eu1 O1 2.579(4) 8_444
Eu1 O1 2.579(4) 9_556
Eu1 O1 2.610(4) 16_556
Eu1 O1 2.610(4) 11_666
Eu1 O1 2.610(4) 2
Eu1 O1 2.610(4) 5_455
Eu1 W1 3.8286(2) 5_445
Eu1 W1 3.8286(2) 5
Eu1 W1 3.8286(2) 5_455
Eu1 W1 3.8286(2) 5_545
O1 Eu1 2.579(4) 9_556
O1 Eu1 2.610(4) 5_544
