#------------------------------------------------------------------------------
#$Date: 2021-04-09 10:54:56 +0300 (Fri, 09 Apr 2021) $
#$Revision: 264006 $
#$URL: file:///home/coder/svn-repositories/cod/cif/1/56/15/1561596.cif $
#------------------------------------------------------------------------------
#
# This file is available in the Crystallography Open Database (COD),
# http://www.crystallography.net/
#
# All data on this site have been placed in the public domain by the
# contributors.
#
data_1561596
loop_
_publ_author_name
'Latshaw, Allison M.'
'Yeon, Jeongho'
'Smith, Mark D.'
'zur Loye, Hans-Conrad'
_publ_section_title
;
 Synthesis, structure, and polymorphism of A3LnSi2O7 (A=Na, K; Ln=Sm, Ho,
 Yb)
;
_journal_name_full               'Journal of Solid State Chemistry'
_journal_page_first              100
_journal_page_last               106
_journal_paper_doi               10.1016/j.jssc.2015.12.013
_journal_volume                  235
_journal_year                    2016
_chemical_formula_moiety         '0.17(Na18 O42 Si12 Yb6)'
_chemical_formula_sum            'Na3 O7 Si2 Yb'
_chemical_formula_weight         410.19
_space_group_crystal_system      hexagonal
_space_group_IT_number           176
_space_group_name_Hall           '-P 6c'
_space_group_name_H-M_alt        'P 63/m'
_atom_sites_solution_hydrogens   .
_cell_angle_alpha                90
_cell_angle_beta                 90
_cell_angle_gamma                120
_cell_formula_units_Z            6
_cell_length_a                   9.3770(2)
_cell_length_b                   9.3770(2)
_cell_length_c                   13.7187(4)
_cell_measurement_temperature    294(2)
_cell_volume                     1044.65(4)
_computing_molecular_graphics    'Olex2 (Dolomanov et al., 2009)'
_computing_publication_material  'Olex2 (Dolomanov et al., 2009)'
_computing_structure_refinement  'ShelXL (Sheldrick, 2008)'
_diffrn_ambient_temperature      294.15
_diffrn_measured_fraction_theta_full 1.000
_diffrn_measured_fraction_theta_max 1.000
_diffrn_measurement_device_type  'CCD area detector'
_diffrn_measurement_method       'phi and omega scans'
_diffrn_radiation_type           MoK\a
_diffrn_radiation_wavelength     0.71073
_diffrn_reflns_av_R_equivalents  0.0335
_diffrn_reflns_av_unetI/netI     0.0129
_diffrn_reflns_Laue_measured_fraction_full 1.000
_diffrn_reflns_Laue_measured_fraction_max 1.000
_diffrn_reflns_limit_h_max       12
_diffrn_reflns_limit_h_min       -12
_diffrn_reflns_limit_k_max       12
_diffrn_reflns_limit_k_min       -12
_diffrn_reflns_limit_l_max       18
_diffrn_reflns_limit_l_min       -18
_diffrn_reflns_number            14399
_diffrn_reflns_point_group_measured_fraction_full 1.000
_diffrn_reflns_point_group_measured_fraction_max 1.000
_diffrn_reflns_theta_full        25.242
_diffrn_reflns_theta_max         28.351
_diffrn_reflns_theta_min         2.508
_exptl_absorpt_coefficient_mu    13.954
_exptl_crystal_colour            'pale yellow'
_exptl_crystal_density_diffrn    3.912
_exptl_crystal_description       'hexagonal prism'
_exptl_crystal_F_000             1122
_exptl_crystal_size_max          0.16
_exptl_crystal_size_mid          0.08
_exptl_crystal_size_min          0.08
_refine_diff_density_max         0.736
_refine_diff_density_min         -0.811
_refine_diff_density_rms         0.141
_refine_ls_extinction_coef       0.0078(2)
_refine_ls_extinction_expression Fc^*^=kFc[1+0.001xFc^2^\l^3^/sin(2\q)]^-1/4^
_refine_ls_extinction_method     'SHELXL-2014/7 (Sheldrick 2014'
_refine_ls_goodness_of_fit_ref   1.273
_refine_ls_hydrogen_treatment    undef
_refine_ls_matrix_type           full
_refine_ls_number_parameters     64
_refine_ls_number_reflns         920
_refine_ls_number_restraints     0
_refine_ls_restrained_S_all      1.273
_refine_ls_R_factor_all          0.0143
_refine_ls_R_factor_gt           0.0142
_refine_ls_shift/su_max          0.000
_refine_ls_shift/su_mean         0.000
_refine_ls_structure_factor_coef Fsqd
_refine_ls_weighting_details
'w=1/[\s^2^(Fo^2^)+4.2070P] where P=(Fo^2^+2Fc^2^)/3'
_refine_ls_weighting_scheme      calc
_refine_ls_wR_factor_gt          0.0349
_refine_ls_wR_factor_ref         0.0349
_reflns_Friedel_coverage         0.000
_reflns_Friedel_fraction_full    .
_reflns_Friedel_fraction_max     .
_reflns_number_gt                917
_reflns_number_total             920
_reflns_threshold_expression     'I > 2\s(I)'
_cod_data_source_file            mmc3.cif
_cod_data_source_block           Na3YbSi2O7
_cod_original_cell_volume        1044.65(5)
_cod_database_code               1561596
_shelx_space_group_comment
;
The symmetry employed for this shelxl refinement is uniquely defined
by the following loop, which should always be used as a source of
symmetry information in preference to the above space-group names.
They are only intended as comments.
;
_shelx_estimated_absorpt_t_max   0.401
_shelx_estimated_absorpt_t_min   0.214
_olex2_refinement_description
;
;
_shelx_res_file
;
    na3ybsi2o7_new.res created by SHELXL-2014/7

TITL 176ON in P6(3)/m
REM transformed to space group :
REM pale yellow hexagonal prism
REM 4890 reflections 2Theta 2.9149 28.3512
CELL 0.71073 9.377 9.377 13.7187 90 90 120
ZERR 6 0.0002 0.0002 0.0004 0 0 0
LATT 1
SYMM -Y,+X-Y,+Z
SYMM +Y-X,-X,+Z
SYMM -X,-Y,0.5+Z
SYMM +Y,-X+Y,0.5+Z
SYMM -Y+X,+X,0.5+Z
SFAC O Na Si Yb
UNIT 42 18 12 6

L.S. 8
PLAN  5
SIZE 0.16 0.08 0.08
TEMP 21
BOND
fmap 2
acta
REM <olex2.extras>
REM <HklSrc "%.\\Na3YbSi2O7_new.hkl">
REM </olex2.extras>

WGHT    0.000000    4.207000
EXTI    0.007768
FVAR       0.07531
YB1   4    0.000000    0.000000    0.250000    10.16667    0.00662    0.00662 =
         0.00758    0.00000    0.00000    0.00331
YB2   4    0.666667    0.333333   -0.018412    10.33333    0.00738    0.00738 =
         0.00806    0.00000    0.00000    0.00369
SI1   3    0.347028    0.018698    0.140692    11.00000    0.00827    0.00730 =
         0.00826    0.00033    0.00115    0.00400
NA1   2    0.000000    0.000000    0.000000    10.16667    0.02086    0.02086 =
         0.01898    0.00000    0.00000    0.01043
NA2   2    0.666667    0.333333   -0.250000    10.16667    0.01467    0.01467 =
         0.01291    0.00000    0.00000    0.00734
NA3   2    0.666667    0.333333    0.250000    10.16667    0.00639    0.00639 =
         0.13724    0.00000    0.00000    0.00319
NA4   2    1.014952    0.683742    0.089499    11.00000    0.01460    0.01630 =
         0.02393   -0.00250   -0.00044    0.00842
O1    1    0.442741    0.171947    0.065731    11.00000    0.01718    0.01603 =
         0.01460    0.00519    0.00493    0.00808
O2    1    0.151359   -0.045975    0.140430    11.00000    0.00887    0.01718 =
         0.01395   -0.00224   -0.00058    0.00712
O3    1    0.387635   -0.126386    0.119201    11.00000    0.01515    0.01264 =
         0.01655   -0.00257   -0.00026    0.00875
O4    1    0.421945    0.098721    0.250000    10.50000    0.01287    0.01219 =
         0.00898    0.00000    0.00000    0.00366
HKLF 4

REM  176ON in P6(3)/m
REM R1 =  0.0142 for     917 Fo > 4sig(Fo)  and  0.0143 for all     920 data
REM     64 parameters refined using      0 restraints

END

WGHT      0.0000      4.2069

REM Highest difference peak  0.736,  deepest hole -0.811,  1-sigma level  0.141
Q1    1   0.6667  0.3333  0.0413  10.33333  0.05    0.74
Q2    1   0.4189  0.3168  0.2500  10.50000  0.05    0.63
Q3    1   0.4363  0.2613  0.0633  11.00000  0.05    0.59
Q4    1   0.0528 -0.1168  0.1490  11.00000  0.05    0.47
Q5    1   0.2840 -0.1830  0.1330  11.00000  0.05    0.45
;
_shelx_res_checksum              1732
_shelx_hkl_file
;
   0  -1   0    0.11    0.03
  -1   0   0    0.32    0.08
  -1   1   0    0.20    0.05
   1  -1   0    0.08    0.03
  -1   0   0    0.15    0.03
  -1   1   0    0.16    0.04
   0   1   0    0.11    0.03
   0  -1   0    0.17    0.03
   1  -1   0    0.30    0.04
   1   0   0    0.29    0.04
  -1   0   0    0.16    0.03
   0  -1   0    0.42    0.09
  -1  -1   0  361.61   10.95
  -1  -1   0  362.62   10.63
   1  -2   0  338.78   10.63
  -1  -1   0  285.44   11.44
  -2   1   0  357.97   10.89
  -1  -1   0  294.90   11.72
   2  -1   0  333.05   10.64
   0  -2   0    0.25    0.10
   2   0   0    0.25    0.06
   0  -2   0    0.10    0.04
   2  -2   0    0.12    0.04
  -2   2   0    0.40    0.08
   2  -2   0    0.25    0.08
  -2   0   0    0.45    0.13
  -2   2   0    0.08    0.04
   0  -2   0    0.16    0.04
  -2   0   0    0.11    0.03
  -2   0   0    0.09    0.03
   3  -2   0   26.11    1.02
  -2  -1   0   25.41    1.19
  -3   2   0   23.15    1.12
   1  -3   0   26.20    0.95
  -1   3   0   27.51    0.99
   1  -3   0   24.97    1.26
  -2  -1   0   26.66    0.96
  -2  -1   0   25.85    0.94
  -3   2   0   24.64    0.98
  -2  -1   0   26.04    1.10
  -1  -2   0   11.10    0.59
   2  -3   0   11.32    0.49
  -1  -2   0   10.61    0.47
  -2   3   0   11.43    0.44
  -1  -2   0   11.10    0.46
  -3   1   0   11.36    0.49
   2  -3   0    9.95    0.64
  -1  -2   0   11.11    0.66
   3  -1   0   10.81    0.49
  -2   3   0   11.50    0.51
  -3   1   0   10.14    0.65
   0  -3   0  676.13   26.53
   3  -3   0  656.30   26.36
   0  -3   0  837.81   24.29
   0   3   0  841.53   24.86
   3  -3   0  727.96   24.04
  -3   0   0  694.54   25.89
   0  -3   0  762.44   25.87
  -3   0   0  786.30   26.51
   3   0   0  827.37   24.63
  -3  -1   0    6.57    0.34
  -1   4   0    6.34    0.36
  -4   3   0    5.84    0.36
  -1   4   0    6.36    0.26
   4  -3   0    5.88    0.37
  -4   3   0    6.34    0.45
  -3  -1   0    6.09    0.38
   1  -4   0    5.91    0.54
   3   1   0    6.11    0.33
   1  -4   0    6.04    0.33
   4  -3   0    6.05    0.35
  -3  -1   0    6.56    0.52
  -2   4   0  259.78    8.16
  -4   2   0  259.58    8.15
  -2  -2   0  259.17    7.93
   2  -4   0  203.10    8.92
  -2  -2   0  238.81    8.67
  -2  -2   0  255.53    8.10
  -2  -2   0  238.04    8.84
   4  -2   0  241.15    7.98
   2  -4   0  252.61    7.96
  -1  -3   0    9.68    0.55
   3  -4   0   10.28    0.67
  -1  -3   0    9.16    0.46
  -4   1   0   10.23    0.70
   3  -4   0   10.21    0.50
  -4   1   0    9.48    0.48
  -1  -3   0    9.92    0.46
   4  -1   0    9.78    0.49
  -1  -3   0   10.98    0.71
  -3   4   0   10.07    0.43
  -3   4   0    9.80    0.52
   4  -4   0    2.60    0.23
   4  -4   0    2.72    0.32
   4   0   0    2.76    0.18
  -4   4   0    3.24    0.25
  -4   4   0    2.49    0.23
   0  -4   0    2.73    0.20
   0   4   0    2.80    0.22
   0  -4   0    2.84    0.20
  -4   0   0    2.73    0.21
   4   0   0    2.66    0.22
   0  -4   0    3.01    0.45
  -4   0   0    3.06    0.44
   5  -4   0  279.73    8.85
  -4  -1   0  259.64    9.70
   1  -5   0  282.10    8.77
   4   1   0  278.98    8.77
   1  -5   0  248.97    9.97
  -4  -1   0  283.89    9.57
   5  -4   0  250.54    9.56
  -4  -1   0  278.36    8.96
  -5   4   0  271.10    9.02
  -5   4   0  243.64    9.47
  -1   5   0  290.49    9.00
  -1   5   0  271.06    9.19
   2  -5   0   17.99    0.78
  -3  -2   0   17.42    1.00
   2  -5   0   18.56    1.11
   5  -3   0   18.01    0.82
  -2   5   0   18.57    0.82
  -5   3   0   17.00    0.80
  -3  -2   0   16.95    0.74
  -5   3   0   16.23    0.96
  -3  -2   0   18.62    0.77
  -3  -2   0   18.63    0.93
  -2  -3   0    3.35    0.38
  -5   2   0    2.95    0.25
   3  -5   0    3.55    0.48
  -2  -3   0    3.47    0.43
  -2  -3   0    3.80    0.25
  -2  -3   0    3.51    0.25
   3  -5   0    3.64    0.27
  -3   5   0    3.54    0.29
  -5   2   0    3.17    0.45
   5  -2   0    3.91    0.30
  -4   5   0  631.95   18.22
  -1  -4   0  607.10   17.70
  -1  -4   0  576.39   18.96
   4  -5   0  492.49   19.56
  -1  -4   0  528.11   19.70
  -4   5   0  499.81   18.79
  -5   1   0  510.65   19.23
   5  -1   0  588.69   17.75
   4  -5   0  549.35   17.75
  -5   0   0    0.30    0.08
   5  -5   0    0.41    0.10
   0  -5   0    0.61    0.12
  -5   5   0    0.32    0.11
   0  -5   0    0.17    0.11
  -5   0   0    0.15    0.11
  -5   5   0    0.38    0.09
   0   5   0    0.51    0.11
   5  -5   0    0.29    0.09
   5   0   0    0.27    0.09
   1  -6   0   16.71    0.78
  -5  -1   0   18.55    1.13
  -6   5   0   16.30    0.85
  -1   6   0   17.26    0.83
   6  -5   0   17.40    0.83
   5   1   0   16.79    0.80
   1  -6   0   16.80    1.15
  -6   5   0   17.32    0.91
   6  -5   0   17.65    0.87
  -5  -1   0   16.72    0.79
  -1   6   0   17.63    0.67
   2  -6   0    2.49    0.46
   6  -4   0    3.16    0.19
   4   2   0    2.94    0.25
  -4  -2   0    2.76    0.24
   6  -4   0    3.04    0.34
   2  -6   0    2.54    0.24
  -4  -2   0    2.97    0.28
  -6   4   0    3.09    0.41
  -4  -2   0    2.79    0.43
  -2   6   0    3.15    0.28
  -6   4   0    2.54    0.30
   6  -3   0  845.14   28.19
  -3  -3   0  955.36   28.13
  -3  -3   0  912.82   28.76
  -6   3   0 1000.00   28.86
   3  -6   0  790.28   31.12
  -3  -3   0  849.34   30.27
  -6   3   0  749.93   30.26
  -3  -3   0  869.14   30.97
  -3   6   0  946.35   28.86
   3  -6   0  917.50   28.17
  -2  -4   0   12.76    0.74
  -2  -4   0   11.94    0.61
  -6   2   0   12.61    0.89
  -4   6   0   12.16    0.68
  -2  -4   0   12.73    0.61
  -2  -4   0   13.62    0.89
   4  -6   0   14.31    0.91
   4  -6   0   12.04    0.65
  -6   2   0   12.12    0.64
   6  -2   0   12.20    0.66
   5  -6   0    7.00    0.47
  -1  -5   0    7.58    0.43
  -1  -5   0    7.63    0.68
   1   5   0    7.26    0.45
  -6   1   0    7.52    0.68
   6  -1   0    7.57    0.47
   5  -6   0    7.13    0.56
  -6   1   0    5.85    0.42
  -5   6   0    7.17    0.49
  -5   6   0    8.00    0.38
  -1  -5   0    7.56    0.47
  -6   0   0  832.16   24.61
   6   0   0  770.01   24.07
   6  -6   0  684.38   26.34
   0  -6   0  713.62   26.74
  -6   6   0  838.13   24.72
   0   6   0  812.10   24.63
   0   6   0  727.25   25.51
  -6   6   0  668.84   25.59
   6  -6   0  754.07   24.12
  -6   0   0  688.80   26.05
   0  -6   0  789.63   24.02
   7  -6   0    4.17    0.44
   6   1   0    4.63    0.36
  -6  -1   0    4.27    0.34
  -6  -1   0    4.34    0.62
   1  -7   0    4.35    0.33
  -1   7   0    4.33    0.37
  -7   6   0    4.25    0.35
  -7   6   0    3.83    0.43
   1  -7   0    4.49    0.67
   2  -7   0  181.33    5.86
  -7   5   0  184.79    6.07
   2  -7   0  168.63    6.84
  -5  -2   0  170.88    5.94
   5   2   0  176.44    5.84
  -5  -2   0  181.60    6.37
  -7   5   0  161.86    6.37
  -5  -2   0  179.29    6.64
  -2   7   0  168.80    6.00
   7  -5   0  170.73    5.94
  -4  -3   0    2.14    0.26
   3  -7   0    1.59    0.24
  -7   4   0    1.88    0.35
   3  -7   0    2.01    0.41
  -4  -3   0    2.10    0.25
  -3   7   0    1.67    0.27
  -7   4   0    1.83    0.28
   7  -4   0    1.81    0.29
  -4  -3   0    2.39    0.34
  -4  -3   0    1.99    0.36
  -7   3   0    1.38    0.32
   7  -3   0    1.65    0.26
   4  -7   0    1.27    0.21
   4  -7   0    1.28    0.32
  -3  -4   0    1.78    0.32
  -3  -4   0    1.22    0.19
  -3  -4   0    1.47    0.27
  -4   7   0    1.73    0.27
  -3  -4   0    1.41    0.21
  -7   3   0    1.31    0.23
   5  -7   0  340.44   13.27
   7  -2   0  363.28   11.97
  -7   2   0  339.31   13.08
  -2  -5   0  359.34   13.38
  -2  -5   0  361.77   11.87
  -2  -5   0  404.08   12.88
  -2  -5   0  372.69   12.17
  -7   2   0  384.40   12.21
  -5   7   0  372.56   12.27
   5  -7   0  369.65   11.97
  -7   1   0    1.24    0.21
   7  -1   0    0.98    0.20
   6  -7   0    1.25    0.24
  -1  -6   0    1.34    0.20
  -1  -6   0    1.49    0.38
  -6   7   0    1.01    0.21
  -7   1   0    1.19    0.31
   1   6   0    1.03    0.19
   6  -7   0    1.10    0.21
   7  -7   0    0.39    0.13
  -7   7   0    0.69    0.18
  -7   0   0    0.30    0.19
   7   0   0    2.22    0.30
  -7   0   0    1.01    0.19
   0  -7   0    0.94    0.16
   0  -7   0    0.70    0.27
   7  -7   0    0.98    0.17
   0   7   0    0.49    0.13
  -7  -1   0  190.44    6.56
  -1   8   0  191.04    6.62
   7   1   0  184.51    6.44
   8  -7   0  182.34    6.55
  -8   7   0  195.85    6.72
   1  -8   0  195.62    6.44
   1  -8   0  194.57    7.60
  -7  -1   0  192.85    7.35
  -6  -2   0    4.28    0.63
   2  -8   0    4.95    0.39
   6   2   0    5.19    0.40
   8  -6   0    4.39    0.49
  -6  -2   0    5.44    0.40
  -2   8   0    4.81    0.41
  -8   6   0    4.94    0.44
   2  -8   0    5.42    0.78
  -8   6   0    5.97    0.47
   3  -8   0    0.48    0.25
  -5  -3   0    0.36    0.11
   5   3   0    0.88    0.17
   8  -5   0    0.72    0.18
  -8   5   0    0.72    0.19
  -8   5   0    0.75    0.18
  -3   8   0    0.78    0.18
  -5  -3   0    0.57    0.14
   3  -8   0    0.52    0.13
  -5  -3   0    0.60    0.21
  -4   8   0  214.69    7.29
  -8   4   0  205.83    7.23
   4  -8   0  208.56    7.06
   4  -8   0  197.33    8.07
  -8   4   0  191.64    7.76
  -4  -4   0  209.95    6.99
   8  -4   0  210.39    7.13
  -4  -4   0  224.22    7.91
  -4  -4   0  214.58    7.16
  -4  -4   0  228.38    7.82
  -3  -5   0    0.72    0.22
   8  -3   0    0.79    0.20
   5  -8   0    0.58    0.16
  -8   3   0    1.48    0.34
  -3  -5   0    0.87    0.20
  -3  -5   0    0.92    0.17
  -8   3   0    0.75    0.17
   5  -8   0    0.96    0.26
  -5   8   0    0.77    0.19
  -3  -5   0    0.76    0.16
  -2  -6   0    7.50    0.52
   6  -8   0    6.30    0.49
   2   6   0    6.78    0.47
   6  -8   0    8.54    0.66
  -2  -6   0    7.21    0.46
  -2  -6   0    7.46    0.71
  -8   2   0    7.44    0.72
  -6   8   0    6.61    0.53
  -8   2   0    6.94    0.50
   8  -2   0    6.97    0.52
   1   7   0  178.66    6.18
  -8   1   0  174.91    6.16
   7  -8   0  181.36    6.14
  -7   8   0  172.08    6.27
   8  -1   0  181.38    6.10
  -1  -7   0  179.12    6.01
  -1  -7   0  179.53    7.08
   7  -8   0  178.32    6.73
  -8   1   0  177.57    6.91
   0  -8   0    1.10    0.33
  -8   0   0    1.17    0.32
  -8   8   0    0.91    0.22
   8   0   0    0.91    0.19
  -8   0   0    0.82    0.17
   8  -8   0    0.94    0.21
   0   8   0    1.03    0.21
   0  -8   0    0.68    0.15
   1  -9   0    3.65    0.64
  -9   8   0    3.27    0.46
  -8  -1   0    3.81    0.41
   9  -8   0    3.25    0.45
   8   1   0    3.60    0.42
  -8  -1   0    4.03    0.64
  -1   9   0    3.75    0.44
   1  -9   0    3.53    0.39
  -2   9   0    7.08    0.54
  -9   7   0    6.74    0.56
   7   2   0    7.23    0.51
   9  -7   0    6.93    0.57
   2  -9   0    7.58    0.93
  -7  -2   0    5.80    0.78
   2  -9   0    6.84    0.49
  -7  -2   0    6.45    0.48
   9  -6   0  544.02   17.61
   6   3   0  557.01   17.46
  -9   6   0  557.41   17.97
  -9   6   0  480.09   18.76
   3  -9   0  513.20   19.61
  -3   9   0  533.41   17.92
  -6  -3   0  559.80   19.09
  -6  -3   0  551.16   17.83
   3  -9   0  559.44   17.50
  -4   9   0   10.19    0.71
  -5  -4   0   11.38    0.76
  -5  -4   0   10.87    0.66
  -9   5   0   11.41    0.83
   4  -9   0   11.67    0.70
   4  -9   0   11.33    0.98
   5   4   0   10.95    0.65
  -9   5   0   11.18    0.73
   9  -5   0   11.50    0.75
  -5  -4   0   12.78    0.93
   5  -9   0    7.22    0.52
  -9   4   0    6.37    0.62
  -4  -5   0    6.05    0.45
  -4  -5   0    5.41    0.42
  -5   9   0    6.05    0.52
  -4  -5   0    6.40    0.59
   5  -9   0    5.47    0.74
  -4  -5   0    7.63    0.64
   9  -4   0    7.16    0.55
  -9   4   0    6.20    0.50
  -9   3   0  392.10   15.08
   3   6   0  444.47   14.10
  -9   3   0  434.22   14.13
  -3  -6   0  422.67   14.80
   6  -9   0  407.70   15.36
   6  -9   0  416.04   13.84
   9  -3   0  405.84   13.86
  -3  -6   0  445.07   15.47
  -6   9   0  431.19   14.23
  -3  -6   0  427.80   13.74
   2   7   0    7.62    0.54
  -2  -7   0    8.42    0.79
  -7   9   0    7.67    0.61
   7  -9   0    7.76    0.59
  -9   2   0    8.19    0.78
  -2  -7   0    8.21    0.53
   7  -9   0    8.66    0.68
   9  -2   0    8.33    0.61
  -9   2   0    7.66    0.55
   9  -1   0    9.88    0.66
   8  -9   0    8.31    0.65
  -9   1   0    8.88    0.62
  -1  -8   0    8.47    0.57
  -9   1   0    9.23    0.86
  -8   9   0    9.84    0.71
   1   8   0   10.62    0.65
  -1  -8   0   10.36    0.93
  -9   0   0  353.15   12.90
   0  -9   0  339.67   11.52
   9   0   0  345.12   11.62
  -9   0   0  339.42   11.80
   0   9   0  358.32   11.87
  -9   9   0  362.57   12.00
   9  -9   0  351.29   11.72
   0  -9   0  352.86   13.24
  10  -9   0    6.35    0.56
  -9  -1   0    6.56    0.51
   1 -10   0    5.81    0.84
  -1  10   0    6.22    0.49
 -10   9   0    6.11    0.57
   9   1   0    6.07    0.48
  -9  -1   0    4.86    0.76
   1 -10   0    6.45    0.50
   2 -10   0  233.00    7.68
  -8  -2   0  233.51    8.75
  -2  10   0  223.17    7.90
 -10   8   0  233.01    8.01
   2 -10   0  232.81    8.99
  10  -8   0  214.37    7.80
   8   2   0  222.74    7.67
  -8  -2   0  218.09    7.79
  -3  10   0    2.08    0.33
   3 -10   0    2.74    0.35
  -7  -3   0    2.70    0.35
  -7  -3   0    2.95    0.56
 -10   7   0    2.27    0.37
   3 -10   0    3.29    0.62
   7   3   0    2.51    0.32
  10  -7   0    2.37    0.39
  10  -6   0    4.20    0.53
 -10   6   0    5.38    0.63
 -10   6   0    3.63    0.48
  -6  -4   0    4.53    0.64
   4 -10   0    4.41    0.40
   4 -10   0    3.49    0.61
  -6  -4   0    3.99    0.37
  -4  10   0    4.00    0.49
   6   4   0    3.98    0.35
   5 -10   0  135.20    4.94
  -5  10   0  138.37    5.12
  10  -5   0  140.67    5.04
 -10   5   0  136.15    5.05
  -5  -5   0  142.01    4.99
  -5  -5   0  145.82    5.52
 -10   5   0  132.85    5.49
  -5  -5   0  148.08    5.54
   5 -10   0  137.25    5.75
 -10   4   0    7.99    0.74
  -4  -6   0    7.45    0.54
  -4  -6   0    7.94    0.64
  -6  10   0    6.99    0.59
   6 -10   0    7.80    0.58
  -4  -6   0    8.12    0.53
   6 -10   0    7.53    0.71
  10  -4   0    6.32    0.56
 -10   4   0    6.02    0.53
  -4  -6   0    8.94    0.74
   3   7   0    0.65    0.11
  10  -3   0    0.33    0.13
   7 -10   0    0.28    0.12
  -3  -7   0    0.82    0.19
 -10   3   0    0.74    0.26
  -3  -7   0    0.53    0.11
 -10   3   0    0.63    0.15
   7 -10   0    0.33    0.11
  -7  10   0    0.25    0.14
  -2  -8   0  176.37    6.78
 -10   2   0  162.02    5.82
   8 -10   0  156.46    5.78
  10  -2   0  158.57    5.76
 -10   2   0  170.63    6.60
  -8  10   0  159.01    5.94
   2   8   0  164.94    5.82
   9 -10   0    1.50    0.28
  -9  10   0    1.66    0.31
 -10   1   0    1.74    0.28
  -1  -9   0    1.65    0.38
  -1  -9   0    1.31    0.22
  10  -1   0    2.30    0.34
   1   9   0    1.71    0.24
 -10   1   0    2.02    0.45
 -10   0   0    0.31    0.18
  10 -10   0    0.35    0.10
  10   0   0    0.49    0.10
   0  10   0    0.27    0.08
   0 -10   0    0.33    0.11
 -10   0   0    0.49    0.10
   0 -10   0    0.33    0.19
 -10  10   0    0.47    0.14
  11 -10   0   97.15    3.88
  10   1   0   95.15    3.74
 -10  -1   0  102.88    4.51
   1 -11   0  102.33    4.63
  -1  11   0   98.44    3.84
 -11  10   0   97.22    3.95
  -2  11   0    1.30    0.19
  -9  -2   0    2.04    0.45
  -9  -2   0    2.29    0.32
 -11   9   0    1.18    0.26
   2 -11   0    2.16    0.49
  11  -9   0    1.14    0.27
   9   2   0    1.65    0.19
   2 -11   0    1.26    0.22
  -8  -3   0    0.29    0.08
   3 -11   0    0.64    0.12
   3 -11   0    0.51    0.20
 -11   8   0    0.71    0.19
  -8  -3   0    0.81    0.27
  11  -8   0    0.64    0.18
  -7  -4   0  201.87    7.67
  11  -7   0  194.37    6.97
 -11   7   0  195.31    7.06
  -7  -4   0  206.58    6.94
   4 -11   0  197.45    6.83
   4 -11   0  193.20    7.93
   7   4   0  198.10    6.79
  -4  11   0  189.68    7.03
   5 -11   0    1.62    0.38
  -5  11   0    1.18    0.25
  -6  -5   0    1.66    0.24
   5 -11   0    1.21    0.21
   6   5   0    1.81    0.22
 -11   6   0    1.66    0.27
 -11   6   0    1.16    0.25
  -6  -5   0    1.82    0.35
  11  -6   0    0.89    0.23
  -5  -6   0    2.25    0.33
 -11   5   0    2.35    0.41
  -6  11   0    2.09    0.35
  -5  -6   0    3.24    0.47
  -5  -6   0    2.21    0.39
 -11   5   0    2.18    0.34
   6 -11   0    2.15    0.33
  11  -5   0    2.29    0.38
   6 -11   0    1.62    0.31
  -4  -7   0  171.08    5.70
 -11   4   0  164.78    6.56
 -11   4   0  160.82    5.89
   7 -11   0  159.80    5.80
  -7  11   0  157.88    5.99
   7 -11   0  168.43    6.60
  11  -4   0  163.60    5.87
   8 -11   0    3.08    0.43
  11  -3   0    3.01    0.41
  -8  11   0    2.16    0.37
  -3  -8   0    2.74    0.47
 -11   3   0    2.55    0.35
 -11   3   0    3.56    0.63
   3   8   0    3.42    0.40
  -2  -9   0    2.51    0.44
   2   9   0    2.68    0.34
  11  -2   0    2.93    0.39
 -11   2   0    2.57    0.37
 -11   2   0    3.36    0.60
   9 -11   0    2.52    0.39
  -9  11   0    2.56    0.41
   1  10   0  123.70    4.56
  -1 -10   0  125.77    5.35
 -11   1   0  116.80    4.49
  10 -11   0  118.27    4.55
 -11   1   0  131.05    5.36
  11  -1   0  114.24    4.46
 -10  11   0  116.77    4.66
  12  -9   0  258.73    9.01
  -9  -3   0  262.38    9.89
 -12   9   0  252.39    9.15
   4 -12   0   15.21    1.23
  -8  -4   0   13.56    1.07
 -12   8   0   12.25    0.89
  12  -8   0   11.22    0.87
  -4  12   0   13.00    0.86
   5 -12   0    2.17    0.33
 -12   7   0    1.51    0.29
  -7  -5   0    2.10    0.39
   5 -12   0    1.78    0.36
  -5  12   0    1.36    0.23
  12  -7   0    2.11    0.38
  -6  12   0  210.47    7.80
 -12   6   0  225.25    7.80
 -12   6   0  223.04    8.32
   6 -12   0  228.35    8.69
   6 -12   0  218.51    7.58
  12  -6   0  205.89    7.64
  12  -5   0    8.71    0.69
 -12   5   0    8.24    0.65
 -12   5   0    7.54    0.69
   7 -12   0    9.06    0.75
   7 -12   0    7.78    0.62
  -7  12   0    7.97    0.67
 -12   4   0    4.76    0.56
   8 -12   0    5.58    0.50
 -12   4   0    6.48    0.82
  12  -4   0    5.84    0.50
  -8  12   0    5.86    0.66
  -4  -8   0    5.23    0.70
  12  -3   0  306.04   10.55
 -12   3   0  322.82   10.72
  -9  12   0  305.90   10.84
   9 -12   0  305.09   10.54
 -12   3   0  308.41   11.65
   0   0   1    0.05    0.02
   0   0   1    0.01    0.02
   0   0  -1   -0.04    0.02
  -1   0   1    2.92    0.16
   1   0   1    3.04    0.15
   0   1   1    3.29    0.17
  -1   1   1    2.67    0.16
   0  -1   1    2.61    0.19
   0  -1   1    3.46    0.17
   1  -1   1    2.94    0.16
   1  -1   1    3.04    0.17
  -1   0   1    3.49    0.15
   0   1  -1    3.15    0.15
   0  -1  -1    2.98    0.21
   1  -1  -1    3.04    0.16
   0  -1  -1    2.95    0.14
  -1   1  -1    3.08    0.17
  -1   0  -1    3.15    0.16
  -1   0  -1    2.89    0.16
   1   0  -1    3.24    0.16
  -1   2   1   70.50    2.26
  -1   2   1   63.95    2.22
  -1  -1   1   62.37    2.39
  -1  -1   1   67.92    2.16
   1  -2   1   55.84    2.42
  -2   1   1   61.34    2.38
   2  -1   1   65.49    2.17
  -2   1   1   66.56    2.20
   1  -2   1   64.59    2.17
  -1  -1   1   58.63    2.37
  -1  -1   1   68.16    2.17
   1  -2   1   65.97    2.26
  -1  -1  -1   61.74    2.43
   1  -2  -1   67.16    2.15
  -1  -1  -1   66.80    2.21
   2  -1  -1   70.76    2.32
  -1  -1  -1   59.25    2.34
  -2   1  -1   69.00    2.31
  -1  -1  -1   69.19    2.13
  -1   2  -1   67.12    2.22
  -2   1  -1   67.30    2.22
   1  -2  -1   60.25    2.45
   0   2   1    9.76    0.43
   0  -2   1   10.19    0.43
  -2   0   1    9.39    0.41
   0  -2   1   10.85    0.47
  -2   0   1   10.16    0.57
  -2   2   1   10.67    0.47
   2  -2   1    9.52    0.47
  -2   2   1    9.33    0.45
   2   0   1   10.68    0.42
  -2   0  -1   10.77    0.45
  -2   0  -1    9.30    0.53
  -2   2  -1    9.64    0.45
  -2   0  -1   10.36    0.44
   2  -2  -1   10.78    0.51
   2   0  -1    9.58    0.43
   0   2  -1    9.65    0.41
   0  -2  -1   10.17    0.40
   0  -2  -1   10.39    0.44
   2   0  -1   10.56    0.43
   2  -2  -1   10.31    0.44
  -2  -1   1    3.80    0.22
   1  -3   1    2.58    0.19
  -1   3   1    2.82    0.14
  -3   2   1    2.64    0.26
  -2  -1   1    2.55    0.21
  -3   2   1    2.33    0.19
   1  -3   1    2.53    0.33
  -1   3   1    2.59    0.20
  -2  -1   1    2.63    0.33
  -2  -1   1    2.47    0.17
   3  -2   1    2.66    0.21
   3  -2  -1    2.68    0.20
   3  -2  -1    2.68    0.18
  -2  -1  -1    2.57    0.19
  -1   3  -1    2.66    0.20
   1  -3  -1    2.37    0.17
  -3   2  -1    2.77    0.24
  -2  -1  -1    2.89    0.27
  -3   2  -1    2.67    0.16
   1  -3  -1    3.25    0.38
  -2  -1  -1    3.07    0.27
   2  -3   1   10.95    0.42
  -1  -2   1   10.63    0.61
  -1  -2   1   11.28    0.62
   3  -1   1   11.03    0.49
  -1  -2   1   10.57    0.45
  -2   3   1   11.37    0.45
  -1  -2   1   11.03    0.48
   2  -3   1    9.87    0.60
   2  -3   1   10.81    0.50
  -3   1   1   10.56    0.48
  -2   3   1   10.29    0.50
  -2   3  -1   10.31    0.50
   3  -1  -1   11.28    0.50
  -1  -2  -1   10.33    0.44
  -1  -2  -1   10.85    0.49
  -1  -2  -1   11.92    0.69
   2  -3  -1   11.51    0.66
   2  -3  -1    9.95    0.48
  -1  -2  -1   10.75    0.55
   3  -1  -1   11.30    0.43
  -3   0   1   32.80    1.55
   0   3   1   35.27    1.29
   0  -3   1   29.13    1.51
   0   3   1   34.23    1.28
   3  -3   1   32.90    1.39
  -3   3   1   35.75    1.38
  -3   3   1   34.05    1.31
   0  -3   1   33.11    1.36
   3  -3   1   35.24    1.29
   3   0   1   35.92    1.25
  -3   0   1   34.95    1.25
   0  -3   1   33.52    1.24
   3   0  -1   35.84    1.29
  -3   3  -1   34.77    1.32
  -3   3  -1   35.64    1.31
   0  -3  -1   35.07    1.21
   3   0  -1   35.84    1.27
  -3   0  -1   33.76    1.27
   0  -3  -1   33.02    1.61
   0   3  -1   35.30    1.26
   3  -3  -1   34.65    1.28
   3  -3  -1   34.75    1.46
  -3   0  -1   35.90    1.37
  -3  -1   1    1.35    0.18
  -4   3   1    1.80    0.28
   1  -4   1    1.44    0.18
  -1   4   1    1.69    0.11
  -1   4   1    1.58    0.20
   3   1   1    1.71    0.15
  -3  -1   1    1.56    0.14
   1  -4   1    1.48    0.31
  -3  -1   1    1.54    0.30
   4  -3   1    1.53    0.21
  -4   3   1    1.51    0.20
  -3  -1  -1    1.14    0.17
  -4   3  -1    1.66    0.24
  -1   4  -1    1.43    0.18
   1  -4  -1    1.55    0.15
  -4   3  -1    1.42    0.14
   4  -3  -1    1.50    0.20
   1  -4  -1    1.49    0.34
   4  -3  -1    1.73    0.18
  -3  -1  -1    1.70    0.29
  -3  -1  -1    2.26    0.23
   3   1  -1    1.57    0.20
  -4   3  -1    1.87    0.22
  -2   4   1   13.33    0.50
   2  -4   1   13.34    0.60
  -2   4   1   12.97    0.62
  -2  -2   1   14.15    0.59
  -2  -2   1   13.45    0.72
  -2  -2   1   14.33    0.80
   4  -2   1   13.84    0.63
  -4   2   1   12.63    0.60
  -2  -2   1   13.46    0.57
   2  -4  -1   13.56    0.59
  -4   2  -1   13.62    0.62
  -2   4  -1   12.80    0.62
  -2  -2  -1   13.41    0.74
   2  -4  -1   12.65    0.84
   4  -2  -1   14.72    0.56
  -2  -2  -1   13.55    0.55
  -2  -2  -1   12.27    0.58
  -4   2  -1   13.16    0.76
  -2  -2  -1   13.90    0.80
   4  -1   1    0.51    0.13
  -1  -3   1    0.63    0.18
  -1  -3   1    0.52    0.10
  -4   1   1    0.58    0.12
   3  -4   1    0.44    0.16
  -1  -3   1    0.46    0.11
  -4   1   1    0.44    0.19
  -3   4   1    0.71    0.11
  -1  -3   1    0.51    0.15
  -3   4   1    0.55    0.14
   3  -4   1    0.94    0.16
   3  -4   1    0.56    0.06
  -1  -3  -1    0.58    0.12
   3  -4  -1    0.90    0.15
  -1  -3  -1    0.52    0.12
   4  -1  -1    0.40    0.12
  -4   1  -1    0.45    0.17
  -3   4  -1    0.38    0.12
   4  -1  -1    0.67    0.05
  -4   1  -1    0.38    0.11
  -1  -3  -1    0.76    0.11
  -1  -3  -1    0.42    0.19
   3  -4  -1    0.65    0.19
  -4   0   1    0.70    0.22
  -4   0   1    0.64    0.13
   0  -4   1    0.32    0.17
   0   4   1    0.92    0.12
   0   4   1    0.48    0.13
   0  -4   1    0.68    0.13
   4   0   1    0.51    0.12
   0  -4   1    0.90    0.14
   4  -4   1    0.39    0.13
  -4   4   1    0.67    0.15
   4  -4   1    0.60    0.14
  -4   4   1    0.66    0.16
   0  -4  -1    0.73    0.12
  -4   0  -1    0.79    0.12
  -4   4  -1    0.68    0.12
   0   4  -1    0.72    0.13
   4   0  -1    0.71    0.14
  -4   4  -1    0.53    0.14
   4  -4  -1    0.88    0.21
   4  -4  -1    0.96    0.17
   0  -4  -1    0.65    0.23
  -4   0  -1    0.65    0.14
  -4   0  -1    0.39    0.16
  -1   5   1    5.08    0.24
   4   1   1    4.91    0.31
  -5   4   1    4.38    0.39
  -5   4   1    3.74    0.32
   5  -4   1    4.95    0.36
   1  -5   1    4.01    0.55
  -4  -1   1    4.94    0.30
  -4  -1   1    4.45    0.55
  -1   5   1    4.62    0.33
   1  -5   1    4.50    0.31
  -4  -1  -1    4.48    0.53
   5  -4  -1    5.28    0.38
  -4  -1  -1    6.01    0.38
  -4  -1  -1    4.49    0.31
   4   1  -1    4.48    0.30
   4   1  -1    4.88    0.33
  -5   4  -1    4.54    0.35
   1  -5  -1    4.86    0.62
  -1   5  -1    4.51    0.32
   1  -5  -1    4.74    0.30
  -5   4  -1    5.49    0.40
   5  -4  -1    4.68    0.35
   5  -3   1   19.86    0.88
  -2   5   1   19.16    0.87
  -3  -2   1   19.59    0.80
  -5   3   1   19.86    1.07
   2  -5   1   19.53    0.84
  -3  -2   1   19.74    1.10
  -5   3   1   19.58    0.87
   2  -5   1   18.95    1.14
  -3  -2   1   19.34    0.82
  -3  -2   1   20.21    0.95
   5  -3  -1   19.72    0.84
  -2   5  -1   18.35    0.85
  -3  -2  -1   18.27    0.78
   2  -5  -1   18.65    0.81
   5  -3  -1   19.23    0.87
  -3  -2  -1   19.09    1.04
  -5   3  -1   18.00    0.86
   2  -5  -1   19.94    1.20
  -3  -2  -1   19.67    0.84
  -5   3  -1   19.51    0.74
  -5   3  -1   19.20    1.01
  -3  -2  -1   20.08    1.04
   5  -2   1    1.94    0.24
   3  -5   1    1.25    0.28
  -2  -3   1    1.29    0.24
  -3   5   1    1.55    0.23
  -2  -3   1    1.21    0.17
   3  -5   1    1.93    0.23
  -2  -3   1    1.20    0.25
  -2  -3   1    1.17    0.16
  -5   2   1    0.69    0.22
  -5   2   1    1.15    0.18
  -3   5   1    1.31    0.10
   3  -5  -1    1.32    0.19
  -5   2  -1    1.07    0.27
  -2  -3  -1    1.56    0.33
  -2  -3  -1    1.38    0.19
  -5   2  -1    1.43    0.21
  -2  -3  -1    1.42    0.16
   5  -2  -1    1.45    0.22
  -2  -3  -1    1.50    0.26
  -3   5  -1    1.58    0.22
   3  -5  -1    1.46    0.31
  -1  -4   1    2.62    0.22
  -1  -4   1    3.14    0.44
   4  -5   1    3.21    0.19
   5  -1   1    3.39    0.27
  -5   1   1    3.14    0.48
  -1  -4   1    3.35    0.30
  -5   1   1    3.01    0.24
   4  -5   1    3.45    0.40
   4  -5   1    3.47    0.28
  -4   5   1    3.57    0.30
  -4   5   1    3.31    0.24
  -5   1  -1    2.34    0.40
   4  -5  -1    2.79    0.25
   5  -1  -1    3.25    0.15
  -5   1  -1    3.26    0.27
   1   4  -1    3.19    0.24
  -4   5  -1    3.39    0.29
  -1  -4  -1    3.26    0.26
  -1  -4  -1    4.02    0.55
   4  -5  -1    3.64    0.46
  -1  -4  -1    3.40    0.23
   5  -1  -1    2.93    0.26
   5   0   1    2.50    0.23
   5  -5   1    2.43    0.25
   0  -5   1    2.28    0.43
  -5   5   1    2.10    0.27
   0  -5   1    1.96    0.18
   0  -5   1    2.14    0.24
  -5   5   1    1.77    0.26
   5  -5   1    1.72    0.26
  -5   0   1    1.95    0.38
   0   5   1    2.49    0.18
   0   5   1    2.01    0.25
  -5   0   1    2.17    0.20
   0  -5  -1    2.08    0.19
  -5   5  -1    1.86    0.27
   5  -5  -1    2.40    0.34
  -5   0  -1    1.62    0.34
   5   0  -1    2.14    0.26
  -5   0  -1    2.24    0.25
   0   5  -1    2.25    0.25
   0  -5  -1    1.99    0.41
   5  -5  -1    2.06    0.27
   5   0  -1    2.10    0.15
  -5   5  -1    2.11    0.19
  -5  -1   1    1.36    0.32
   6  -5   1    1.22    0.22
  -6   5   1    1.14    0.21
   1  -6   1    1.37    0.20
  -1   6   1    1.14    0.20
   1  -6   1    0.81    0.29
  -5  -1   1    1.43    0.19
   5   1   1    1.61    0.21
  -1   6   1    1.25    0.09
  -6   5   1    2.64    0.32
   6  -5  -1    1.00    0.20
   6  -5  -1    1.51    0.21
   1  -6  -1    1.04    0.30
   5   1  -1    1.63    0.23
  -5  -1  -1    1.41    0.33
   1  -6  -1    1.12    0.17
  -5  -1  -1    0.93    0.16
  -5  -1  -1    1.15    0.16
  -1   6  -1    1.28    0.20
  -6   5  -1    1.50    0.23
  -6   5  -1    1.35    0.24
   5   1  -1    1.44    0.14
   4   2   1    4.70    0.32
  -6   4   1    4.73    0.37
   2  -6   1    4.03    0.59
  -6   4   1    4.85    0.46
   6  -4   1    5.24    0.40
  -2   6   1    4.60    0.37
  -4  -2   1    5.17    0.32
   2  -6   1    4.32    0.33
  -4  -2   1    4.81    0.59
  -4  -2   1    4.88    0.34
   2  -6  -1    4.74    0.65
  -4  -2  -1    4.94    0.35
  -6   4  -1    4.90    0.43
  -2   6  -1    3.97    0.34
   2  -6  -1    4.82    0.33
  -6   4  -1    5.09    0.39
   6  -4  -1    5.06    0.31
  -4  -2  -1    4.74    0.40
  -6   4  -1    4.69    0.25
   6  -4  -1    4.35    0.37
  -4  -2  -1    4.42    0.54
  -3   6   1    4.44    0.36
   6  -3   1    4.65    0.37
  -3  -3   1    5.17    0.34
   3  -6   1    5.11    0.61
  -3  -3   1    5.46    0.50
  -3  -3   1    4.32    0.30
  -6   3   1    4.98    0.36
   3  -6   1    4.92    0.36
  -6   3   1    5.22    0.59
  -3  -3   1    4.76    0.42
   3  -6  -1    5.85    0.67
  -3  -3  -1    4.82    0.31
  -3  -3  -1    5.09    0.47
  -6   3  -1    4.96    0.37
  -3   6  -1    4.52    0.36
   3  -6  -1    4.91    0.34
  -3  -3  -1    4.95    0.34
  -3  -3  -1    4.95    0.46
  -6   3  -1    4.91    0.47
   6  -3  -1    5.84    0.40
  -2  -4   1    2.85    0.25
   6  -2   1    3.26    0.29
  -6   2   1    2.67    0.46
   4  -6   1    3.03    0.44
  -2  -4   1    3.21    0.45
   4  -6   1    3.04    0.33
  -2  -4   1    2.79    0.38
  -4   6   1    2.27    0.31
  -2  -4   1    2.68    0.23
  -6   2   1    2.86    0.26
  -2  -4  -1    3.41    0.49
  -6   2  -1    3.43    0.50
  -6   2  -1    2.66    0.30
  -2  -4  -1    3.00    0.23
   4  -6  -1    3.34    0.51
  -2  -4  -1    3.03    0.30
   4  -6  -1    2.79    0.26
   6  -2  -1    2.82    0.32
  -4   6  -1    3.22    0.35
  -2  -4  -1    2.77    0.25
  -6   1   1   15.94    0.77
   1   5   1   16.98    0.80
   6  -1   1   16.65    0.80
  -1  -5   1   15.62    0.75
  -5   6   1   16.86    0.76
   5  -6   1   16.28    0.68
  -1  -5   1   15.86    1.06
  -1  -5   1   15.80    0.83
   5  -6   1   15.01    0.80
  -5   6   1   16.69    0.85
  -6   1   1   18.13    1.14
   1   5   1   16.15    0.79
   5  -6   1   16.28    0.94
   1   5  -1   15.79    0.76
  -5   6  -1   16.46    0.85
   5  -6  -1   17.11    0.82
   6  -1  -1   16.86    0.81
  -1  -5  -1   16.52    0.73
   5  -6  -1   18.45    1.05
  -1  -5  -1   16.55    1.11
  -6   1  -1   16.27    1.07
  -6   1  -1   16.47    0.80
  -6   0   1    0.23    0.15
   0  -6   1    0.35    0.10
   6  -6   1    0.35    0.09
   0   6   1    0.25    0.04
  -6   0   1    0.21    0.07
   6  -6   1    0.40    0.08
   0  -6   1    0.54    0.20
  -6   6   1    0.37    0.09
   6   0   1    0.45    0.12
   6  -6   1    0.12    0.09
  -6   6   1    0.24    0.10
   0   6   1    0.41    0.13
  -6   0  -1    0.32    0.11
   6  -6  -1    0.16    0.08
   6   0  -1    0.41    0.12
  -6   6  -1    0.36    0.12
   0   6  -1    0.27    0.07
   0  -6  -1    0.35    0.17
  -6   0  -1    0.28    0.16
   6  -6  -1    0.23    0.10
   0  -6  -1    0.35    0.08
  -6  -1   1    1.45    0.35
   1  -7   1    1.60    0.24
  -6  -1   1    1.16    0.19
   7  -6   1    1.35    0.26
   1  -7   1    1.80    0.41
  -1   7   1    1.60    0.26
   6   1   1    1.16    0.19
  -7   6   1    1.71    0.26
  -7   6   1    1.52    0.26
  -6  -1  -1    1.48    0.24
  -6  -1  -1    1.63    0.38
   6   1  -1    2.16    0.29
   1  -7  -1    1.05    0.31
   1  -7  -1    1.22    0.19
  -7   6  -1    1.30    0.26
  -1   7  -1    1.62    0.25
  -7   6  -1    1.34    0.21
   7  -6  -1    1.14    0.23
  -5  -2   1   23.09    1.36
   2  -7   1   22.77    1.03
  -5  -2   1   22.54    0.99
  -7   5   1   23.99    1.24
   5   2   1   23.83    1.00
   7  -5   1   23.03    1.10
   2  -7   1   21.66    1.40
  -7   5   1   22.68    1.09
  -2   7   1   22.58    1.08
   2  -7  -1   23.39    1.46
   2  -7  -1   22.22    1.00
   5   2  -1   22.41    1.02
  -7   5  -1   21.89    1.09
  -5  -2  -1   22.81    1.11
   5   2  -1   22.76    1.07
  -2   7  -1   21.12    1.04
  -5  -2  -1   25.05    1.40
   7  -5  -1   22.09    1.08
  -7   5  -1   24.80    1.23
  -5  -2  -1   22.59    1.03
  -4  -3   1    0.58    0.14
   7  -4   1    0.40    0.13
  -4  -3   1    0.46    0.18
  -4  -3   1    0.37    0.11
  -3   7   1    0.61    0.16
  -7   4   1    0.19    0.10
   3  -7   1    0.47    0.17
  -7   4   1    0.34    0.11
   3  -7   1    0.41    0.12
  -7   4  -1    0.35    0.11
  -4  -3  -1    0.36    0.11
   3  -7  -1    0.39    0.10
   7  -4  -1    0.12    0.10
  -4  -3  -1    0.74    0.21
  -7   4  -1    0.55    0.15
   3  -7  -1    0.08    0.12
  -4  -3  -1    0.43    0.11
  -3   7  -1    0.36    0.12
  -3  -4   1    0.64    0.13
  -4   7   1    0.88    0.19
  -3  -4   1    0.96    0.22
  -7   3   1    0.90    0.26
  -7   3   1    0.98    0.19
  -3  -4   1    0.88    0.17
   4  -7   1    0.42    0.11
   4  -7   1    0.70    0.24
  -3  -4   1    0.73    0.17
   7  -3   1    0.81    0.19
  -3  -4  -1    0.73    0.13
   4  -7  -1    0.56    0.14
   7  -3  -1    0.46    0.14
  -7   3  -1    0.67    0.16
  -3  -4  -1    0.54    0.13
  -3  -4  -1    0.55    0.17
  -4   7  -1    0.91    0.19
  -7   3  -1    0.60    0.20
  -3  -4  -1    1.07    0.23
   4  -7  -1    0.96    0.28
  -2  -5   1    1.00    0.18
  -5   7   1    0.88    0.19
  -2  -5   1    1.75    0.35
  -2  -5   1    1.31    0.24
   7  -2   1    1.29    0.23
  -7   2   1    1.40    0.22
   5  -7   1    1.61    0.30
   5  -7   1    1.17    0.22
  -7   2   1    0.80    0.27
  -2  -5  -1    1.48    0.34
  -7   2  -1    1.20    0.30
   5  -7  -1    1.21    0.21
   5  -7  -1    1.07    0.25
  -5   7  -1    1.10    0.22
  -2  -5  -1    1.31    0.18
   2   5  -1    1.44    0.21
  -7   2  -1    1.17    0.21
  -2  -5  -1    1.36    0.22
   7  -2  -1    1.27    0.23
   7  -1   1    3.37    0.36
   6  -7   1    2.83    0.36
  -6   7   1    3.14    0.40
  -1  -6   1    3.48    0.31
  -7   1   1    2.70    0.31
  -1  -6   1    3.84    0.31
  -1  -6   1    3.47    0.55
  -7   1   1    3.54    0.56
   1   6   1    3.26    0.26
   6  -7   1    3.29    0.43
   1   6   1    2.81    0.33
  -7   1  -1    2.68    0.48
  -1  -6  -1    2.58    0.49
  -1  -6  -1    3.06    0.25
   6  -7  -1    3.13    0.37
  -6   7  -1    2.73    0.37
   1   6  -1    3.20    0.28
   6  -7  -1    3.43    0.46
   7  -1  -1    2.98    0.36
  -7   1  -1    2.67    0.33
   0   7   1    0.33    0.11
   7  -7   1    0.34    0.12
  -7   0   1    0.53    0.13
  -7   0   1    0.10    0.12
   7  -7   1    0.76    0.13
   0  -7   1    0.53    0.12
  -7   7   1    0.22    0.10
   0  -7   1    0.41    0.22
   7   0   1    0.51    0.13
   7   0  -1    0.44    0.13
   0  -7  -1    0.24    0.08
   7  -7  -1    0.84    0.13
  -7   0  -1    0.41    0.19
   7  -7  -1    0.38    0.12
  -7   7  -1    0.44    0.15
   0  -7  -1    0.29    0.19
   0   7  -1    0.65    0.15
  -7   0  -1    0.36    0.13
   8  -7   1    3.79    0.47
  -1   8   1    3.38    0.41
  -7  -1   1    3.58    0.31
  -8   7   1    3.10    0.42
   7   1   1    3.52    0.32
  -7  -1   1    3.80    0.63
   1  -8   1    3.91    0.34
   1  -8   1    2.96    0.55
  -8   7  -1    3.83    0.46
  -1   8  -1    4.20    0.36
   1  -8  -1    3.47    0.31
  -7  -1  -1    3.50    0.60
   7   1  -1    3.52    0.40
   1  -8  -1    2.97    0.55
   8  -7  -1    4.01    0.46
  -7  -1  -1    3.77    0.40
  -6  -2   1    4.06    0.61
  -8   6   1    4.17    0.49
  -6  -2   1    3.82    0.32
   2  -8   1    3.68    0.64
   2  -8   1    4.13    0.36
  -8   6   1    3.74    0.44
   8  -6   1    4.15    0.47
   6   2   1    4.11    0.33
  -2   8   1    3.03    0.39
  -8   6  -1    4.00    0.46
  -6  -2  -1    3.99    0.35
   8  -6  -1    3.54    0.43
   6   2  -1    3.60    0.33
   2  -8  -1    3.78    0.33
  -2   8  -1    3.86    0.42
  -6  -2  -1    3.86    0.61
  -8   6  -1    4.01    0.37
   2  -8  -1    4.14    0.66
   5   3   1    2.03    0.25
  -5  -3   1    1.75    0.23
  -5  -3   1    1.32    0.34
  -8   5   1    1.74    0.29
   3  -8   1    1.50    0.38
   3  -8   1    1.79    0.27
   8  -5   1    1.29    0.26
  -3   8   1    1.72    0.29
  -8   5   1    1.41    0.27
  -5  -3  -1    1.69    0.25
   3  -8  -1    1.68    0.25
   5   3  -1    1.23    0.22
  -8   5  -1    2.18    0.37
  -8   5  -1    1.08    0.23
  -3   8  -1    1.33    0.24
   8  -5  -1    1.11    0.25
  -5  -3  -1    1.67    0.39
  -5  -3  -1    1.53    0.25
   5   3  -1    1.97    0.29
   3  -8  -1    1.31    0.37
  -8   4   1    5.70    0.66
  -4  -4   1    4.61    0.45
  -4  -4   1    5.26    0.37
  -4  -4   1    4.91    0.37
  -8   4   1    4.15    0.38
  -4  -4   1    5.44    0.63
  -4   8   1    4.64    0.42
   8  -4   1    4.81    0.43
   4  -8   1    4.44    0.39
   4  -8   1    5.23    0.69
  -4  -4  -1    4.75    0.35
  -4  -4  -1    4.73    0.48
   8  -4  -1    4.71    0.43
   4  -8  -1    5.00    0.39
   4  -8  -1    5.87    0.75
  -4   8  -1    4.96    0.43
  -4  -4  -1    4.77    0.38
  -8   4  -1    4.84    0.42
  -8   4  -1    5.32    0.64
  -4  -4  -1    5.23    0.60
  -3  -5   1    5.34    0.48
   5  -8   1    4.17    0.39
  -3  -5   1    5.37    0.39
  -8   3   1    4.83    0.66
   8  -3   1    5.09    0.43
  -8   3   1    4.65    0.39
  -3  -5   1    4.91    0.60
  -5   8   1    4.60    0.42
   5  -8   1    4.82    0.64
  -3  -5   1    5.38    0.38
   5  -8  -1    4.88    0.66
   8  -3  -1    4.90    0.43
  -8   3  -1    5.02    0.65
  -3  -5  -1    5.59    0.37
  -3  -5  -1    4.94    0.39
  -3  -5  -1    3.95    0.56
  -5   8  -1    4.34    0.41
  -8   3  -1    4.67    0.40
   5  -8  -1    4.91    0.40
  -3  -5  -1    4.61    0.43
  -8   2   1    1.94    0.42
  -2  -6   1    2.12    0.32
  -8   2   1    1.80    0.27
   6  -8   1    1.83    0.29
   6  -8   1    2.21    0.36
   2   6   1    1.71    0.27
  -2  -6   1    1.78    0.41
   8  -2   1    2.06    0.31
  -2  -6   1    1.66    0.24
   2   6   1    1.81    0.26
  -6   8   1    1.72    0.30
  -8   2  -1    1.90    0.30
   8  -2  -1    1.28    0.25
  -6   8  -1    2.13    0.33
   2   6  -1    1.71    0.25
  -8   2  -1    1.87    0.39
   6  -8  -1    1.94    0.35
  -2  -6  -1    2.03    0.25
  -2  -6  -1    1.70    0.37
   6  -8  -1    1.81    0.29
   7  -8   1    0.77    0.18
  -7   8   1    0.14    0.11
  -1  -7   1    0.12    0.07
  -8   1   1    0.33    0.20
   1   7   1    0.27    0.09
  -1  -7   1    0.35    0.18
   8  -1   1    0.26    0.09
  -8   1   1    0.27    0.09
   7  -8  -1    0.25    0.10
   1   7  -1    0.25    0.08
  -1  -7  -1    0.19    0.13
  -8   1  -1    0.58    0.15
   8  -1  -1    0.14    0.08
  -8   1  -1    0.10    0.13
  -1  -7  -1    0.33    0.08
  -7   8  -1    0.26    0.11
   7  -8  -1    0.12    0.06
  -8   8   1    0.50    0.16
  -8   0   1    0.16    0.07
   0  -8   1    0.31    0.08
  -8   0   1    0.23    0.16
   0  -8   1    0.15    0.18
   8  -8   1    0.13    0.08
   0   8   1    0.41    0.14
   8   0   1    0.18    0.07
   0   8  -1    0.55    0.12
  -8   8  -1    0.39    0.14
   0  -8  -1    0.29    0.08
   8   0  -1    0.36    0.13
   0  -8  -1    0.57    0.25
  -8   0  -1    0.35    0.20
   8  -8  -1    0.15    0.10
  -8   0  -1    0.31    0.10
  -9   8   1    1.28    0.28
   1  -9   1    1.15    0.32
   8   1   1    1.14    0.21
  -8  -1   1    1.03    0.18
  -8  -1   1    0.88    0.27
   1  -9   1    1.57    0.25
  -1   9   1    1.10    0.23
   9  -8   1    1.13    0.26
  -8  -1  -1    1.23    0.23
   1  -9  -1    1.26    0.21
  -9   8  -1    1.04    0.24
  -8  -1  -1    1.18    0.31
   8   1  -1    1.40    0.25
  -1   9  -1    0.95    0.18
   1  -9  -1    0.85    0.28
   9  -8  -1    0.87    0.20
   2  -9   1    2.62    0.54
   2  -9   1    1.71    0.27
   9  -7   1    2.52    0.40
  -9   7   1    2.37    0.38
  -2   9   1    2.03    0.32
  -7  -2   1    2.50    0.31
  -7  -2   1    2.71    0.51
   7   2   1    2.44    0.31
  -2   9  -1    2.30    0.33
   2  -9  -1    3.07    0.35
  -7  -2  -1    2.14    0.47
   9  -7  -1    2.19    0.36
   2  -9  -1    2.16    0.47
  -9   7  -1    2.26    0.36
  -7  -2  -1    1.88    0.29
   7   2  -1    1.91    0.30
  -6  -3   1    0.71    0.23
   3  -9   1    0.70    0.30
   6   3   1    0.83    0.15
  -9   6   1    1.08    0.24
  -3   9   1    0.61    0.18
   3  -9   1    0.96    0.20
   9  -6   1    0.98    0.24
  -9   6   1    0.33    0.11
  -6  -3   1    1.48    0.22
   3  -9  -1    0.68    0.14
  -6  -3  -1    0.73    0.16
  -9   6  -1    0.78    0.20
  -6  -3  -1    0.59    0.23
  -9   6  -1    0.89    0.21
   3  -9  -1    0.82    0.29
   9  -6  -1    1.00    0.23
  -3   9  -1    0.82    0.17
   6   3  -1    0.83    0.17
   4  -9   1    0.83    0.19
  -9   5   1    0.36    0.10
  -9   5   1    0.41    0.14
   5   4   1    0.47    0.10
  -5  -4   1    0.52    0.11
   4  -9   1    0.46    0.21
  -5  -4   1    0.32    0.13
  -4   9   1    0.86    0.21
   9  -5   1    0.32    0.14
   4  -9  -1    0.31    0.10
   5   4  -1    0.66    0.19
  -9   5  -1    0.41    0.11
  -9   5  -1    0.63    0.18
  -5  -4  -1    0.20    0.10
   9  -5  -1    0.45    0.16
  -5  -4  -1    0.47    0.12
  -5  -4  -1    0.40    0.12
   4  -9  -1    0.26    0.14
  -4   9  -1    0.55    0.16
   9  -4   1    1.82    0.33
   5  -9   1    2.69    0.37
  -4  -5   1    2.50    0.40
  -4  -5   1    2.79    0.34
  -5   9   1    2.59    0.38
  -4  -5   1    2.58    0.31
  -9   4   1    2.24    0.33
  -9   4   1    2.51    0.46
   5  -9   1    2.93    0.52
  -4  -5   1    2.41    0.40
  -9   4  -1    2.66    0.37
  -4  -5  -1    2.43    0.33
   5  -9  -1    2.64    0.34
   9  -4  -1    3.06    0.42
   5  -9  -1    2.42    0.48
  -4  -5  -1    2.71    0.43
  -4  -5  -1    2.89    0.43
  -5   9  -1    2.34    0.36
  -4  -5  -1    2.65    0.31
  -9   4  -1    3.30    0.52
  -9   3   1    0.66    0.18
   9  -3   1    0.85    0.21
  -9   3   1    0.72    0.24
  -3  -6   1    0.65    0.20
   3   6   1    0.74    0.16
  -6   9   1    0.64    0.18
  -3  -6   1    0.83    0.16
   6  -9   1    1.52    0.33
  -3  -6   1    0.97    0.22
   6  -9   1    0.64    0.18
  -3  -6  -1    0.73    0.17
   3   6  -1    0.91    0.16
  -9   3  -1    1.12    0.30
  -9   3  -1    0.97    0.22
   9  -3  -1    0.75    0.19
  -3  -6  -1    1.27    0.29
  -6   9  -1    0.55    0.16
  -3  -6  -1    0.71    0.15
   6  -9  -1    0.75    0.18
   6  -9  -1    0.79    0.19
  -7   9   1    0.12    0.10
  -2  -7   1    0.21    0.08
  -9   2   1    0.71    0.23
   7  -9   1    0.36    0.11
   7  -9   1    0.54    0.13
   9  -2   1    0.23    0.09
   2   7   1    0.46    0.10
  -9   2   1    0.46    0.13
  -2  -7   1    0.24    0.14
  -2  -7  -1    0.66    0.22
  -9   2  -1    0.26    0.11
  -2  -7  -1    0.25    0.07
   2   7  -1    0.70    0.13
   9  -2  -1    0.12    0.09
   7  -9  -1    0.36    0.13
   7  -9  -1    0.48    0.11
  -7   9  -1    0.19    0.10
  -9   2  -1    0.10    0.14
   9  -1   1    4.60    0.40
  -8   9   1    3.59    0.48
  -1  -8   1    4.33    0.37
  -1  -8   1    5.33    0.77
   8  -9   1    4.24    0.51
  -9   1   1    4.03    0.36
   1   8   1    4.46    0.40
  -9   1   1    3.94    0.64
  -9   1  -1    5.27    0.79
  -8   9  -1    4.25    0.53
   9  -1  -1    3.57    0.46
  -1  -8  -1    4.18    0.68
  -9   1  -1    4.37    0.40
  -1  -8  -1    4.26    0.35
   8  -9  -1    4.20    0.50
   1   8  -1    3.96    0.35
   0   9   1    2.40    0.34
   0  -9   1    1.83    0.44
  -9   0   1    2.26    0.47
  -9   0   1    2.36    0.33
  -9   9   1    2.43    0.39
   9   0   1    2.16    0.30
   0  -9   1    1.56    0.27
   9  -9   1    1.70    0.31
  -9   9  -1    1.91    0.34
   0  -9  -1    2.37    0.32
   0  -9  -1    2.18    0.49
   0   9  -1    2.35    0.31
  -9   0  -1    2.28    0.33
  -9   0  -1    1.70    0.40
   9   0  -1    2.32    0.33
   9  -9  -1    1.92    0.35
   1 -10   1    0.00    0.11
  -9  -1   1    0.11    0.11
   9   1   1    0.07    0.07
   1 -10   1    0.07    0.07
  10  -9   1    0.02    0.09
 -10   9   1    0.05    0.10
  -9  -1   1    0.34    0.08
  -1  10   1    0.82    0.17
 -10   9  -1    0.05    0.08
   9   1  -1    0.26    0.07
  -9  -1  -1    0.19    0.08
   1 -10  -1   -0.01    0.13
   1 -10  -1    0.15    0.07
  -1  10  -1    0.14    0.07
  10  -9  -1    0.15    0.07
  -9  -1  -1    0.14    0.12
  -8  -2   1    2.37    0.32
   2 -10   1    2.14    0.31
   8   2   1    1.68    0.25
   2 -10   1    0.92    0.32
  -2  10   1    2.41    0.36
  10  -8   1    1.41    0.30
 -10   8   1    2.05    0.36
  -8  -2   1    1.91    0.41
  10  -8  -1    1.59    0.31
 -10   8  -1    2.05    0.36
   2 -10  -1    2.25    0.50
   2 -10  -1    2.14    0.31
  -8  -2  -1    1.91    0.30
   8   2  -1    1.77    0.29
  -8  -2  -1    2.46    0.50
  -2  10  -1    1.63    0.26
   7   3   1    0.28    0.08
  -7  -3   1    0.34    0.15
  10  -7   1    0.57    0.18
 -10   7   1    0.37    0.12
  -3  10   1    0.37    0.11
  -7  -3   1    0.31    0.07
   3 -10   1    0.32    0.09
   3 -10   1    0.36    0.18
  -3  10  -1    0.28    0.07
   3 -10  -1    0.20    0.16
  -7  -3  -1    0.25    0.15
 -10   7  -1    0.36    0.15
   7   3  -1    0.16    0.07
  -7  -3  -1    0.33    0.10
   3 -10  -1    0.34    0.07
  10  -7  -1    0.39    0.14
   4 -10   1    0.35    0.15
   6   4   1    0.57    0.09
  10  -6   1    0.03    0.09
  -4  10   1    0.17    0.09
  -6  -4   1    0.22    0.07
 -10   6   1    0.07    0.10
  -6  -4   1   -0.21    0.09
 -10   6   1    0.10    0.08
   4 -10   1    0.22    0.08
   4 -10  -1   -0.06    0.11
   6   4  -1    0.11    0.06
  -6  -4  -1    0.10    0.08
  10  -6  -1    0.28    0.12
 -10   6  -1    0.06    0.08
  -4  10  -1    0.23    0.08
   4 -10  -1    0.03    0.08
 -10   6  -1    0.13    0.10
  -6  -4  -1    0.02    0.09
  -5  -5   1    0.39    0.09
  -5  -5   1    0.36    0.13
 -10   5   1    0.19    0.09
  -5  10   1    0.34    0.12
   5 -10   1    0.15    0.11
 -10   5   1    0.54    0.15
   5 -10   1    0.19    0.14
   5   5   1    0.21    0.07
  10  -5   1    0.42    0.14
  -5  -5   1    0.55    0.11
  -5  -5  -1    0.37    0.11
   5   5  -1    0.45    0.12
   5 -10  -1    0.49    0.14
  -5  -5  -1    0.49    0.12
  10  -5  -1    0.45    0.15
  -5  -5  -1    0.34    0.10
 -10   5  -1    0.09    0.07
 -10   5  -1   -0.07    0.12
  -5  10  -1    0.35    0.15
   5 -10  -1    0.40    0.18
  -6  10   1    0.49    0.16
  -4  -6   1    0.35    0.13
   6 -10   1    0.86    0.24
   4   6   1    0.54    0.16
 -10   4   1    0.40    0.16
  -4  -6   1    0.13    0.10
 -10   4   1    0.38    0.12
   6 -10   1    0.21    0.07
  10  -4   1    0.41    0.12
  -4  -6   1    0.77    0.15
  10  -4  -1    0.43    0.14
   6 -10  -1    0.44    0.16
 -10   4  -1    0.58    0.18
  -4  -6  -1    0.46    0.14
  -4  -6  -1    1.11    0.21
 -10   4  -1    0.58    0.19
   4   6  -1    0.54    0.08
  -6  10  -1    0.60    0.16
  -4  -6  -1    0.42    0.08
   6 -10  -1    0.56    0.13
   7 -10   1    1.31    0.21
  -7  10   1    1.45    0.28
   7 -10   1    1.53    0.28
  -3  -7   1    1.42    0.30
 -10   3   1    1.29    0.25
 -10   3   1    1.75    0.39
  -3  -7   1    1.21    0.22
   3   7   1    1.65    0.26
  10  -3   1    0.84    0.21
   7 -10  -1    1.22    0.22
  -7  10  -1    1.24    0.26
 -10   3  -1    0.88    0.21
  -3  -7  -1    1.08    0.26
 -10   3  -1    1.46    0.36
   3   7  -1    1.20    0.20
   7 -10  -1    1.80    0.27
  -3  -7  -1    1.16    0.19
  10  -3  -1    1.04    0.23
   8 -10   1    2.61    0.39
  10  -2   1    2.65    0.36
   2   8   1    3.54    0.42
  -2  -8   1    2.50    0.32
 -10   2   1    2.35    0.34
  -8  10   1    2.34    0.39
  -2  -8   1    2.55    0.49
 -10   2   1    3.40    0.60
 -10   2  -1    2.93    0.39
 -10   2  -1    2.60    0.53
  10  -2  -1    2.87    0.41
   8 -10  -1    2.21    0.35
   2   8  -1    2.99    0.27
  -8  10  -1    2.42    0.41
  -2  -8  -1    3.05    0.55
 -10   1   1    0.14    0.13
   1   9   1    0.31    0.07
  -9  10   1    0.01    0.09
  10  -1   1   -0.08    0.07
   9 -10   1   -0.12    0.08
 -10   1   1    0.20    0.11
  -1  -9   1    0.31    0.07
  -1  -9   1    0.02    0.10
 -10   1  -1   -0.07    0.12
  10  -1  -1    0.44    0.11
 -10   1  -1    0.13    0.07
   9 -10  -1    0.25    0.10
  -9  10  -1    0.11    0.08
   1   9  -1    0.36    0.08
  -1  -9  -1    0.26    0.11
   0  10   1    0.38    0.08
  10 -10   1    0.30    0.09
   0 -10   1    0.09    0.12
 -10   0   1    0.20    0.08
  10   0   1    0.24    0.08
 -10   0   1    0.15    0.13
   0 -10   1    0.01    0.08
 -10  10   1    0.22    0.12
  10   0  -1    0.57    0.08
 -10   0  -1    0.40    0.10
   0 -10  -1    0.08    0.13
 -10  10  -1    0.14    0.11
  10 -10  -1    0.40    0.14
 -10   0  -1    0.12    0.13
   0  10  -1    0.35    0.09
 -10  -1   1    0.15    0.13
   1 -11   1   -0.04    0.08
  11 -10   1    0.23    0.10
   1 -11   1    0.40    0.17
 -11  10   1    0.31    0.11
  -1  11   1    0.40    0.09
 -10  -1  -1   -0.03    0.12
  -1  11  -1    0.21    0.09
 -11  10  -1    0.08    0.08
 -10  -1  -1    0.16    0.09
  11 -10  -1    0.52    0.11
   1 -11  -1    0.29    0.14
  10   1  -1    0.23    0.08
   2 -11   1    5.78    0.49
  -9  -2   1    6.62    0.90
 -11   9   1    6.53    0.59
   2 -11   1    6.80    0.94
  11  -9   1    7.05    0.61
  -2  11   1    6.94    0.55
   2 -11  -1    6.19    0.91
  -2  11  -1    6.55    0.51
   2 -11  -1    6.77    0.50
   9   2  -1    6.03    0.49
  -9  -2  -1    6.24    0.85
  11  -9  -1    5.83    0.66
  -9  -2  -1    5.93    0.51
 -11   9  -1    5.29    0.65
  11  -8   1    1.62    0.33
  -3  11   1    1.60    0.28
 -11   8   1    2.28    0.39
   3 -11   1    1.90    0.29
  -8  -3   1    1.88    0.40
   3 -11   1    1.52    0.37
  -8  -3  -1    2.74    0.52
 -11   8  -1    1.72    0.32
  11  -8  -1    2.14    0.36
  -8  -3  -1    2.02    0.30
   8   3  -1    1.82    0.27
   3 -11  -1    2.25    0.48
   3 -11  -1    2.12    0.32
  -3  11  -1    2.58    0.36
  -7  -4   1    1.07    0.26
   4 -11   1    1.63    0.42
  11  -7   1    0.57    0.18
 -11   7   1    1.28    0.26
   4 -11   1    0.97    0.17
  -4  11   1    1.33    0.25
   4 -11  -1    1.08    0.33
  -7  -4  -1    1.20    0.30
  -7  -4  -1    1.24    0.21
  -4  11  -1    1.02    0.19
   4 -11  -1    1.29    0.23
 -11   7  -1    0.90    0.21
   7   4  -1    1.14    0.17
  11  -7  -1    1.11    0.25
 -11   6   1    6.68    0.56
  -5  11   1    6.95    0.59
  11  -6   1    6.48    0.58
  -6  -5   1    7.51    0.72
 -11   6   1    6.11    0.57
   5 -11   1    6.68    0.54
   5 -11   1    6.37    0.85
   5 -11  -1    6.57    0.87
 -11   6  -1    5.98    0.55
  11  -6  -1    7.49    0.63
   6   5  -1    7.00    0.51
   5 -11  -1    6.45    0.52
 -11   6  -1    6.12    0.56
  -5  11  -1    6.09    0.54
  -6  -5  -1    6.20    0.51
  -5  -6   1    0.78    0.15
  -5  -6   1    0.70    0.18
   6 -11   1    0.48    0.10
   6 -11   1    0.35    0.14
  -6  11   1    0.63    0.19
   5   6   1    0.21    0.09
  11  -5   1    0.48    0.14
 -11   5   1    0.60    0.17
 -11   5   1    0.24    0.10
   6 -11  -1    0.39    0.10
  -5  -6  -1    0.74    0.18
   6 -11  -1    0.62    0.17
   5   6  -1    0.91    0.17
  -6  11  -1    0.64    0.16
  11  -5  -1    0.55    0.14
 -11   5  -1    0.61    0.10
 -11   5  -1    0.50    0.14
  -5  -6  -1    0.44    0.13
  -4  -7   1    3.13    0.37
 -11   4   1    3.27    0.55
  11  -4   1    2.97    0.41
  -7  11   1    3.36    0.49
   4   7   1    3.28    0.30
   7 -11   1    2.41    0.37
 -11   4   1    2.51    0.38
   7 -11   1    2.80    0.41
  -4  -7  -1    3.10    0.54
   7 -11  -1    2.59    0.43
 -11   4  -1    3.37    0.45
 -11   4  -1    3.49    0.57
   7 -11  -1    2.71    0.38
  11  -4  -1    2.97    0.43
  -7  11  -1    2.84    0.42
  -8  11   1    4.50    0.56
  -3  -8   1    4.41    0.39
   3   8   1    4.12    0.37
  -3  -8   1    3.70    0.59
 -11   3   1    4.23    0.65
 -11   3   1    4.68    0.42
   8 -11   1    3.94    0.51
  11  -3   1    5.16    0.44
  -3  -8  -1    3.66    0.59
  -8  11  -1    3.77    0.52
 -11   3  -1    3.65    0.63
  11  -3  -1    4.96    0.56
 -11   3  -1    3.36    0.45
   8 -11  -1    4.00    0.49
  -2  -9   1    1.72    0.26
  11  -2   1    1.60    0.21
   9 -11   1    1.75    0.31
   2   9   1    1.63    0.23
  -9  11   1    1.61    0.31
 -11   2   1    1.39    0.35
 -11   2   1    1.40    0.24
  -2  -9   1    2.02    0.39
   9 -11  -1    1.89    0.31
 -11   2  -1    1.62    0.34
  -2  -9  -1    2.39    0.47
  11  -2  -1    1.84    0.26
 -11   2  -1    1.87    0.30
  -9  11  -1    1.77    0.33
 -10  11   1    3.34    0.49
  11  -1   1    3.00    0.34
 -11   1   1    4.77    0.74
  -1 -10   1    3.76    0.44
   1  10   1    3.67    0.33
  -1 -10   1    3.34    0.58
  10 -11   1    3.26    0.48
  11  -1  -1    3.56    0.32
  10 -11  -1    3.40    0.48
 -11   1  -1    3.38    0.61
 -11   1  -1    3.15    0.41
  -1 -10  -1    3.08    0.56
 -10  11  -1    3.94    0.55
  12  -9   1    0.12    0.11
   3 -12   1    0.16    0.12
  -3  12   1   -0.11    0.09
 -12   9   1    0.16    0.08
  -9  -3   1   -0.03    0.15
  12  -9  -1    0.10    0.12
  -3  12  -1    0.28    0.09
  -9  -3  -1   -0.22    0.12
   3 -12  -1    0.31    0.13
   9   3  -1    0.37    0.09
  -8  -4   1    0.25    0.13
  12  -8   1    0.30    0.14
  -4  12   1    0.02    0.09
 -12   8   1    0.45    0.16
   4 -12   1    0.40    0.15
   4 -12   1    0.05    0.09
   4 -12  -1    0.26    0.16
  -8  -4  -1    0.54    0.12
   8   4  -1    0.57    0.09
   4 -12  -1    0.64    0.14
 -12   8  -1    0.26    0.12
  12  -8  -1    0.43    0.17
  -7  -5   1    2.47    0.46
   7   5   1    2.86    0.42
  12  -7   1    2.77    0.44
  -5  12   1    2.17    0.34
 -12   7   1    2.66    0.42
   5 -12   1    3.04    0.51
   5 -12   1    2.92    0.41
 -12   7  -1    2.67    0.40
   5 -12  -1    2.95    0.39
  12  -7  -1    2.62    0.43
  -5  12  -1    2.95    0.40
   5 -12  -1    3.37    0.58
  -7  -5  -1    3.16    0.40
   7   5  -1    2.74    0.32
   6 -12   1    1.47    0.28
  -6  -6   1    1.46    0.27
 -12   6   1    1.25    0.18
 -12   6   1    0.89    0.21
   6 -12   1    1.21    0.21
  12  -6   1    0.65    0.15
  -6  12   1    0.81    0.23
   6   6   1    1.72    0.24
  -6  -6  -1    1.17    0.21
  12  -6  -1    1.31    0.27
 -12   6  -1    1.31    0.19
 -12   6  -1    1.40    0.26
  -6  12  -1    0.74    0.14
   6 -12  -1    1.69    0.27
   6 -12  -1    1.83    0.28
 -12   5   1   -0.10    0.11
 -12   5   1    0.40    0.09
   7 -12   1    0.04    0.08
  12  -5   1    0.36    0.09
  -7  12   1    0.36    0.10
   7 -12  -1    0.23    0.08
 -12   5  -1   -0.05    0.09
  12  -5  -1    0.64    0.20
   7 -12  -1    0.57    0.12
  -7  12  -1    0.23    0.09
 -12   5  -1   -0.07    0.11
   4   8   1    3.69    0.32
 -12   4   1    3.99    0.58
  12  -4   1    3.91    0.47
 -12   4   1    3.49    0.44
  -8  12   1    3.26    0.50
   8 -12   1    3.58    0.46
   8 -12  -1    3.20    0.42
   4   8  -1    4.60    0.66
  -4  -8  -1    2.43    0.42
 -12   4  -1    3.13    0.45
  12  -4  -1    3.14    0.45
  -8  12  -1    3.23    0.47
 -12   4  -1    3.17    0.44
 -12   3   1   -0.40    0.12
  -9  12   1    0.17    0.09
 -12   3   1    0.14    0.09
   3   9   1    0.15    0.09
   9 -12   1    0.19    0.09
  12  -3   1   -0.08    0.10
 -12   3  -1    0.02    0.09
 -12   3  -1    0.51    0.12
  -9  12  -1    0.07    0.09
  12  -3  -1   -0.09    0.09
   9 -12  -1    0.12    0.08
  -3  -9  -1    0.03    0.13
   0   0   2   86.19    2.78
  -1   0   2  214.42    7.09
   1  -1   2  202.90    6.85
  -1   0   2  185.86    7.32
  -1   1   2  227.92    7.01
   1   0   2  196.10    6.85
   0  -1   2  216.46    6.86
   0   1   2  236.53    7.33
   1  -1   2  208.53    7.31
   0  -1   2  215.90    7.31
  -1   1  -2  233.30    7.02
   0   1  -2  184.56    7.50
   0   1  -2  201.70    7.03
   1  -1  -2  203.61    7.50
  -1   1  -2  229.98    7.51
   0  -1  -2  233.07    7.02
   1  -1  -2  203.98    6.84
   0  -1  -2  212.85    7.01
  -1   0  -2  229.97    7.02
   1   0  -2  223.64    7.50
  -1   0  -2  239.25    7.50
   0  -1  -2  205.89    7.52
  -2   1   2   50.24    1.78
  -1  -1   2   53.10    1.74
  -1  -1   2   54.48    1.78
  -2   1   2   49.80    1.92
   2  -1   2   51.86    1.76
   2  -1   2   46.24    1.90
  -1  -1   2   50.09    1.92
   1  -2   2   53.52    1.78
   1  -2   2   52.03    1.83
   1   1   2   49.39    1.91
  -1   2   2   54.12    1.85
  -2   1  -2   51.91    1.88
  -1   2  -2   50.78    1.79
   1  -2  -2   52.34    1.74
   2  -1  -2   52.42    1.89
  -1   2  -2   48.45    1.97
   2  -1  -2   52.10    1.78
   1   1  -2   51.44    1.95
  -2   1  -2   49.21    1.81
  -1  -1  -2   51.77    1.96
   0  -2   2  231.98    7.56
   2   0   2  234.68    7.53
  -2   2   2  247.01    7.75
   2   0   2  212.80    8.13
   2  -2   2  229.17    7.57
   2  -2   2  230.07    8.04
   0  -2   2  224.15    8.05
   0   2   2  241.58    8.05
  -2   0   2  254.63    7.69
  -2   0   2  207.97    8.14
  -2   2   2  245.21    8.07
  -2   2  -2  254.88    7.76
   2  -2  -2  231.99    7.56
  -2   2  -2  232.76    8.26
  -2   0  -2  238.37    8.24
   0  -2  -2  246.54    7.75
   0   2  -2  249.50    7.70
   2   0  -2  251.67    8.24
   0  -2  -2  240.44    7.51
   2  -2  -2  208.29    8.26
  -1   3   2  171.60    5.46
   1  -3   2  168.48    5.60
  -2  -1   2  162.67    5.32
   3  -2   2  152.44    5.71
  -3   2   2  168.94    5.45
  -3   2   2  165.59    5.75
   2   1   2  163.97    5.26
   3  -2   2  162.25    5.34
  -1   3   2  177.59    5.61
  -2  -1   2  167.41    5.37
  -2  -1   2  143.86    5.78
   1  -3   2  158.62    5.32
  -3   2  -2  176.04    5.47
   1  -3  -2  148.24    5.95
  -2  -1  -2  163.71    5.44
   3  -2  -2  166.95    5.35
  -3   2  -2  172.80    5.75
   2   1  -2  162.75    5.81
   3  -2  -2  157.81    5.77
   1  -3  -2  169.29    5.28
  -1   3  -2  165.49    5.43
  -2  -1  -2  149.49    5.85
   3  -1   2  159.62    5.24
  -1  -2   2  146.03    5.65
   1   2   2  150.00    5.60
  -1  -2   2  164.10    5.25
  -2   3   2  175.72    5.54
  -3   1   2  163.87    5.33
   2  -3   2  167.79    5.51
   2  -3   2  167.50    5.27
  -1  -2  -2  166.04    5.17
   2  -3  -2  162.28    5.24
  -3   1  -2  170.77    5.65
  -2   3  -2  152.26    5.36
   1   2  -2  150.40    5.81
  -1  -2  -2  164.40    5.37
   3  -1  -2  170.46    5.66
  -3   1  -2  172.20    5.39
   2  -3  -2  146.59    5.81
  -1  -2  -2  148.66    5.85
   0  -3   2   44.34    1.73
   0  -3   2   42.88    1.90
   0   3   2   45.95    1.68
   3   0   2   46.44    1.60
  -3   3   2   45.99    1.74
   3  -3   2   46.67    1.69
  -3   0   2   46.58    1.91
   0  -3   2   46.00    1.63
  -3   0   2   46.29    1.60
  -3   3   2   45.60    1.68
  -3   0  -2   46.65    1.74
   0  -3  -2   46.90    1.68
   0  -3  -2   46.05    1.97
  -3   3  -2   46.21    1.78
   0   3  -2   45.39    1.62
  -3   0  -2   46.47    1.67
   3  -3  -2   45.30    1.64
  -3   3  -2   45.77    1.68
   3   0  -2   45.99    1.70
   3  -3  -2   45.22    1.81
   0  -3  -2   45.40    1.56
   1  -4   2  144.81    6.10
  -4   3   2  162.43    5.87
  -3  -1   2  171.77    5.43
  -1   4   2  170.49    5.56
  -3  -1   2  150.56    5.99
   1  -4   2  164.37    5.70
  -1   4   2  175.60    5.66
   1  -4   2  166.65    5.42
   4  -3   2  167.81    5.46
  -3  -1   2  165.79    5.45
  -4   3   2  173.77    5.56
   3   1   2  168.43    5.36
  -1   4  -2  174.25    5.53
  -3  -1  -2  151.82    5.93
   4  -3  -2  157.58    5.88
   1  -4  -2  167.63    5.36
   1  -4  -2  146.70    6.14
  -3  -1  -2  172.20    5.54
  -3  -1  -2  146.01    5.96
   4  -3  -2  173.61    5.46
   3   1  -2  168.91    5.88
  -4   3  -2  176.86    5.58
  -4   3  -2  168.46    5.82
  -2  -2   2   40.87    1.82
   2  -4   2   44.13    1.59
  -2  -2   2   41.95    1.52
  -4   2   2   43.13    1.82
  -2   4   2   43.13    1.62
  -2   4   2   44.66    1.55
   4  -2   2   41.89    1.59
   2  -4   2   43.42    1.52
  -4   2   2   39.62    1.57
   2  -4   2   41.31    1.86
  -2  -2   2   41.48    1.56
  -2  -2  -2   43.32    1.49
  -2  -2  -2   43.59    1.86
   2   2  -2   44.79    1.78
  -2   4  -2   42.45    1.61
   2  -4  -2   42.26    1.90
   4  -2  -2   42.83    1.60
   2  -4  -2   43.37    1.54
   4  -2  -2   43.76    1.60
  -2  -2  -2   43.13    1.60
  -4   2  -2   40.48    1.77
  -4   2  -2   43.76    1.63
  -4   2  -2   40.48    1.56
   3  -4   2  178.09    5.78
   4  -1   2  183.47    5.76
   3  -4   2  178.13    6.01
  -3   4   2  186.12    6.07
  -1  -3   2  153.51    6.21
   1   3   2  169.99    6.13
   3  -4   2  163.31    6.36
  -1  -3   2  175.30    6.44
  -4   1   2  186.15    5.85
  -4   1   2  170.40    6.36
  -1  -3   2  178.65    5.75
  -3   4   2  182.91    5.92
  -4   1  -2  183.37    5.90
  -1  -3  -2  151.74    6.47
   3  -4  -2  155.50    6.40
  -1  -3  -2  184.20    5.67
  -3   4  -2  182.54    5.92
   1   3  -2  178.32    5.81
  -4   1  -2  168.26    6.16
   3  -4  -2  176.33    5.76
   4  -1  -2  183.10    5.78
  -1  -3  -2  183.58    5.89
   4  -1  -2  181.28    6.15
   4  -4   2  122.06    4.42
   0   4   2  136.18    4.33
   4   0   2  128.67    4.18
   0  -4   2  124.94    4.85
  -4   4   2  126.82    4.34
  -4   4   2  128.01    4.52
  -4   0   2  131.04    4.24
   4  -4   2  126.72    4.25
   0  -4   2  120.28    4.20
  -4   0   2  120.94    4.76
   0   4   2  126.07    4.40
   0  -4   2  120.78    4.51
  -4   0  -2  130.47    4.31
   0  -4  -2  129.15    4.13
  -4   4  -2  131.25    4.62
  -4   4  -2  127.82    4.34
   4  -4  -2  123.37    4.23
  -4   0  -2  121.27    4.75
   0  -4  -2  117.96    4.90
   4   0  -2  131.80    4.23
  -4   0  -2  119.23    4.56
   0   4  -2  126.40    4.25
   4   0  -2  128.12    4.48
   4  -4  -2  121.55    4.68
   4   1   2   20.53    0.85
   5  -4   2   20.58    0.94
  -5   4   2   21.14    1.05
   1  -5   2   19.35    1.19
  -5   4   2   20.28    0.93
  -1   5   2   20.55    0.93
   1  -5   2   19.60    0.89
   1  -5   2   19.94    0.86
   5  -4   2   19.68    0.96
  -1   5   2   21.33    0.81
  -4  -1   2   19.70    0.83
  -4  -1   2   20.79    1.20
  -4  -1  -2   22.47    1.05
  -4  -1  -2   21.87    1.18
   4   1  -2   20.04    0.89
  -5   4  -2   19.45    0.87
  -5   4  -2   19.48    0.93
  -4  -1  -2   19.40    0.90
   4   1  -2   20.51    0.90
   5  -4  -2   20.74    0.93
  -1   5  -2   19.52    0.88
   5  -4  -2   22.41    1.00
   1  -5  -2   20.38    0.83
   1  -5  -2   20.88    1.27
  -3  -2   2  153.19    4.95
   2  -5   2  149.66    4.96
   3   2   2  151.05    4.86
  -5   3   2  151.78    5.06
  -3  -2   2  139.10    5.53
   2  -5   2  133.52    5.65
   5  -3   2  151.58    4.99
  -2   5   2  153.07    5.09
  -2   5   2  152.73    5.09
  -5   3   2  147.38    5.48
  -3  -2   2  152.22    4.97
  -5   3  -2  157.03    5.22
  -3  -2  -2  140.25    5.59
   5  -3  -2  153.89    5.00
  -3  -2  -2  145.33    5.45
  -2   5  -2  152.08    5.07
   5  -3  -2  146.48    5.30
   3   2  -2  148.56    5.43
   2  -5  -2  154.60    4.91
  -5   3  -2  151.55    5.09
   2  -5  -2  134.80    5.71
  -3  -2  -2  152.48    5.05
  -5   3  -2  140.44    5.39
  -2  -3   2  227.93    7.12
   3  -5   2  230.21    7.16
  -2  -3   2  221.94    7.92
  -2  -3   2  206.49    7.80
  -3   5   2  228.20    7.45
   2   3   2  217.85    7.67
   3  -5   2  194.05    7.94
  -5   2   2  226.92    7.26
  -2  -3   2  222.46    7.20
   5  -2   2  221.76    7.15
  -5   2   2  217.86    7.89
  -3   5   2  227.62    7.33
   5  -2  -2  219.69    7.61
  -5   2  -2  230.37    7.31
   3  -5  -2  181.76    7.99
  -3   5  -2  227.32    7.32
  -2  -3  -2  186.98    8.01
   3  -5  -2  224.45    7.12
  -2  -3  -2  224.50    7.03
  -5   2  -2  189.89    7.79
   5  -2  -2  223.78    7.16
  -2  -3  -2  227.58    7.28
  -4   5   2   38.06    1.55
   4  -5   2   37.71    1.70
   4  -5   2   38.94    1.52
  -5   1   2   40.06    1.47
  -1  -4   2   38.41    1.47
   1   4   2   37.37    1.54
  -5   1   2   38.64    1.86
   5  -1   2   39.44    1.49
   4  -5   2   38.87    1.42
  -1  -4   2   37.06    1.67
  -4   5   2   40.12    1.53
  -1  -4   2   38.16    1.81
   4  -5  -2   36.01    1.48
  -1  -4  -2   37.69    1.51
   1   4  -2   39.15    1.45
   5  -1  -2   38.16    1.43
  -1  -4  -2   39.57    1.40
   5  -1  -2   38.80    1.50
  -5   1  -2   38.22    1.52
  -4   5  -2   38.58    1.55
  -1  -4  -2   40.18    1.95
  -5   1  -2   36.31    1.83
  -5   0   2  159.23    5.09
  -5   5   2  155.72    5.22
   0   5   2  151.19    5.26
   5  -5   2  152.65    5.10
  -5   5   2  153.96    5.45
  -5   0   2  136.94    5.70
   5  -5   2  147.26    5.29
   0  -5   2  152.11    5.04
   0  -5   2  145.26    5.84
   0  -5   2  151.33    5.39
   5   0   2  152.81    5.02
   0   5   2  154.22    5.17
  -5   0  -2  156.01    5.17
  -5   0  -2  145.59    5.74
  -5   5  -2  155.29    5.22
   5   0  -2  154.82    5.35
   0   5  -2  154.51    5.12
   5  -5  -2  146.23    5.08
   5  -5  -2  139.64    5.64
   0  -5  -2  156.42    4.97
   0  -5  -2  141.34    5.90
   5   0  -2  148.87    5.06
  -5   5  -2  149.92    5.52
   6  -5   2  174.32    6.14
   6  -5   2  172.71    5.81
  -1   6   2  179.75    5.92
  -1   6   2  177.65    5.90
  -6   5   2  178.67    5.91
  -5  -1   2  166.75    6.51
   1  -6   2  162.92    6.66
   5   1   2  178.85    5.69
  -6   5   2  167.36    6.26
   1  -6   2  171.08    5.73
  -5  -1   2  172.39    5.78
   5   1  -2  176.03    6.14
   1  -6  -2  158.53    6.69
  -5  -1  -2  175.66    5.87
  -5  -1  -2  169.68    6.50
  -6   5  -2  176.29    5.94
   5   1  -2  177.27    5.76
  -1   6  -2  164.60    5.83
  -6   5  -2  173.60    6.15
   6  -5  -2  170.05    5.79
   6  -5  -2  152.51    6.30
   1  -6  -2  171.82    5.66
  -5  -1  -2  171.40    6.26
  -2   6   2  125.30    4.26
  -4  -2   2  125.13    4.21
   6  -4   2  121.90    4.27
   2  -6   2  113.19    4.93
   4   2   2  125.02    4.14
  -6   4   2  125.12    4.33
  -4  -2   2  126.19    4.23
  -4  -2   2  122.06    4.84
  -2   6   2  126.74    4.35
   2  -6   2  127.87    4.24
  -6   4   2  126.43    4.74
   6  -4  -2  123.67    4.27
  -4  -2  -2  125.54    4.30
  -4  -2  -2  126.31    4.76
  -6   4  -2  121.85    4.61
   4   2  -2  122.66    4.58
   2  -6  -2  118.74    5.02
  -2   6  -2  120.71    4.30
  -6   4  -2  128.38    4.39
   2  -6  -2  124.66    4.16
  -6   4  -2  123.87    4.35
   6  -4  -2  118.66    4.54
  -4  -2  -2  124.91    4.76
  -3   6   2   61.06    2.29
   6  -3   2   60.48    2.25
  -3   6   2   61.74    2.12
   3  -6   2   60.00    2.22
  -3  -3   2   61.25    2.16
  -3  -3   2   61.22    2.20
   3  -6   2   60.68    2.69
  -6   3   2   60.39    2.62
  -3  -3   2   61.52    2.61
  -6   3   2   56.73    2.22
   6  -3  -2   59.23    2.24
   3  -6  -2   58.79    2.74
  -3   6  -2   59.17    2.27
   6  -3  -2   62.54    2.23
   3  -6  -2   57.34    2.16
  -6   3  -2   59.83    2.27
  -3  -3  -2   57.31    2.22
  -3  -3  -2   60.75    2.48
   3   3  -2   60.40    2.49
  -6   3  -2   58.74    2.55
  -3  -3  -2   64.06    2.67
  -3  -3  -2   58.54    2.10
  -6   2   2  166.22    6.43
   4  -6   2  162.99    6.42
  -2  -4   2  171.91    5.70
  -4   6   2  175.47    5.90
   2   4   2  174.38    6.15
  -6   2   2  175.07    5.81
  -2  -4   2  176.08    6.30
  -4   6   2  177.08    5.95
   4  -6   2  171.80    5.75
   6  -2   2  171.91    5.74
  -2  -4   2  181.49    6.48
  -2  -4  -2  174.71    5.83
  -2  -4  -2  176.88    5.62
   6  -2  -2  173.77    5.76
  -6   2  -2  152.13    6.38
   4  -6  -2  173.65    5.72
  -4   6  -2  169.23    5.88
  -6   2  -2  178.97    5.88
   4  -6  -2  155.04    6.52
  -2  -4  -2  159.51    6.57
   5  -6   2  154.76    5.33
  -1  -5   2  152.76    5.18
   6  -1   2  153.26    5.19
  -1  -5   2  161.35    6.02
  -5   6   2  160.99    5.39
   5  -6   2  158.65    5.26
   5  -6   2  148.76    5.76
  -6   1   2  154.54    5.25
  -6   1   2  153.97    5.93
   1   5   2  154.49    5.48
  -5   6   2  150.77    5.49
  -6   1  -2  162.01    5.33
   5  -6  -2  154.22    5.22
   5  -6  -2  144.83    5.90
   6  -1  -2  163.61    5.25
  -1  -5  -2  152.52    6.10
   1   5  -2  156.10    5.24
  -6   1  -2  134.67    5.87
  -5   6  -2  159.30    5.38
  -1  -5  -2  152.23    5.09
  -6   0   2   36.71    1.43
  -6   6   2   34.61    1.54
   0  -6   2   38.10    1.96
  -6   6   2   37.36    1.60
   6  -6   2   37.03    1.54
   6   0   2   36.90    1.46
   6  -6   2   36.71    1.46
   0   6   2   37.29    1.43
   0  -6   2   35.65    1.46
  -6   0   2   35.09    1.88
   0   6   2   36.79    1.52
  -6   0  -2   36.72    1.50
   0   6  -2   34.79    1.45
  -6   0  -2   32.12    1.85
   0  -6  -2   37.98    2.00
   6  -6  -2   35.81    1.51
   6   0  -2   36.61    1.50
  -6   6  -2   35.89    1.55
   6  -6  -2   36.36    1.73
   0  -6  -2   36.63    1.39
  -6   6  -2   37.63    1.61
  -7   6   2   84.16    3.14
  -7   6   2   82.08    3.31
  -1   7   2   84.70    3.11
   7  -6   2   84.32    3.11
   1  -7   2   83.18    3.01
   1  -7   2   85.53    3.75
   7  -6   2   83.58    3.18
  -6  -1   2   92.18    3.70
   6   1   2   84.42    2.97
  -6  -1   2   84.05    3.00
  -6  -1  -2   82.43    3.08
   7  -6  -2   85.29    3.33
  -6  -1  -2   84.76    3.63
   6   1  -2   82.10    3.03
   7  -6  -2   82.86    3.08
   1  -7  -2   83.06    3.77
  -1   7  -2   81.61    3.05
  -7   6  -2   80.57    3.14
   1  -7  -2   80.84    2.92
  -7   5   2   23.57    1.10
   2  -7   2   20.81    1.40
   2  -7   2   22.17    1.04
  -7   5   2   23.15    1.25
   7  -5   2   21.42    1.08
   5   2   2   22.86    0.98
  -5  -2   2   24.71    1.41
  -5  -2   2   23.17    0.98
  -2   7   2   21.39    1.07
   2  -7  -2   21.76    1.44
  -5  -2  -2   22.79    1.34
  -5  -2  -2   22.76    1.05
   5   2  -2   23.33    1.05
  -7   5  -2   21.10    1.08
   5   2  -2   22.96    1.06
   7  -5  -2   23.60    1.11
  -5  -2  -2   23.57    1.16
  -2   7  -2   22.69    1.06
   2  -7  -2   23.43    0.99
  -7   5  -2   23.73    1.16
  -7   4   2  107.86    4.38
   3  -7   2  109.73    4.60
  -4  -3   2  115.93    4.48
  -7   4   2  107.63    3.95
  -4  -3   2  111.81    3.84
  -3   7   2  106.59    3.98
   7  -4   2  111.22    3.93
  -4  -3   2  113.47    3.85
   3  -7   2  112.48    3.88
   4   3   2  111.77    3.77
  -4  -3  -2  113.18    3.94
   7  -4  -2  113.43    3.93
  -4  -3  -2  107.31    4.32
  -3   7  -2  110.40    3.97
   3  -7  -2  102.93    4.60
  -7   4  -2  113.24    4.00
   3  -7  -2  111.31    3.82
   4   3  -2  110.92    4.25
  -7   4  -2  110.20    4.31
  -4  -3  -2  116.25    4.42
   4  -7   2  120.95    4.88
  -3  -4   2  122.32    4.74
  -3  -4   2  124.13    4.19
   3   4   2  122.06    4.58
   7  -3   2  123.28    4.26
  -7   3   2  122.42    4.83
  -3  -4   2  121.39    4.18
  -7   3   2  124.46    4.28
  -4   7   2  117.74    4.32
  -3  -4   2  126.68    4.75
   4  -7   2  117.99    4.22
  -7   3  -2  119.84    4.79
   4  -7  -2  122.45    4.19
  -3  -4  -2  122.08    4.09
  -3  -4  -2  126.42    4.93
  -3  -4  -2  123.36    4.28
   4  -7  -2  118.76    4.97
  -4   7  -2  120.68    4.33
  -7   3  -2  111.91    4.29
   7  -3  -2  125.68    4.26
   7  -2   2   33.43    1.40
   5  -7   2   30.72    1.39
  -7   2   2   32.33    1.35
  -2  -5   2   35.09    1.58
   2   5   2   33.42    1.46
   5  -7   2   34.53    1.66
  -5   7   2   32.58    1.45
  -7   2   2   31.48    1.74
  -2  -5   2   32.52    1.35
  -2  -5   2   34.41    1.72
  -2  -5  -2   32.88    1.80
  -2  -5  -2   32.57    1.27
   5  -7  -2   33.90    1.75
   7  -2  -2   32.04    1.40
  -5   7  -2   29.16    1.41
   5  -7  -2   31.16    1.36
  -7   2  -2   34.86    1.43
   2   5  -2   32.59    1.32
  -2  -5  -2   31.94    1.38
  -7   2  -2   34.40    1.80
   1   6   2  142.62    5.00
   7  -1   2  146.48    4.89
  -1  -6   2  148.36    5.73
  -6   7   2  144.12    5.06
   6  -7   2  139.31    4.94
   1   6   2  140.20    5.09
  -7   1   2  142.31    5.64
  -1  -6   2  142.94    4.86
  -7   1   2  140.04    4.91
   6  -7  -2  136.81    5.54
   6  -7  -2  147.89    4.94
  -1  -6  -2  140.54    5.80
   1   6  -2  144.60    4.92
  -7   1  -2  146.58    5.00
  -1  -6  -2  144.94    4.78
  -6   7  -2  143.21    5.07
   7  -1  -2  139.33    4.91
  -7   1  -2  132.45    5.62
  -7   7   2   82.50    3.19
   7  -7   2   79.46    3.13
   0  -7   2   85.58    3.06
   0   7   2   82.84    3.14
   0  -7   2   88.70    3.80
  -7   0   2   85.14    3.05
  -7   0   2   85.71    3.70
   7   0   2   87.69    3.06
   7   0  -2   80.90    3.08
   0  -7  -2   79.55    2.95
  -7   7  -2   84.49    3.21
   7  -7  -2   84.72    3.44
   7  -7  -2   85.19    3.14
   0   7  -2   83.15    3.08
  -7   0  -2   90.08    3.76
  -7   0  -2   82.85    3.12
   0  -7  -2   85.34    3.81
  -7   7  -2   85.45    3.31
   1  -8   2   21.25    1.04
  -1   8   2   19.58    1.06
  -7  -1   2   21.97    1.41
  -8   7   2   20.62    1.10
  -7  -1   2   21.92    0.99
   1  -8   2   21.80    1.46
   8  -7   2   20.48    1.09
   7   1   2   20.36    0.99
   1  -8  -2   20.05    1.43
   1  -8  -2   22.01    0.98
   8  -7  -2   21.74    1.11
  -7  -1  -2   21.69    1.41
  -7  -1  -2   20.97    1.05
   7   1  -2   21.25    1.06
  -1   8  -2   20.65    1.04
  -8   7  -2   19.91    1.09
  -2   8   2  113.52    4.22
   8  -6   2  118.19    4.42
   2  -8   2  118.23    4.96
   8  -6   2  113.71    4.19
  -8   6   2  120.08    4.26
   6   2   2  117.12    4.02
  -6  -2   2  117.23    4.77
   2  -8   2  113.83    4.10
  -6  -2   2  115.61    4.07
  -8   6   2  115.26    4.51
  -2   8  -2  112.89    4.17
   2  -8  -2  114.62    4.96
  -8   6  -2  110.60    4.24
  -6  -2  -2  114.34    4.16
  -6  -2  -2  123.16    4.79
   8  -6  -2  115.40    4.17
   6   2  -2  118.90    4.11
   2  -8  -2  119.27    4.04
   8  -5   2  100.10    3.77
  -5  -3   2  100.26    3.66
  -3   8   2   99.84    3.82
   3  -8   2  108.40    3.75
  -5  -3   2  107.89    4.31
   3  -8   2  103.16    4.47
  -8   5   2  106.78    4.22
  -8   5   2  104.47    3.82
   5   3   2  104.88    3.61
  -5  -3  -2  105.16    4.24
   3  -8  -2  107.89    3.67
  -5  -3  -2  102.00    3.75
  -5  -3  -2  106.20    4.13
   5   3  -2  104.49    4.00
  -8   5  -2  104.93    3.85
   8  -5  -2  101.94    3.78
  -3   8  -2  101.77    3.80
  -8   5  -2  104.12    4.09
   3  -8  -2  106.65    4.55
  -4  -4   2   10.35    0.56
   4  -8   2   11.41    0.91
  -8   4   2   10.23    0.64
   8  -4   2   10.34    0.67
  -8   4   2   11.83    0.88
  -4  -4   2    9.89    0.61
  -4   8   2   10.09    0.67
  -4  -4   2   11.16    0.82
   4  -8   2    9.78    0.64
  -4  -4  -2   10.99    0.80
   4  -8  -2   10.75    0.92
  -8   4  -2   10.96    0.82
  -4   8  -2   10.27    0.66
  -4  -4  -2    9.97    0.62
   4  -8  -2   10.73    0.62
   4   4  -2   11.07    0.76
  -8   4  -2   10.56    0.67
   8  -4  -2   10.00    0.66
  -8   3   2   98.91    3.61
   5  -8   2  102.06    3.62
  -3  -5   2  106.15    4.01
  -3  -5   2  102.76    4.12
   8  -3   2  101.40    3.64
  -8   3   2  103.20    4.22
   5  -8   2   98.26    4.14
  -3  -5   2   97.17    3.54
   3   5   2  105.66    3.90
  -5   8   2  100.12    3.72
  -3  -5  -2   97.10    3.63
   8  -3  -2   98.10    3.63
  -8   3  -2  100.92    4.17
  -5   8  -2   97.64    3.70
   5  -8  -2  100.51    3.58
  -3  -5  -2  102.33    4.24
  -8   3  -2   92.55    3.65
  -3  -5  -2  100.53    3.46
   5  -8  -2  100.03    4.27
  -2  -6   2  108.44    4.36
  -2  -6   2  102.53    3.65
   2   6   2  103.06    3.76
  -8   2   2  104.59    4.34
  -6   8   2  101.59    3.83
   6  -8   2   99.40    3.72
  -2  -6   2  108.98    4.00
   2   6   2  104.43    3.87
   8  -2   2   99.26    3.69
  -8   2   2   99.01    3.68
   6  -8  -2  105.04    4.29
  -8   2  -2   98.24    4.31
   2   6  -2  103.18    3.66
  -8   2  -2  104.24    3.77
   8  -2  -2  103.06    3.73
  -2  -6  -2  101.38    3.55
  -6   8  -2  102.03    3.82
  -2  -6  -2  104.06    4.42
   6  -8  -2  104.10    3.71
  -7   8   2   13.45    0.82
  -8   1   2   11.59    0.67
  -1  -7   2   11.89    0.70
  -8   1   2   13.30    1.03
   8  -1   2   11.67    0.71
   1   7   2   11.32    0.72
   7  -8   2   12.24    0.77
  -1  -7   2   14.35    1.06
  -8   1  -2   12.38    0.74
  -8   1  -2   12.47    1.02
  -7   8  -2   12.46    0.82
  -7   8  -2   12.47    0.78
   8  -1  -2   11.31    0.73
   7  -8  -2   13.44    0.88
   7  -8  -2   11.55    0.73
  -1  -7  -2   12.98    1.06
   1   7  -2   12.34    0.68
  -1  -7  -2   12.64    0.65
   0  -8   2   96.31    4.20
   8  -8   2   92.65    3.51
   0  -8   2   95.54    3.42
  -8   8   2   95.76    3.58
   8   0   2   91.30    3.40
  -8   0   2   94.76    4.08
  -8   0   2   91.41    3.40
   0   8   2   90.98    3.51
  -8   0  -2   94.09    3.50
   0  -8  -2   88.59    3.30
   8   0  -2   90.67    3.44
  -8   8  -2   92.89    3.59
   8  -8  -2   93.16    3.49
  -8   0  -2   99.96    4.16
   0   8  -2   92.94    3.45
   0  -8  -2   97.01    4.25
   1  -9   2   81.93    3.13
   9  -8   2   85.09    3.26
   8   1   2   81.26    3.09
  -8  -1   2   86.00    3.77
  -1   9   2   83.87    3.25
   1  -9   2   86.30    3.92
  -8  -1   2   84.00    3.11
  -9   8   2   82.79    3.28
  -9   8  -2   80.00    3.28
  -8  -1  -2   83.25    3.20
   9  -8  -2   86.39    3.27
  -8  -1  -2   84.56    3.79
   8   1  -2   83.39    3.17
   1  -9  -2   84.09    3.05
   1  -9  -2   83.67    3.90
  -1   9  -2   81.88    3.18
   7   2   2  106.92    3.84
  -2   9   2  106.08    4.03
  -7  -2   2  104.80    4.53
  -9   7   2  111.89    4.08
   2  -9   2  104.59    4.72
   2  -9   2  108.09    3.91
   9  -7   2  111.96    4.04
  -7  -2   2  109.25    3.88
   2  -9  -2  108.06    3.82
   7   2  -2  108.06    3.92
   9  -7  -2  105.96    3.99
  -7  -2  -2  114.36    4.62
  -2   9  -2  107.13    3.99
  -7  -2  -2  108.78    3.98
   2  -9  -2  110.41    4.80
  -9   7  -2  106.20    4.07
  -3   9   2   24.98    1.31
  -9   6   2   28.40    1.35
   3  -9   2   26.15    1.27
   9  -6   2   28.22    1.42
   6   3   2   26.47    1.18
  -6  -3   2   28.56    1.21
  -6  -3   2   26.94    1.60
  -9   6   2   28.20    1.49
   3  -9   2   27.32    1.72
   9  -6   2   27.22    1.35
  -6  -3  -2   26.66    1.27
  -6  -3  -2   28.77    1.61
  -3   9  -2   25.49    1.29
   3  -9  -2   28.37    1.24
   9  -6  -2   25.20    1.31
   3  -9  -2   27.67    1.75
   6   3  -2   26.31    1.26
  -9   6  -2   26.21    1.34
  -5  -4   2   79.23    2.86
  -9   5   2   75.84    3.32
  -5  -4   2   83.18    3.42
   4  -9   2   78.61    2.94
   4  -9   2   76.99    3.54
   5   4   2   78.78    2.82
  -5  -4   2   79.46    2.91
   9  -5   2   77.64    3.00
  -9   5   2   74.04    2.96
  -4   9   2   71.43    2.99
  -5  -4  -2   81.33    3.32
   4  -9  -2   78.92    2.88
   9  -5  -2   76.93    2.99
  -5  -4  -2   77.47    2.95
  -9   5  -2   77.04    3.28
   4  -9  -2   77.46    3.59
  -4   9  -2   79.06    3.03
   5   4  -2   71.50    3.14
  -9   5  -2   79.65    3.04
  -4  -5   2   97.07    3.51
   4   5   2   94.55    3.89
   5  -9   2  100.27    3.60
  -5   9   2   98.46    3.71
  -4  -5   2  103.28    4.02
  -9   4   2   97.11    3.61
  -4  -5   2   97.19    3.53
  -9   4   2   94.77    4.08
   9  -4   2   91.79    3.60
   5  -9   2   98.20    4.18
   5  -9  -2   95.19    4.23
   9  -4  -2   95.99    3.61
   5  -9  -2   97.94    3.53
  -9   4  -2   93.98    3.64
  -5   9  -2   94.81    3.67
   4   5  -2  103.35    4.05
  -9   4  -2   96.70    4.07
  -4  -5  -2  102.53    4.14
  -4  -5  -2   97.72    3.43
  -4  -5  -2  102.15    3.62
   6  -9   2   21.40    1.12
   9  -3   2   22.34    1.13
  -3  -6   2   20.94    1.05
  -6   9   2   21.56    1.17
  -9   3   2   21.07    1.07
   6  -9   2   21.54    1.32
   3   6   2   21.55    1.14
  -3  -6   2   22.68    1.22
  -9   3   2   22.54    1.42
  -3  -6  -2   21.57    0.98
   6  -9  -2   22.39    1.10
  -3  -6  -2   21.62    1.10
  -9   3  -2   20.94    1.11
   9  -3  -2   21.87    1.14
  -3  -6  -2   21.30    1.38
   6  -9  -2   24.77    1.44
  -6   9  -2   20.88    1.15
  -9   3  -2   23.19    1.44
   9  -2   2   77.91    3.03
   7  -9   2   78.95    3.07
  -9   2   2   82.64    3.63
  -9   2   2   77.98    3.00
  -2  -7   2   87.15    3.68
  -2  -7   2   78.46    2.97
  -7   9   2   77.22    3.14
   2   7   2   78.70    3.07
  -7   9  -2   84.57    3.45
  -9   2  -2   80.04    3.09
  -2  -7  -2   82.60    2.90
  -2  -7  -2   79.57    3.65
   7  -9  -2   80.65    3.04
   9  -2  -2   79.48    3.07
   2   7  -2   79.22    2.99
  -7   9  -2   77.50    3.14
  -9   2  -2   81.13    3.63
   7  -9  -2   81.04    3.48
   8  -9   2   64.20    2.66
   1   8   2   67.17    2.67
   9  -1   2   66.31    2.60
  -9   1   2   66.46    2.56
  -1  -8   2   68.73    2.59
  -8   9   2   66.57    2.74
  -9   1   2   68.01    3.17
   8  -9  -2   66.77    2.65
   1   8  -2   65.14    2.57
   9  -1  -2   65.10    2.63
  -1  -8  -2   65.37    3.22
  -9   1  -2   69.78    3.23
  -8   9  -2   65.96    2.73
  -9   1  -2   65.70    2.64
   0  -9   2   11.78    0.74
   9   0   2   12.57    0.74
  -9   0   2   11.67    1.01
  -9   0   2   12.08    0.72
   0   9   2   12.22    0.79
  -9   9   2   11.94    0.83
   9  -9   2   11.55    0.81
   0  -9   2   12.71    1.09
  -9   0  -2   11.08    1.00
   9  -9  -2   12.84    0.82
   0  -9  -2   13.29    1.12
   9   0  -2   11.13    0.76
  -9   0  -2   12.04    0.77
   0   9  -2   12.17    0.73
  -9   9  -2   11.03    0.81
   1 -10   2   56.23    2.27
  -9  -1   2   55.50    2.79
  10  -9   2   53.63    2.37
  -1  10   2   54.28    2.35
 -10   9   2   50.97    2.37
   9   1   2   54.98    2.22
  10  -9  -2   52.87    2.35
 -10   9  -2   54.06    2.41
  -9  -1  -2   56.39    2.82
   9   1  -2   53.22    2.28
  -1  10  -2   54.23    2.28
  -9  -1  -2   54.04    2.29
   1 -10  -2   56.92    2.94
   8   2   2   20.55    1.03
   2 -10   2   20.63    1.51
   2 -10   2   20.86    1.10
 -10   8   2   19.59    1.15
  10  -8   2   20.22    1.17
  -8  -2   2   23.01    1.48
  -2  10   2   21.61    1.17
  -8  -2  -2   20.99    1.43
   2 -10  -2   19.98    1.02
   8   2  -2   20.21    1.10
  -8  -2  -2   20.54    1.10
  10  -8  -2   19.24    1.15
   2 -10  -2   23.25    1.58
 -10   8  -2   20.11    1.17
  -2  10  -2   20.18    1.08
   3 -10   2   77.97    2.98
   3 -10   2   78.52    3.69
 -10   7   2   75.67    3.08
  10  -7   2   75.79    3.07
  -7  -3   2   80.18    3.54
  -3  10   2   74.23    3.07
 -10   7  -2   76.45    3.12
  10  -7  -2   80.19    3.10
  -3  10  -2   75.64    3.05
  -7  -3  -2   75.81    3.00
   3 -10  -2   81.48    3.73
   7   3  -2   75.97    2.97
   3 -10  -2   76.61    2.90
  -7  -3  -2   81.05    3.53
   4 -10   2   70.85    2.79
 -10   6   2   68.27    2.82
  10  -6   2   73.10    2.88
  -6  -4   2   73.52    3.24
  -4  10   2   69.21    2.86
 -10   6   2   70.49    3.09
  10  -6   2   71.71    3.06
   6   4   2   70.93    3.15
 -10   6  -2   70.99    2.88
  -6  -4  -2   69.73    2.78
  -4  10  -2   67.73    2.82
  10  -6  -2   72.18    2.86
   4 -10  -2   73.68    3.44
   4 -10  -2   69.06    2.69
   6   4  -2   70.89    2.74
 -10   5   2   16.18    1.09
  -5  -5   2   16.34    0.88
   5   5   2   15.41    1.02
  -5  10   2   15.48    0.95
 -10   5   2   14.39    0.87
   5 -10   2   15.95    1.18
  -5  -5   2   14.94    1.05
  10  -5   2   14.93    0.92
   5 -10   2   13.09    0.85
  10  -5  -2   15.53    0.94
   5 -10  -2   14.53    1.15
   5   5  -2   13.91    0.93
   5 -10  -2   15.02    0.85
 -10   5  -2   16.16    1.07
 -10   5  -2   13.32    0.88
  -5  -5  -2   15.34    1.01
  -5  -5  -2   14.69    0.86
  -5  10  -2   14.31    0.90
  -4  -6   2   68.32    2.85
   4   6   2   66.87    2.77
  10  -4   2   62.61    2.60
  -6  10   2   59.57    2.65
 -10   4   2   62.46    2.56
   6 -10   2   65.79    2.61
  -4  -6   2   62.66    2.51
 -10   4   2   62.55    2.98
 -10   4  -2   64.36    3.00
   6 -10  -2   67.83    3.10
   4   6  -2   67.52    2.97
  -4  -6  -2   64.12    2.58
   6 -10  -2   62.79    2.53
  -6  10  -2   62.60    2.66
  -4  -6  -2   70.52    3.07
  10  -4  -2   65.45    2.63
 -10   4  -2   62.47    2.62
   7 -10   2   76.72    3.05
 -10   3   2   76.02    3.53
  10  -3   2   78.83    3.06
  -3  -7   2   76.65    2.96
  -7  10   2   80.97    3.17
   3   7   2   79.30    3.07
 -10   3   2   79.18    3.02
  10  -3  -2   76.58    3.06
   3   7  -2   78.32    3.54
  -7  10  -2   75.48    3.12
   7 -10  -2   77.33    3.02
   7 -10  -2   79.38    3.50
 -10   3  -2   78.61    3.57
 -10   3  -2   78.62    3.09
  -3  -7  -2   83.34    3.64
  10  -2   2   19.22    1.05
   2   8   2   19.98    1.07
 -10   2   2   21.00    1.40
  -2  -8   2   17.62    0.99
  -8  10   2   17.65    1.10
   8 -10   2   19.35    1.10
 -10   2   2   18.15    0.99
  -2  -8  -2   19.01    1.37
 -10   2  -2   18.76    1.06
  10  -2  -2   19.62    1.10
   8 -10  -2   18.86    1.06
  -8  10  -2   19.32    1.12
 -10   2  -2   18.56    1.35
   9 -10   2   59.12    2.60
 -10   1   2   60.07    3.05
  10  -1   2   62.66    2.54
  -1  -9   2   67.09    3.21
 -10   1   2   62.23    2.50
  -9  10   2   60.31    2.66
   1   9   2   63.75    2.61
   9 -10  -2   61.81    2.60
  10  -1  -2   63.91    2.60
 -10   1  -2   62.12    3.10
 -10   1  -2   62.72    2.59
  -1  -9  -2   67.65    3.24
  -9  10  -2   64.09    2.72
  10   0   2   63.58    2.54
 -10  10   2   62.43    2.69
  10 -10   2   61.01    2.64
   0  10   2   61.56    2.61
 -10   0   2   61.40    3.07
   0 -10  -2   63.74    3.23
 -10   0  -2   61.82    3.10
 -10   0  -2   61.83    2.58
  10 -10  -2   62.09    2.63
  10   0  -2   63.86    2.60
 -10  10  -2   58.95    2.67
   1 -11   2   10.75    0.73
  -1  11   2   11.18    0.77
 -10  -1   2   11.06    0.99
  11 -10   2   10.21    0.80
 -11  10   2    9.74    0.79
 -11  10  -2   10.29    0.81
  11 -10  -2    9.74    0.77
  10   1  -2   11.24    0.76
   1 -11  -2   13.34    1.14
  11  -9   2   65.68    2.74
 -11   9   2   62.75    2.73
  -9  -2   2   63.18    3.10
   2 -11   2   65.73    2.62
  -2  11   2   63.59    2.71
   9   2  -2   61.49    2.59
   2 -11  -2   64.51    3.30
  11  -9  -2   63.11    2.70
 -11   9  -2   61.04    2.72
  -9  -2  -2   62.87    2.63
  -2  11  -2   62.20    2.62
   3 -11   2   79.67    3.09
  -8  -3   2   81.92    3.63
  -3  11   2   78.47    3.20
   8   3   2   80.54    3.61
  11  -8   2   74.59    3.17
 -11   8   2   75.89    3.19
  11  -8  -2   73.49    3.15
  -8  -3  -2   80.43    3.12
  -3  11  -2   80.52    3.16
   3 -11  -2   80.81    3.84
   3 -11  -2   77.38    2.98
   8   3  -2   80.91    3.10
 -11   8  -2   75.21    3.21
   7   4   2   13.71    1.04
  -4  11   2   12.65    0.87
   4 -11   2   13.72    1.17
   4 -11   2   13.88    0.87
 -11   7   2   14.73    0.92
  -7  -4   2   13.87    1.05
  11  -7   2   13.02    0.91
 -11   7  -2   12.99    0.90
   7   4  -2   14.46    0.84
  11  -7  -2   13.86    0.93
  -7  -4  -2   14.03    0.85
   4 -11  -2   13.59    0.81
   4 -11  -2   15.50    1.24
  -4  11  -2   13.09    0.86
  -5  11   2   78.39    3.30
 -11   6   2   81.17    3.25
  11  -6   2   81.48    3.54
   6   5   2   86.64    3.59
  11  -6   2   84.69    3.31
  -6  -5   2   87.58    3.64
   5 -11   2   80.33    3.19
   5 -11   2   88.39    3.90
 -11   6   2   78.91    3.52
  11  -6  -2   80.68    3.27
  -6  -5  -2   83.22    3.21
  -5  11  -2   81.26    3.28
   5 -11  -2   81.36    3.84
   5 -11  -2   79.26    3.11
 -11   6  -2   77.49    3.27
   6   5  -2   84.17    3.17
  11  -5   2   65.18    2.71
 -11   5   2   65.23    2.67
   5   6   2   69.30    2.91
  -6  11   2   63.96    2.77
   6 -11   2   67.76    3.16
  -5  -6   2   63.78    2.59
 -11   5   2   68.86    3.08
   6 -11   2   62.05    2.64
   6 -11  -2   69.04    3.22
   6 -11  -2   66.01    2.61
  -6  11  -2   61.36    2.72
 -11   5  -2   62.51    2.71
   5   6  -2   65.74    2.93
  -5  -6  -2   68.70    3.04
  11  -5  -2   63.44    2.71
 -11   4   2   16.75    0.95
 -11   4   2   16.24    1.18
  -7  11   2   16.15    1.03
   7 -11   2   15.64    0.97
  -4  -7   2   16.12    0.92
  11  -4   2   15.02    0.95
 -11   4  -2   14.96    0.96
  -7  11  -2   15.32    0.99
   7 -11  -2   16.82    1.15
   4   7  -2   17.83    1.18
  11  -4  -2   14.77    0.97
   7 -11  -2   16.87    0.95
 -11   4  -2   15.42    1.14
  -4  -7  -2   16.70    1.18
  -7  11  -2   15.23    1.17
  11  -3   2   72.86    2.98
  -8  11   2   70.15    3.08
   8 -11   2   76.20    3.03
 -11   3   2   72.78    2.94
   3   8   2   75.76    3.02
 -11   3   2   73.77    3.47
  11  -3  -2   74.98    3.03
 -11   3  -2   73.72    3.02
 -11   3  -2   71.75    3.45
   8 -11  -2   75.05    2.97
  -8  11  -2   74.70    3.10
   3   8  -2   78.96    3.54
  -3  -8  -2   78.60    3.56
 -11   2   2   71.11    3.32
   9 -11   2   66.10    2.80
   2   9   2   67.97    2.79
 -11   2   2   67.92    2.71
  -9  11   2   64.90    2.86
  11  -2   2   68.27    2.75
  -2  -9   2   67.82    2.70
   9 -11  -2   65.52    2.77
 -11   2  -2   70.70    3.33
  -9  11  -2   65.09    2.87
   2   9  -2   73.10    3.40
  11  -2  -2   63.67    2.77
 -11   2  -2   67.22    2.79
  11  -1   2   10.94    0.70
   1  10   2    9.71    0.69
 -10  11   2   10.53    0.81
  10 -11   2   10.23    0.80
 -11   1   2   10.87    0.98
  11  -1  -2   10.44    0.74
 -11   1  -2   10.11    0.74
  10 -11  -2   10.28    0.76
 -10  11  -2    9.90    0.79
   1  10  -2   11.95    1.13
  -1 -10  -2   11.52    1.02
 -12   8   2   54.12    2.47
  12  -8   2   54.81    2.49
   8   4   2   57.72    2.81
   8   4  -2   57.98    2.39
  -4  12  -2   54.81    2.44
 -12   8  -2   54.87    2.51
  -8  -4  -2   57.48    2.42
  12  -8  -2   55.30    2.50
   4 -12  -2   55.75    2.97
   5 -12   2   47.60    2.14
   5 -12   2   48.16    2.63
 -12   7   2   46.94    2.18
  -5  12   2   49.98    2.26
  12  -7   2   47.22    2.21
   7   5   2   49.59    2.42
 -12   7  -2   46.22    2.21
   5 -12  -2   47.73    2.07
   5 -12  -2   51.93    2.70
   7   5  -2   47.83    2.09
  -5  12  -2   46.38    2.17
  -7  -5  -2   48.41    2.13
  12  -7  -2   48.38    2.23
 -12   6   2   10.23    0.74
  12  -6   2   11.03    0.88
   6   6   2   10.82    0.79
  -6  12   2    9.83    0.77
  12  -6   2   10.47    0.76
  -6  -6   2   11.53    0.89
   6 -12   2   10.49    0.75
 -12   6   2    9.86    0.77
   6   6  -2    9.57    0.66
 -12   6  -2    9.21    0.74
   6 -12  -2   12.02    0.96
   6 -12  -2   10.03    0.69
  -6  12  -2    9.11    0.70
  12  -6  -2    8.99    0.74
 -12   5   2   58.71    2.42
  12  -5   2   54.11    2.42
  -7  12   2   55.81    2.52
 -12   5   2   55.94    2.72
   7 -12   2   53.30    2.39
  12  -5   2   57.33    2.78
  12  -5  -2   52.47    2.44
  -7  12  -2   55.50    2.48
  -7  12  -2   61.21    2.91
 -12   5  -2   54.52    2.45
   7 -12  -2   58.23    2.82
   7 -12  -2   53.82    2.34
   8 -12   2   54.57    2.41
  -8  12   2   55.53    2.52
 -12   4   2   57.21    2.78
  12  -4   2   58.61    2.84
  12  -4   2   53.55    2.38
 -12   4   2   53.90    2.35
   8 -12  -2   56.69    2.37
 -12   4  -2   53.06    2.40
   4   8  -2   58.21    2.78
  12  -4  -2   54.51    2.43
  -8  12  -2   52.08    2.45
   0   0   3    0.06    0.03
   0   0   3    0.17    0.05
   0   0  -3    0.12    0.03
   0   0  -3    0.17    0.05
  -1   0   3   35.66    1.24
  -1   1   3   35.95    1.34
   0   1   3   35.84    1.33
   0  -1   3   35.47    1.24
   1   0   3   37.14    1.19
  -1   0   3   36.68    1.21
   1  -1   3   34.96    1.33
   0  -1   3   36.23    1.33
  -1   0   3   34.16    1.35
   1  -1   3   35.57    1.23
   0  -1  -3   36.48    1.19
  -1   0  -3   37.00    1.27
   0   1  -3   35.95    1.38
   1  -1  -3   35.74    1.22
   0  -1  -3   36.25    1.39
   0   1  -3   36.13    1.21
  -1   1  -3   35.73    1.36
   0  -1  -3   35.07    1.27
  -1   0  -3   35.93    1.36
  -1  -1   3    0.96    0.12
  -1   2   3    1.00    0.12
   1   1   3    1.00    0.14
   1  -2   3    1.15    0.13
  -1  -1   3    1.12    0.15
  -1   2   3    1.21    0.11
   1  -2   3    1.25    0.10
  -2   1   3    1.34    0.16
   2  -1   3    1.10    0.14
  -2   1   3    1.24    0.10
   2  -1   3    1.15    0.10
   2  -1  -3    1.07    0.11
  -1  -1  -3    1.31    0.12
   1  -2  -3    1.26    0.17
  -1   2  -3    1.34    0.11
  -2   1  -3    1.15    0.13
   1   1  -3    1.13    0.14
  -2   1  -3    1.18    0.10
  -1   2  -3    1.28    0.16
  -1  -1  -3    1.15    0.15
   2  -1  -3    1.47    0.12
   1  -2  -3    1.10    0.09
   0  -2   3   32.12    1.21
   2  -2   3   31.61    1.20
  -2   0   3   31.32    1.09
  -2   0   3   32.27    1.16
   0   2   3   33.10    1.21
  -2   2   3   29.95    1.21
   0  -2   3   30.81    1.15
   2  -2   3   32.10    1.16
   2   0   3   32.25    1.10
  -2   2   3   33.54    1.18
   0   2  -3   31.74    1.11
   0   2  -3   30.17    1.30
   0  -2  -3   31.10    1.05
   2   0  -3   31.95    1.23
  -2   2  -3   31.71    1.17
   2  -2  -3   32.05    1.14
   0  -2  -3   30.64    1.31
   0  -2  -3   31.57    1.18
  -2   2  -3   32.30    1.25
  -2   0  -3   31.26    1.18
  -2   0  -3   31.64    1.22
   2  -2  -3   31.52    1.26
  -1   3   3    8.77    0.46
   2   1   3    9.33    0.38
  -3   2   3    9.11    0.45
   1  -3   3    9.53    0.42
  -1   3   3    9.48    0.43
  -2  -1   3    9.47    0.37
  -3   2   3    8.58    0.50
  -2  -1   3    9.91    0.47
   3  -2   3    9.22    0.49
   3  -2   3    9.81    0.47
   1  -3   3    9.26    0.46
  -2  -1   3    8.87    0.54
   2   1   3    9.27    0.53
   3  -2  -3    8.88    0.45
  -3   2  -3    9.31    0.44
  -3   2  -3    9.82    0.48
   3  -2  -3    9.87    0.47
  -2  -1  -3    9.24    0.46
  -1   3  -3    9.53    0.44
  -2  -1  -3    9.56    0.51
   1  -3  -3    9.27    0.40
   1  -3  -3   10.32    0.59
   2   1  -3    9.19    0.49
  -1  -2   3   21.92    0.83
   3  -1   3   20.60    0.80
  -3   1   3   20.43    0.95
   1   2   3   20.47    0.88
  -2   3   3   21.42    0.83
  -3   1   3   20.20    0.78
  -2   3   3   19.47    0.83
   3  -1   3   20.47    0.94
  -1  -2   3   19.74    0.90
   2  -3   3   20.69    0.80
   2  -3   3   21.00    0.83
  -3   1  -3   20.02    0.81
   1   2  -3   20.51    0.74
   1   2  -3   20.86    0.94
   2  -3  -3   20.09    0.79
  -3   1  -3   20.35    0.84
   3  -1  -3   19.99    0.82
   3  -1  -3   19.77    0.82
  -1  -2  -3   22.01    0.71
   2  -3  -3   21.33    0.96
  -1  -2  -3   19.04    0.82
  -2   3  -3   20.20    0.93
  -1  -2  -3   20.96    0.97
  -2   3  -3   20.80    0.83
   0  -3   3   37.01    1.38
  -3   3   3   37.48    1.45
   0   3   3   36.46    1.42
  -3   3   3   37.74    1.41
   3  -3   3   39.08    1.40
  -3   0   3   36.78    1.58
   3  -3   3   38.12    1.42
   3   0   3   37.10    1.57
   0  -3   3   37.27    1.44
  -3   0   3   37.33    1.32
   3   0   3   38.95    1.33
  -3   0  -3   36.93    1.45
   0  -3  -3   37.62    1.27
   0  -3  -3   39.02    1.42
  -3   3  -3   37.44    1.48
  -3   3  -3   36.09    1.41
  -3   0  -3   37.28    1.41
   0   3  -3   38.11    1.34
   3  -3  -3   36.79    1.51
   3   0  -3   38.27    1.39
   0   3  -3   37.55    1.62
   3  -3  -3   37.72    1.38
   3   0  -3   38.19    1.44
   0  -3  -3   36.66    1.62
   4  -3   3   28.12    1.16
  -4   3   3   29.61    1.17
   3   1   3   28.72    1.06
  -3  -1   3   28.49    1.14
   4  -3   3   29.61    1.23
   3   1   3   30.17    1.35
  -3  -1   3   29.25    1.06
   1  -4   3   30.00    1.16
  -1   4   3   29.65    1.18
   1  -4   3   29.78    1.13
  -4   3   3   29.14    1.27
  -1   4   3   29.65    1.12
  -3  -1   3   28.00    1.35
   3   1  -3   29.39    1.21
  -3  -1  -3   29.16    1.17
  -3  -1  -3   29.88    1.27
  -1   4  -3   29.52    1.14
   4  -3  -3   29.04    1.16
   4  -3  -3   29.22    1.21
   1  -4  -3   29.74    1.43
   1  -4  -3   29.56    1.07
  -4   3  -3   29.49    1.16
  -1   4  -3   28.00    1.40
  -4   3  -3   29.15    1.18
   2   2   3   54.70    2.13
   2  -4   3   57.26    1.97
   4  -2   3   51.62    2.15
  -2  -2   3   55.44    1.95
  -2   4   3   54.82    2.00
  -4   2   3   51.66    1.94
  -2  -2   3   52.90    2.19
  -2  -2   3   52.89    1.87
  -2   4   3   56.26    1.97
  -4   2   3   55.92    2.19
   2  -4   3   55.40    1.94
   4  -2   3   54.42    1.95
  -2  -2  -3   55.16    2.22
  -4   2  -3   55.35    1.99
  -2   4  -3   52.78    1.97
   2   2  -3   56.33    2.17
  -2  -2  -3   55.25    1.99
   2  -4  -3   54.34    1.90
  -2   4  -3   53.29    2.25
   4  -2  -3   57.09    1.98
   4  -2  -3   58.38    2.04
  -4   2  -3   53.68    2.00
   2  -4  -3   54.23    2.27
  -4   1   3   36.35    1.29
  -1  -3   3   34.07    1.46
   4  -1   3   36.17    1.57
  -1  -3   3   33.38    1.32
   1   3   3   35.00    1.40
   3  -4   3   35.90    1.30
  -3   4   3   33.70    1.36
   4  -1   3   35.57    1.31
  -3   4   3   34.74    1.34
   3  -4   3   35.66    1.35
  -1  -3  -3   35.56    1.21
   3  -4  -3   35.28    1.54
  -3   4  -3   35.43    1.37
  -1  -3  -3   33.21    1.59
   1   3  -3   34.42    1.55
   4  -1  -3   34.57    1.34
  -4   1  -3   35.77    1.32
  -3   4  -3   34.48    1.50
   1   3  -3   34.32    1.25
   3  -4  -3   35.26    1.31
  -1  -3  -3   35.23    1.36
   4  -1  -3   34.19    1.33
  -4   0   3   30.45    1.47
   0  -4   3   29.39    1.20
   4   0   3   31.56    1.17
   0   4   3   31.18    1.22
   0  -4   3   31.21    1.28
  -4   0   3   29.95    1.13
   4  -4   3   32.24    1.25
  -4   4   3   30.96    1.25
   4   0   3   29.78    1.44
   0   4   3   29.58    1.23
   4  -4   3   31.57    1.22
  -4   4   3   30.61    1.28
  -4   4  -3   30.20    1.29
   0  -4  -3   29.74    1.09
   4  -4  -3   32.42    1.36
   4   0  -3   30.88    1.22
   4   0  -3   31.52    1.22
   4  -4  -3   31.36    1.22
  -4   0  -3   31.66    1.26
   0  -4  -3   29.64    1.51
  -4   0  -3   29.59    1.23
   0   4  -3   28.79    1.47
  -4   4  -3   29.05    1.24
   0   4  -3   31.57    1.17
   5  -4   3    2.50    0.29
   1  -5   3    2.62    0.20
  -1   5   3    2.88    0.19
   4   1   3    3.15    0.21
  -4  -1   3    2.51    0.41
  -4  -1   3    2.66    0.19
   4   1   3    2.70    0.39
   5  -4   3    2.84    0.25
   1  -5   3    2.51    0.27
   1  -5   3    2.83    0.43
  -5   4   3    2.75    0.25
  -5   4   3    2.73    0.34
  -4  -1  -3    2.90    0.26
   4   1  -3    2.62    0.28
  -4  -1  -3    2.66    0.25
   1  -5  -3    2.75    0.19
   5  -4  -3    2.78    0.24
   1  -5  -3    3.91    0.52
  -5   4  -3    2.73    0.30
  -5   4  -3    2.88    0.21
  -1   5  -3    2.76    0.23
   5  -4  -3    3.10    0.27
   4   1  -3    2.80    0.22
   5  -3   3   13.03    0.67
  -3  -2   3   14.06    0.66
   2  -5   3   13.70    0.67
   3   2   3   13.67    0.57
  -3  -2   3   12.84    0.56
  -5   3   3   12.78    0.64
  -2   5   3   13.31    0.56
   3   2   3   13.61    0.79
  -2   5   3   12.45    0.66
   2  -5   3   14.05    0.55
   5  -3   3   13.31    0.75
  -5   3   3   14.00    0.81
  -3  -2   3   12.27    0.81
  -5   3  -3   13.14    0.57
  -5   3  -3   13.51    0.69
   2  -5  -3   13.44    0.60
  -3  -2  -3   12.22    0.64
   3   2  -3   13.55    0.71
   2  -5  -3   13.61    0.88
  -2   5  -3   13.19    0.66
   5  -3  -3   14.09    0.63
  -3  -2  -3   12.99    0.78
   5  -3  -3   14.30    0.69
  -3   5   3    7.22    0.46
   5  -2   3    8.14    0.46
  -2  -3   3    7.53    0.37
   3  -5   3    7.05    0.45
   3  -5   3    7.34    0.33
  -3   5   3    7.19    0.37
  -5   2   3    7.12    0.41
   5  -2   3    6.73    0.54
  -5   2   3    7.06    0.57
  -2  -3   3    7.13    0.43
   2   3   3    7.22    0.49
  -2  -3   3    7.62    0.55
   3  -5  -3    7.77    0.42
  -3   5  -3    6.90    0.57
   5  -2  -3    7.02    0.45
  -5   2  -3    6.85    0.44
  -2  -3  -3    7.33    0.35
   5  -2  -3    8.52    0.38
  -2  -3  -3    7.11    0.44
  -2  -3  -3    7.99    0.60
  -3   5  -3    7.04    0.45
   2   3  -3    7.53    0.54
   3  -5  -3    8.36    0.62
   5  -1   3    3.67    0.28
  -1  -4   3    3.27    0.31
  -5   1   3    4.31    0.52
  -1  -4   3    3.65    0.28
   1   4   3    3.24    0.26
  -5   1   3    3.57    0.24
   4  -5   3    3.50    0.21
  -4   5   3    3.72    0.26
   4  -5   3    3.26    0.29
  -4   5   3    3.13    0.29
  -1  -4  -3    3.59    0.29
   1   4  -3    3.36    0.23
  -4   5  -3    3.62    0.30
   5  -1  -3    3.45    0.21
  -1  -4  -3    3.64    0.21
  -5   1  -3    3.38    0.29
   4  -5  -3    3.81    0.29
   1   4  -3    3.36    0.46
  -1  -4  -3    3.57    0.49
  -4   5  -3    4.41    0.37
  -5   1  -3    3.74    0.47
   4  -5  -3    4.00    0.38
   5  -1  -3    3.63    0.30
  -5   1  -3    3.26    0.22
   5   0   3   15.00    0.69
  -5   0   3   15.32    1.00
   0   5   3   15.34    0.69
   0  -5   3   15.37    0.78
   0  -5   3   14.71    0.72
  -5   0   3   14.34    0.65
  -5   5   3   14.30    0.75
   0   5   3   14.58    0.75
   0  -5   3   14.80    0.97
   5  -5   3   14.83    0.76
   5  -5   3   14.66    0.69
  -5   5   3   15.93    0.79
  -5   0  -3   15.88    0.76
   5  -5  -3   15.17    0.85
  -5   0  -3   14.54    0.74
  -5   5  -3   14.67    0.76
  -5   5  -3   12.95    0.75
   5   0  -3   15.17    0.75
  -5   0  -3   13.31    0.91
   0  -5  -3   15.66    1.05
   5  -5  -3   14.90    0.74
   0   5  -3   14.76    0.68
   0  -5  -3   14.49    0.63
   5   0  -3   15.46    0.67
   5   1   3   19.09    0.83
   1  -6   3   19.01    0.85
  -1   6   3   19.23    0.79
   6  -5   3   18.54    0.91
  -5  -1   3   19.06    0.81
  -1   6   3   18.90    0.92
   1  -6   3   19.22    0.89
   1  -6   3   18.62    1.20
  -6   5   3   19.39    1.03
  -5  -1   3   19.34    1.20
  -6   5   3   19.39    0.93
   6  -5   3   18.30    0.93
   6  -5  -3   20.11    0.99
  -5  -1  -3   18.99    0.91
  -6   5  -3   18.69    0.94
   5   1  -3   17.67    0.88
  -5  -1  -3   20.61    1.01
  -6   5  -3   18.20    0.85
   1  -6  -3   18.26    0.80
  -5  -1  -3   18.02    1.12
  -1   6  -3   19.14    0.87
   5   1  -3   19.13    0.86
   1  -6  -3   18.80    1.26
   6  -5  -3   18.86    0.92
  -4  -2   3   19.22    0.89
   6  -4   3   19.18    0.93
  -6   4   3   19.41    1.08
  -4  -2   3   18.83    0.79
  -4  -2   3   20.61    1.19
   4   2   3   19.91    1.11
  -2   6   3   19.39    0.77
  -2   6   3   18.69    0.92
   2  -6   3   18.71    1.18
   4   2   3   19.75    0.81
  -6   4   3   19.21    0.90
   2  -6   3   18.89    0.89
   6  -4   3   19.52    1.01
   4   2  -3   19.47    0.93
  -6   4  -3   18.74    0.93
  -2   6  -3   19.24    0.90
   2  -6  -3   19.17    0.82
   6  -4  -3   20.54    0.93
   6  -4  -3   19.74    0.89
  -6   4  -3   18.54    0.79
  -4  -2  -3   19.73    1.08
  -4  -2  -3   18.31    0.89
   2  -6  -3   20.31    1.26
   6  -3   3    0.10    0.08
  -3  -3   3    0.10    0.08
  -6   3   3   -0.09    0.07
  -3  -3   3    0.22    0.05
   3  -6   3    0.01    0.04
   6  -3   3    0.31    0.14
  -6   3   3    0.17    0.06
  -3   6   3    0.12    0.07
  -3   6   3    0.21    0.03
   3   3   3    0.15    0.10
   3  -6   3    0.07    0.07
  -3  -3   3    0.14    0.06
   3  -6  -3    0.17    0.05
  -3   6  -3    0.09    0.06
  -3  -3  -3    0.36    0.13
  -3  -3  -3    0.07    0.06
  -6   3  -3    0.31    0.10
   6  -3  -3    0.41    0.11
   3  -6  -3    0.07    0.12
   6  -3  -3    0.21    0.05
   3   3  -3    0.29    0.11
  -6   3  -3    0.14    0.03
   6  -2   3    7.93    0.48
  -6   2   3    7.39    0.65
   4  -6   3    7.04    0.47
   4  -6   3    6.67    0.31
  -4   6   3    7.32    0.49
  -4   6   3    7.71    0.40
   2   4   3    7.91    0.51
  -6   2   3    7.22    0.43
  -2  -4   3    7.71    0.58
  -2  -4   3    6.88    0.45
   2   4  -3    8.08    0.62
  -6   2  -3    7.55    0.49
  -2  -4  -3    7.71    0.48
   4  -6  -3    7.04    0.44
   2   4  -3    7.25    0.39
  -6   2  -3    6.75    0.59
   6  -2  -3    7.30    0.35
  -4   6  -3    7.37    0.61
  -4   6  -3    7.08    0.48
  -2  -4  -3    7.07    0.37
  -2  -4  -3    8.48    0.70
   6  -2  -3    6.91    0.47
   4  -6  -3    7.93    0.65
  -5   6   3   21.64    1.07
  -5   6   3   23.75    1.04
  -6   1   3   23.78    1.37
  -1  -5   3   24.15    1.17
   5  -6   3   22.53    0.91
  -6   1   3   22.72    0.97
   5  -6   3   23.07    1.07
  -1  -5   3   23.06    1.02
   6  -1   3   22.46    1.01
   1   5   3   21.93    1.01
   6  -1  -3   23.92    1.06
  -6   1  -3   23.54    1.05
   6  -1  -3   22.99    0.91
  -1  -5  -3   23.10    1.06
  -5   6  -3   23.21    1.17
   5  -6  -3   22.98    1.27
   1   5  -3   21.99    0.95
  -6   1  -3   20.72    1.27
  -1  -5  -3   25.16    1.46
   5  -6  -3   22.48    1.03
  -1  -5  -3   22.84    0.91
  -5   6  -3   22.65    1.08
   6   0   3    0.96    0.16
  -6   0   3    1.17    0.29
   0   6   3    1.28    0.12
  -6   6   3    1.65    0.27
   6  -6   3    1.56    0.18
  -6   6   3    1.27    0.20
   0  -6   3    1.08    0.18
   0  -6   3    1.27    0.21
  -6   0   3    0.99    0.16
   0  -6   3    0.85    0.26
   0   6   3    0.89    0.20
   6  -6   3    1.09    0.22
  -6   0  -3    0.73    0.22
  -6   0  -3    1.14    0.21
  -6   6  -3    1.50    0.22
   0   6  -3    1.20    0.18
   6  -6  -3    1.25    0.24
   6   0  -3    0.91    0.20
   6  -6  -3    1.86    0.27
   0  -6  -3    0.78    0.25
   0  -6  -3    1.26    0.16
  -6   6  -3    1.11    0.23
   6   1   3    4.09    0.31
  -7   6   3    4.06    0.39
   7  -6   3    4.29    0.34
  -1   7   3    3.00    0.38
   1  -7   3    3.22    0.57
   7  -6   3    3.98    0.44
  -7   6   3    3.39    0.40
   1  -7   3    4.00    0.35
  -6  -1   3    4.08    0.63
  -6  -1   3    4.25    0.30
  -7   6  -3    2.89    0.39
  -6  -1  -3    3.43    0.55
  -1   7  -3    4.37    0.34
   7  -6  -3    4.09    0.37
   6   1  -3    3.45    0.39
   1  -7  -3    4.34    0.71
   7  -6  -3    4.17    0.36
  -6  -1  -3    4.14    0.36
   1  -7  -3    4.36    0.30
  -2   7   3   12.57    0.73
   2  -7   3   11.99    0.69
   2  -7   3   10.90    0.93
  -7   5   3   13.63    0.88
  -7   5   3   13.60    0.74
   7  -5   3   13.23    0.78
  -5  -2   3   12.61    0.61
   5   2   3   12.13    0.89
   7  -5   3   13.94    0.77
  -5  -2   3   12.03    0.93
   5   2   3   12.21    0.61
   5   2  -3   12.28    0.68
  -5  -2  -3   13.80    0.83
   2  -7  -3   13.36    1.05
   7  -5  -3   12.69    0.73
  -5  -2  -3   12.07    0.70
   5   2  -3   12.79    0.70
  -2   7  -3   13.77    0.72
   2  -7  -3   12.22    0.62
  -7   5  -3   11.90    0.72
   7  -4   3   18.97    1.09
   7  -4   3   19.35    0.96
  -4  -3   3   20.43    0.93
   3  -7   3   18.50    0.93
   4   3   3   19.02    0.82
  -4  -3   3   18.32    0.82
  -3   7   3   17.92    0.95
  -4  -3   3   19.53    1.20
   4   3   3   19.41    1.12
  -7   4   3   18.49    0.91
  -7   4   3   19.89    1.18
   3  -7   3   17.19    1.18
   4   3  -3   19.67    1.01
  -7   4  -3   17.80    0.95
   3  -7  -3   18.65    1.28
  -4  -3  -3   19.29    0.93
  -3   7  -3   19.27    0.95
   3  -7  -3   19.32    0.86
   7  -4  -3   21.05    0.99
  -4  -3  -3   20.04    1.16
  -3  -4   3   14.99    0.77
  -7   3   3   14.40    0.75
  -7   3   3   14.02    1.01
   7  -3   3   14.20    0.79
  -4   7   3   16.43    0.84
   3   4   3   14.47    0.87
   4  -7   3   15.41    0.81
  -3  -4   3   15.48    0.98
  -3  -4  -3   15.74    0.80
  -7   3  -3   14.62    0.80
  -3  -4  -3   15.79    1.05
   3   4  -3   15.81    0.94
   4  -7  -3   14.33    0.73
   7  -3  -3   14.67    0.80
  -4   7  -3   15.14    0.81
   4  -7  -3   15.38    1.09
  -3  -4  -3   14.37    0.66
   2   5   3    0.97    0.18
  -2  -5   3    0.33    0.12
   5  -7   3    0.96    0.20
   7  -2   3    0.59    0.14
  -2  -5   3    0.43    0.11
  -5   7   3    0.78    0.18
  -7   2   3    0.52    0.18
  -7   2   3    1.05    0.18
  -2  -5  -3    0.47    0.14
   7  -2  -3    0.73    0.17
  -7   2  -3    0.55    0.15
  -7   2  -3    0.36    0.15
  -5   7  -3    0.35    0.12
   5  -7  -3    0.53    0.12
  -2  -5  -3    0.71    0.23
  -2  -5  -3    0.81    0.12
  -5   7  -3    0.50    0.18
   2   5  -3    0.65    0.26
   5  -7  -3    0.52    0.19
   2   5  -3    0.71    0.11
  -1  -6   3   28.72    1.26
   1   6   3   28.44    1.24
   7  -1   3   29.60    1.27
   6  -7   3   29.53    1.33
  -7   1   3   28.24    1.20
  -6   7   3   28.85    1.34
  -7   1   3   29.67    1.67
   1   6   3   27.09    1.28
  -6   7  -3   27.65    1.32
   6  -7  -3   28.79    1.28
  -1  -6  -3   29.84    1.15
  -1  -6  -3   29.95    1.75
  -6   7  -3   29.40    1.43
   1   6  -3   28.03    1.20
   7  -1  -3   29.64    1.31
  -7   1  -3   28.50    1.30
  -7   1  -3   28.16    1.62
   6  -7  -3   29.46    1.56
  -7   7   3    7.75    0.58
   0  -7   3    7.81    0.77
   7   0   3    8.89    0.53
  -7   0   3    8.00    0.48
  -7   0   3    7.31    0.86
   0   7   3    8.31    0.58
   7  -7   3    8.31    0.60
   0  -7   3    7.78    0.53
   0  -7  -3    8.16    0.81
   7   0  -3    8.43    0.57
  -7   0  -3    9.01    0.80
   0   7  -3    8.28    0.51
   7  -7  -3    8.11    0.62
  -7   7  -3    8.78    0.55
  -7   7  -3    7.43    0.58
  -7   0  -3    8.26    0.57
   0  -7  -3    8.53    0.47
   7  -7  -3    8.42    0.58
  -7  -1   3    0.22    0.13
  -1   8   3    0.36    0.12
   7   1   3    0.49    0.10
  -7  -1   3    1.11    0.18
   1  -8   3    0.36    0.10
   8  -7   3    0.28    0.14
   1  -8   3    0.30    0.16
  -8   7   3    0.74    0.18
   1  -8  -3    0.54    0.22
   8  -7  -3    0.41    0.12
  -7  -1  -3    0.55    0.16
   7   1  -3    0.27    0.12
  -1   8  -3    0.37    0.09
  -8   7  -3    0.56    0.17
   1  -8  -3    0.70    0.11
   8  -6   3   13.21    0.79
   6   2   3   13.76    1.00
  -6  -2   3   12.71    0.65
   2  -8   3   12.98    1.07
  -8   6   3   12.38    0.77
   2  -8   3   13.57    0.76
  -6  -2   3   12.58    1.00
  -2   8   3   12.34    0.77
  -8   6   3   13.27    0.88
   8  -6   3   13.48    0.81
   6   2   3   13.10    0.67
  -8   6  -3   11.87    0.77
  -2   8  -3   13.13    0.74
   2  -8  -3   13.24    1.09
   2  -8  -3   12.58    0.67
   6   2  -3   13.12    0.76
   8  -6  -3   12.99    0.79
  -6  -2  -3   12.51    0.74
  -8   5   3    9.41    0.61
   8  -5   3    9.64    0.71
   5   3   3   10.43    0.81
  -8   5   3    9.75    0.76
  -5  -3   3   10.05    0.83
   5   3   3    9.35    0.51
   3  -8   3    8.16    0.80
  -5  -3   3    9.48    0.60
   8  -5   3    8.70    0.63
  -3   8   3    9.25    0.63
   3  -8   3   10.23    0.63
  -5  -3   3   10.26    0.53
   5   3  -3    8.56    0.58
  -8   5  -3    8.89    0.63
  -3   8  -3    8.92    0.60
  -5  -3  -3    9.85    0.71
   8  -5  -3    9.06    0.63
   3  -8  -3    9.56    0.55
   3  -8  -3    9.60    0.90
  -5  -3  -3    9.95    0.62
  -4   8   3    0.41    0.13
  -8   4   3    0.27    0.10
   4   4   3    0.46    0.17
   8  -4   3    0.27    0.12
  -4  -4   3    0.25    0.10
  -4  -4   3    0.23    0.07
   4  -8   3   -0.05    0.12
  -8   4   3    0.12    0.10
   8  -4   3    0.48    0.15
   4   4   3    0.59    0.09
  -4  -4   3    0.49    0.15
   4  -8   3    0.37    0.10
  -4  -4  -3    0.41    0.12
   8  -4  -3    0.27    0.11
  -4   8  -3    0.42    0.14
  -4  -4  -3    0.28    0.11
   4   4  -3    0.68    0.15
   4  -8  -3    0.05    0.13
   4  -8  -3    0.46    0.11
  -8   4  -3    0.38    0.13
   5  -8   3   12.63    0.75
  -3  -5   3   13.41    0.89
  -8   3   3   11.71    0.68
   8  -3   3   11.94    0.73
  -3  -5   3   12.58    0.71
   3   5   3   12.13    0.77
  -5   8   3   12.52    0.77
  -8   3   3   11.97    0.96
  -3  -5  -3   14.00    1.02
  -3  -5  -3   11.61    0.59
  -5   8  -3   12.57    0.76
   3   5  -3   12.20    0.88
   8  -3  -3   11.42    0.73
  -8   3  -3   12.44    0.93
  -5   8  -3   12.40    0.95
  -8   3  -3   12.58    0.75
   5  -8  -3   12.14    0.69
   5  -8  -3   14.29    1.04
  -3  -5  -3   11.46    0.71
   3   5  -3   13.16    0.64
   2   6   3    4.88    0.37
   8  -2   3    5.31    0.41
  -8   2   3    3.97    0.34
   6  -8   3    3.30    0.42
  -2  -6   3    4.80    0.43
  -8   2   3    4.54    0.67
  -6   8   3    4.37    0.49
  -2  -6   3    4.40    0.38
   2   6  -3    4.91    0.67
  -2  -6  -3    4.91    0.71
   6  -8  -3    5.11    0.66
   2   6  -3    4.72    0.33
  -6   8  -3    5.25    0.60
   6  -8  -3    4.58    0.40
  -2  -6  -3    4.93    0.32
  -8   2  -3    4.01    0.44
  -6   8  -3    4.18    0.48
   8  -2  -3    4.29    0.47
  -8   2  -3    4.10    0.62
   1   7   3    9.05    0.63
  -8   1   3   10.09    0.89
   7  -8   3    9.75    0.67
  -1  -7   3    9.27    0.61
  -7   8   3    9.56    0.67
  -8   1   3    9.31    0.56
   8  -1   3    9.66    0.61
   8  -1  -3    7.78    0.60
  -7   8  -3   10.03    0.68
   7  -8  -3   10.25    0.76
   7  -8  -3    8.42    0.61
  -7   8  -3    9.25    0.66
   1   7  -3    9.86    0.57
  -1  -7  -3   10.29    0.94
  -8   1  -3    9.85    0.65
  -8   1  -3   10.14    0.88
  -8   0   3   12.17    0.68
   0   8   3   12.70    0.78
   8  -8   3   11.57    0.78
   8   0   3   11.83    0.70
  -8   8   3   12.18    0.80
   0  -8   3   12.09    0.74
  -8   0   3   12.63    1.04
   0  -8  -3   13.40    1.11
   0   8  -3   12.48    0.71
  -8   0  -3   11.90    0.76
   8  -8  -3   13.64    0.81
   8   0  -3   12.25    0.77
  -8   8  -3   11.92    0.80
  -8   0  -3   12.86    1.04
   8   1   3    3.96    0.66
  -9   8   3    5.15    0.56
   1  -9   3    4.61    0.42
  -8  -1   3    5.21    0.76
  -1   9   3    4.85    0.45
   8   1   3    4.59    0.36
   9  -8   3    4.46    0.54
   9  -8  -3    4.55    0.53
   8   1  -3    4.59    0.51
   1  -9  -3    4.99    0.77
  -1   9  -3    4.75    0.38
  -9   8  -3    4.31    0.53
  -8  -1  -3    5.17    0.46
   7   2   3   11.96    0.67
  -7  -2   3   12.37    1.02
   2  -9   3   12.10    0.75
  -2   9   3   12.26    0.79
   2  -9   3   11.38    1.03
  -9   7   3   12.50    0.81
   9  -7   3   11.84    0.80
   7   2   3   12.21    0.99
  -9   7  -3   11.26    0.78
   9  -7  -3   12.66    0.81
  -2   9  -3   12.49    0.74
  -7  -2  -3   12.26    0.76
   2  -9  -3   11.74    0.66
   7   2  -3   11.91    0.76
   2  -9  -3   13.24    1.12
   9  -6   3    0.08    0.07
  -9   6   3    0.15    0.10
   3  -9   3    0.43    0.14
  -6  -3   3   -0.02    0.09
   6   3   3    0.15    0.13
  -9   6   3    0.19    0.10
   9  -6   3    0.23    0.10
  -3   9   3    0.01    0.07
   3  -9   3    0.23    0.15
   6   3  -3    0.24    0.10
   3  -9  -3    0.11    0.14
   3  -9  -3    0.18    0.06
  -3   9  -3    0.30    0.08
  -9   6  -3   -0.07    0.07
  -6  -3  -3   -0.05    0.06
   9  -6  -3    0.37    0.12
   9  -5   3    7.61    0.66
  -9   5   3    5.33    0.68
  -5  -4   3    6.79    0.65
  -9   5   3    6.51    0.50
   9  -5   3    7.02    0.56
  -4   9   3    6.36    0.54
  -5  -4   3    6.49    0.50
   4  -9   3    7.17    0.85
   5   4   3    7.49    0.64
   4  -9   3    6.08    0.50
  -5  -4  -3    6.31    0.50
   4  -9  -3    7.37    0.92
  -5  -4  -3    7.60    0.62
   5   4  -3    5.97    0.50
   4  -9  -3    6.56    0.46
   9  -5  -3    6.00    0.51
  -4   9  -3    6.13    0.50
  -9   5  -3    6.02    0.52
  -4  -5   3   33.94    1.72
  -9   4   3   31.33    1.77
   4   5   3   33.29    1.61
   9  -4   3   31.26    1.46
  -5   9   3   30.18    1.49
   9  -4   3   32.31    1.73
  -4  -5   3   30.43    1.40
  -9   4   3   30.96    1.41
   5  -9   3   30.40    1.45
   5  -9  -3   33.10    1.89
  -4  -5  -3   31.62    1.75
   4   5  -3   31.58    1.62
   9  -4  -3   30.81    1.47
  -5   9  -3   30.72    1.48
   5  -9  -3   30.02    1.36
  -4  -5  -3   30.38    1.42
  -9   4  -3   31.07    1.48
   3   6   3    3.36    0.41
   9  -3   3    2.71    0.38
  -3  -6   3    3.67    0.41
  -9   3   3    3.38    0.59
  -3  -6   3    3.81    0.50
  -6   9   3    3.01    0.43
   6  -9   3    3.72    0.46
  -9   3   3    3.34    0.38
  -3  -6  -3    3.47    0.56
  -6   9  -3    3.81    0.59
  -9   3  -3    3.39    0.43
  -3  -6  -3    3.15    0.40
   3   6  -3    4.44    0.60
   9  -3  -3    3.10    0.43
  -6   9  -3    3.12    0.43
   6  -9  -3    3.43    0.40
   6  -9  -3    4.31    0.62
   2   7   3    6.10    0.51
   9  -2   3    6.06    0.48
  -7   9   3    6.42    0.55
  -9   2   3    6.28    0.45
   7  -9   3    6.96    0.55
  -2  -7   3    6.33    0.49
  -9   2   3    4.87    0.73
  -7   9  -3    5.79    0.57
  -9   2  -3    6.37    0.53
  -7   9  -3    6.60    0.55
  -9   2  -3    7.59    0.88
   7  -9  -3    6.36    0.60
   9  -2  -3    5.63    0.51
   7  -9  -3    6.93    0.52
   2   7  -3    6.42    0.81
  -2  -7  -3    7.39    0.89
  -8   9   3   16.05    1.00
  -1  -8   3   16.31    0.91
   9  -1   3   17.27    0.92
   8  -9   3   16.54    0.99
  -9   1   3   16.45    0.86
   1   8   3   16.41    0.97
  -9   1   3   17.04    1.26
  -9   1  -3   15.80    0.95
  -1  -8  -3   18.46    1.35
  -8   9  -3   16.40    1.01
   1   8  -3   19.02    1.36
   9  -1  -3   16.05    0.95
   8  -9  -3   17.55    0.98
   9   0   3    0.92    0.27
  -9   9   3    0.96    0.24
   0   9   3    1.31    0.26
   9  -9   3    1.02    0.25
   0  -9   3    1.43    0.25
   9   0   3    1.07    0.17
  -9   0   3    1.04    0.31
  -9   9  -3    1.03    0.24
   9  -9  -3    1.47    0.28
   0   9  -3    0.81    0.38
   9   0  -3    1.15    0.25
   0  -9  -3    1.27    0.35
  -9   0  -3    1.29    0.27
  -9  -1   3    2.21    0.47
 -10   9   3    2.78    0.42
   9   1   3    3.75    0.64
  -1  10   3    2.94    0.45
  10  -9   3    2.95    0.44
   1 -10   3    3.49    0.45
 -10   9  -3    3.43    0.50
   1 -10  -3    2.81    0.57
  10  -9  -3    3.25    0.46
  -9  -1  -3    2.32    0.35
  -1  10  -3    2.53    0.63
   9   1  -3    3.14    0.42
  10  -8   3    0.39    0.14
 -10   8   3    0.51    0.15
  -2  10   3    0.39    0.10
   2 -10   3    0.40    0.10
  -8  -2   3    0.44    0.18
   8   2   3    0.66    0.21
  -8  -2  -3    0.41    0.12
   2 -10  -3    0.44    0.22
  -2  10  -3    0.51    0.09
 -10   8  -3    0.68    0.17
  10  -8  -3    0.78    0.16
   8   2  -3    0.72    0.17
   7   3   3    4.22    0.64
 -10   7   3    3.76    0.49
  10  -7   3    3.64    0.50
   3 -10   3    4.59    0.50
  -7  -3   3    4.40    0.67
  -3  10   3    3.28    0.47
  10  -7  -3    2.80    0.43
 -10   7  -3    3.72    0.50
   7   3  -3    3.37    0.43
   3 -10  -3    3.55    0.67
  -3  10  -3    3.16    0.41
   3 -10  -3    3.27    0.37
  -7  -3  -3    3.56    0.45
   6   4   3    4.83    0.65
  10  -6   3    4.53    0.55
 -10   6   3    5.14    0.64
  -4  10   3    5.71    0.51
  -6  -4   3    4.76    0.66
   4 -10   3    5.08    0.46
 -10   6   3    4.58    0.51
  10  -6   3    5.25    0.51
   6   4  -3    4.80    0.43
   4 -10  -3    5.42    0.80
 -10   6  -3    4.23    0.53
  -4  10  -3    4.79    0.44
   4 -10  -3    4.78    0.39
  10  -6  -3    3.81    0.50
  -6  -4  -3    5.01    0.44
 -10   5   3    2.98    0.40
  -5  -5   3    3.11    0.50
  -5  -5   3    2.53    0.35
  10  -5   3    2.85    0.47
  -5  10   3    2.60    0.40
 -10   5   3    2.06    0.41
   5   5   3    2.99    0.44
   5 -10   3    2.44    0.36
  10  -5   3    2.70    0.40
  -5  -5  -3    2.72    0.37
  -5  -5  -3    3.07    0.47
  -5  10  -3    2.26    0.55
   5 -10  -3    2.56    0.33
  10  -5  -3    2.63    0.41
   5 -10  -3    2.83    0.55
 -10   5  -3    2.26    0.37
  -5  10  -3    2.07    0.33
   5   5  -3    2.36    0.38
 -10   4   3    3.76    0.44
  -6  10   3    4.75    0.56
  -4  -6   3    5.33    0.63
   4   6   3    4.79    0.44
   6 -10   3    4.14    0.51
  -4  -6   3    4.45    0.41
 -10   4   3    4.88    0.71
  10  -4   3    4.69    0.53
  10  -4   3    4.83    0.68
   6 -10  -3    4.66    0.41
   4   6  -3    4.99    0.62
  10  -4  -3    4.59    0.54
   6 -10  -3    5.48    0.74
 -10   4  -3    4.18    0.51
  -4  -6  -3    4.94    0.66
  -6  10  -3    4.92    0.71
  -4  -6  -3    4.87    0.44
  -6  10  -3    4.61    0.53
 -10   3   3    2.14    0.44
  -3  -7   3    1.97    0.31
  10  -3   3    2.83    0.39
   7 -10   3    2.66    0.40
   3   7   3    2.83    0.37
 -10   3   3    2.23    0.32
  -7  10   3    2.51    0.42
  10  -3   3    4.03    0.65
  -3  -7  -3    2.68    0.48
   7 -10  -3    3.14    0.48
   7 -10  -3    2.47    0.35
  -7  10  -3    2.90    0.47
  10  -3  -3    2.24    0.38
 -10   3  -3    2.65    0.40
  -7  10  -3    2.45    0.39
   3   7  -3    2.94    0.51
 -10   2   3    0.01    0.07
   8 -10   3   -0.05    0.08
 -10   2   3    0.13    0.13
   2   8   3    0.10    0.07
  10  -2   3    0.15    0.07
  -2  -8   3    0.16    0.06
  -8  10   3    0.08    0.12
  10  -2   3    0.04    0.16
   2   8  -3   -0.08    0.15
   8 -10  -3    0.14    0.07
  -8  10  -3    0.02    0.08
 -10   2  -3    0.22    0.10
  -2  -8  -3    0.00    0.11
  10  -2  -3    0.23    0.09
  10  -1   3    7.81    0.57
 -10   1   3    7.85    0.98
  10  -1   3    8.44    1.01
  -1  -9   3    7.94    0.59
   9 -10   3    8.58    0.69
   1   9   3    8.35    0.63
  -9  10   3    7.82    0.66
  -1  -9  -3    8.97    0.88
   1   9  -3    8.71    1.06
  10  -1  -3    9.04    0.68
  -9  10  -3    8.09    0.67
 -10   1  -3    8.10    0.64
   9 -10  -3    7.70    0.63
 -10   0   3    5.67    0.83
  10 -10   3    6.75    0.71
 -10  10   3    6.48    0.59
   0  10   3    6.65    0.55
  10   0   3    5.71    0.87
   0 -10   3    5.98    0.52
   0  10  -3    7.21    1.02
  10   0  -3    6.68    0.55
 -10   0  -3    6.85    0.55
   0 -10  -3    4.91    0.78
  10 -10  -3    6.20    0.55
 -10  10  -3    5.75    0.67
 -10  -1   3    2.81    0.55
  10   1   3    1.76    0.42
  -1  11   3    3.29    0.44
 -11  10   3    3.29    0.48
   1 -11   3    2.94    0.41
  11 -10   3    2.25    0.37
 -10  -1  -3    3.13    0.42
  10   1  -3    2.56    0.34
 -11  10  -3    2.06    0.37
   1 -11  -3    2.01    0.45
  11 -10  -3    2.84    0.42
  -1  11  -3    3.49    0.70
  -2  11   3   11.88    0.85
  11  -9   3   12.02    0.88
 -11   9   3   12.49    0.88
   2 -11   3   11.76    0.81
   9   2   3   13.64    1.13
  -9  -2   3   13.83    1.12
   9   2  -3   13.49    0.85
   2 -11  -3   12.32    1.13
  11  -9  -3   13.20    0.91
  -2  11  -3   13.97    1.26
  -9  -2  -3   13.76    0.87
 -11   9  -3   11.67    0.88
   8   3   3    7.39    0.89
   3 -11   3    6.43    0.55
  -8  -3   3    5.87    0.82
  11  -8   3    6.13    0.67
 -11   8   3    6.34    0.55
  -3  11   3    5.91    0.55
  11  -8  -3    6.43    0.59
  -8  -3  -3    6.62    0.54
  -3  11  -3    6.44    0.50
   3 -11  -3    7.54    0.98
  -3  11  -3    6.77    1.01
 -11   8  -3    6.13    0.68
   8   3  -3    6.16    0.51
  -4  11   3    0.36    0.10
  11  -7   3    0.20    0.09
   7   4   3    0.19    0.13
  -7  -4   3    0.61    0.13
 -11   7   3    0.25    0.10
   4 -11   3    0.54    0.14
   7   4  -3    0.39    0.09
  -7  -4  -3    0.29    0.12
 -11   7  -3    0.07    0.08
  -4  11  -3    0.20    0.29
  -4  11  -3    0.57    0.09
  11  -7  -3    0.46    0.15
   4 -11  -3    0.27    0.15
  -5  11   3   13.01    0.91
  11  -6   3   13.90    0.92
  11  -6   3   14.82    1.03
  -6  -5   3   14.37    1.06
 -11   6   3   13.02    0.85
 -11   6   3   12.41    0.93
   5 -11   3   12.79    0.87
   6   5   3   15.20    1.02
 -11   6  -3   12.55    0.88
   6   5  -3   15.44    0.88
  -6  -5  -3   13.52    0.85
   5 -11  -3   14.17    0.82
   5 -11  -3   13.67    1.13
  11  -6  -3   13.47    0.92
  -5  11  -3   16.58    1.30
  -5  11  -3   13.26    0.87
  11  -5   3    1.92    0.29
 -11   5   3    2.47    0.36
   5   6   3    2.00    0.32
 -11   5   3    1.56    0.32
  11  -5   3    2.61    0.45
   6 -11   3    1.97    0.34
  -6  11   3    1.51    0.30
  -5  -6   3    2.13    0.34
  -5  -6   3    2.08    0.31
 -11   5  -3    1.77    0.32
  -6  11  -3    1.99    0.44
   5   6  -3    1.77    0.28
  -6  11  -3    3.10    0.42
  11  -5  -3    1.80    0.35
   6 -11  -3    2.21    0.32
  -5  -6  -3    2.02    0.32
   6 -11  -3    1.60    0.30
 -11   4   3    0.73    0.15
 -11   4   3    0.52    0.17
  11  -4   3    0.37    0.20
  -4  -7   3    0.54    0.14
   7 -11   3    0.32    0.10
  11  -4   3    0.59    0.12
  -7  11   3    0.72    0.20
  -4  -7  -3    0.58    0.14
 -11   4  -3    0.66    0.17
   7 -11  -3    0.55    0.11
  -7  11  -3    0.59    0.20
  -7  11  -3    0.36    0.09
   7 -11  -3    0.52    0.11
   4   7  -3    1.08    0.23
  11  -4  -3    0.69    0.20
 -11   3   3    4.31    0.39
  11  -3   3    4.75    0.41
  -8  11   3    4.95    0.61
   3   8   3    4.49    0.52
 -11   3   3    3.79    0.62
  11  -3   3    5.53    0.81
  -3  -8   3    4.63    0.51
   8 -11   3    4.17    0.54
  11  -3  -3    4.53    0.56
  -3  -8  -3    5.04    0.73
 -11   3  -3    5.11    0.58
   8 -11  -3    4.93    0.54
  -8  11  -3    4.95    0.59
   3   8  -3    4.35    0.66
  -2  -9   3    2.61    0.36
  11  -2   3    2.44    0.51
  11  -2   3    3.04    0.37
  -9  11   3    2.38    0.40
   9 -11   3    3.11    0.46
   2   9   3    3.10    0.39
 -11   2   3    2.60    0.49
  -2  -9  -3    3.32    0.55
 -11   2  -3    2.89    0.42
   2   9  -3    2.86    0.54
  11  -2  -3    3.14    0.44
  -9  11  -3    2.29    0.37
   9 -11  -3    2.06    0.31
  10 -11   3    0.42    0.14
 -11   1   3    0.39    0.16
  -1 -10   3    0.36    0.10
  11  -1   3   -0.05    0.12
   1  10   3    0.69    0.10
 -10  11   3    0.55    0.17
 -10  11  -3    0.61    0.11
   1  10  -3    0.49    0.17
  10 -11  -3    0.65    0.10
 -11   1  -3    0.65    0.13
  -1 -10  -3    1.00    0.26
  11  -1  -3    0.87    0.12
  -8  -4   3    7.12    0.86
  -4  12   3    7.25    0.61
 -12   8   3    7.02    0.60
   8   4   3    7.20    0.68
   4 -12   3    6.89    0.58
  12  -8   3    7.19    0.62
   8   4  -3    6.68    0.53
   4 -12  -3    6.95    0.93
  -4  12  -3    6.55    0.52
  12  -8  -3    6.53    0.59
  -8  -4  -3    7.47    0.58
 -12   8  -3    6.26    0.70
  -4  12  -3    7.88    1.07
   7   5   3    9.38    0.77
 -12   7   3    9.73    0.72
  -5  12   3    9.03    0.73
  -7  -5   3    8.62    0.80
   5 -12   3    9.99    0.73
  12  -7   3   11.12    0.79
   7   5  -3   10.43    0.70
 -12   7  -3    9.12    0.74
   5 -12  -3   10.00    0.94
  -7  -5  -3    9.64    0.70
  -5  12  -3    8.54    0.64
  12  -7  -3    8.71    0.73
  -5  12  -3    9.61    1.13
  -6  12   3    3.74    0.52
  12  -6   3    3.08    0.39
  12  -6   3    4.27    0.59
 -12   6   3    3.59    0.47
   6   6   3    4.06    0.38
 -12   6   3    3.44    0.47
  -6  -6   3    4.42    0.61
   6 -12   3    4.10    0.52
  -6  12  -3    3.38    0.43
   6 -12  -3    3.37    0.40
  -6  12  -3    4.57    0.73
  12  -6  -3    2.95    0.47
   6 -12  -3    2.99    0.46
   6   6  -3    3.46    0.39
  -6  -6  -3    4.33    0.51
 -12   6  -3    3.54    0.51
  -7  12   3    6.58    0.59
   7 -12   3    6.69    0.58
  12  -5   3    7.99    0.71
  12  -5   3    6.61    0.52
 -12   5   3    5.84    0.57
  -5  -7   3    6.37    0.52
 -12   5   3    6.27    0.52
   7 -12  -3    5.79    0.50
  -7  12  -3    5.63    0.50
  -7  12  -3    5.63    0.79
 -12   5  -3    5.65    0.65
  12  -5  -3    5.99    0.67
   7 -12  -3    6.67    0.62
  12  -4   3   13.69    1.11
   8 -12   3   13.69    0.93
 -12   4   3   13.26    1.03
  -8  12   3   12.40    0.91
  -4  -8   3   13.01    0.83
  12  -4   3   13.28    0.87
  -4  -8  -3   15.36    1.13
  -8  12  -3   12.79    0.87
 -12   4  -3   12.78    0.90
   8 -12  -3   13.59    0.86
   4   8  -3   14.23    1.05
  12  -4  -3   13.56    0.93
   0   0   4   44.32    1.72
   0   0   4   44.77    1.56
   0   0  -4   49.95    1.78
   0   0  -4   46.47    1.60
   1  -1   4    0.66    0.09
  -1   1   4    0.57    0.10
   1  -1   4    0.45    0.09
  -1   0   4    0.86    0.13
  -1   0   4    0.74    0.05
   1   0   4    0.42    0.09
  -1   0   4    0.58    0.09
   0  -1   4    0.73    0.11
   1   0   4    0.65    0.05
   0  -1   4    0.71    0.10
  -1   1   4    0.67    0.09
   0   1   4    0.53    0.10
  -1   1  -4    0.88    0.09
   0  -1  -4    0.51    0.04
   0  -1  -4    0.53    0.11
   0   1  -4    0.62    0.05
   0   1  -4    0.98    0.14
   1   0  -4    0.60    0.11
  -1   0  -4    0.48    0.08
  -1   1  -4    0.46    0.09
  -1   0  -4    0.62    0.10
   1  -1  -4    0.91    0.08
   0  -1  -4    0.62    0.09
   1  -1  -4    0.62    0.11
  -1   2   4  646.08   19.48
  -2   1   4  613.56   19.39
   2  -1   4  545.72   19.35
   2  -1   4  546.70   18.07
   1  -2   4  522.56   18.09
   1  -2   4  573.98   19.58
  -1   2   4  591.20   18.53
   1   1   4  598.39   19.37
  -2   1   4  622.40   18.57
  -1  -1   4  521.86   19.34
   2  -1  -4  568.69   19.80
  -1   2  -4  560.92   18.49
   1   1  -4  565.00   19.83
  -1  -1  -4  599.08   19.84
  -1   2  -4  564.38   19.84
   1  -2  -4  523.23   19.83
  -2   1  -4  625.21   18.69
   2  -1  -4  525.51   18.09
   1  -2  -4  513.07   18.05
  -2   0   4    0.16    0.03
   0  -2   4    0.59    0.10
   0  -2   4    0.28    0.07
   2   0   4    0.07    0.02
  -2   0   4    0.07    0.04
  -2   2   4    0.21    0.05
   2  -2   4    0.21    0.06
   0   2   4    0.33    0.08
  -2   0   4    0.07    0.04
   2   0   4    0.11    0.05
  -2   2   4    0.11    0.05
   2  -2   4    0.13    0.05
   2  -2  -4    0.12    0.06
   0  -2  -4    0.15    0.02
   0  -2  -4    0.28    0.08
  -2   2  -4    0.37    0.08
   0  -2  -4    0.19    0.07
   0   2  -4    0.07    0.05
  -2   0  -4    0.31    0.07
  -2   0  -4    0.19    0.06
   0   2  -4    0.16    0.03
   2   0  -4    0.08    0.04
  -1   3   4   23.20    0.94
  -1   3   4   22.86    0.94
  -3   2   4   23.64    1.02
   3  -2   4   23.01    0.99
  -2  -1   4   23.53    0.93
   2   1   4   22.35    1.02
   3  -2   4   24.69    0.92
  -2  -1   4   22.64    0.80
  -3   2   4   23.60    0.91
   1  -3   4   23.44    0.93
   2   1   4   24.69    0.81
   1  -3   4   24.10    0.93
  -2  -1   4   22.95    1.04
   1  -3  -4   23.92    0.84
  -3   2  -4   23.14    0.95
   3  -2  -4   23.59    0.98
   1  -3  -4   22.36    1.07
  -1   3  -4   23.18    1.07
  -3   2  -4   22.71    0.94
  -1   3  -4   23.61    0.89
  -2  -1  -4   22.72    0.94
  -2  -1  -4   23.21    1.01
   2   1  -4   22.68    1.00
   3  -2  -4   23.46    0.92
   3  -1   4    2.83    0.20
   3  -1   4    3.10    0.26
  -1  -2   4    2.53    0.23
  -2   3   4    2.82    0.22
   1   2   4    2.94    0.24
  -3   1   4    2.28    0.28
  -2   3   4    2.47    0.20
  -1  -2   4    2.62    0.21
   2  -3   4    2.80    0.22
  -3   1   4    2.48    0.17
   2  -3   4    2.65    0.19
  -1  -2  -4    2.94    0.22
   2  -3  -4    2.97    0.27
   1   2  -4    2.63    0.25
  -3   1  -4    2.84    0.22
   3  -1  -4    2.73    0.21
  -2   3  -4    3.53    0.23
   2  -3  -4    2.98    0.19
  -1  -2  -4    3.20    0.27
   3  -1  -4    3.01    0.21
   1   2  -4    2.92    0.14
  -3   1  -4    2.65    0.19
  -2   3  -4    4.16    0.29
  -3   0   4  308.92    9.72
   0   3   4  314.06   10.24
  -3   3   4  316.04   10.27
   3  -3   4  296.48   10.22
  -3   3   4  319.75    9.85
   0  -3   4  296.46    9.62
   0  -3   4  289.33   10.23
   3   0   4  281.53   10.35
  -3   0   4  272.87   10.36
   3  -3   4  305.87    9.64
   3   0   4  282.70    9.54
   0  -3  -4  264.77   10.60
   3  -3  -4  278.21   10.52
  -3   3  -4  318.72    9.86
  -3   3  -4  306.61   10.50
   3   0  -4  312.61   10.48
  -3   0  -4  322.20    9.86
   0   3  -4  253.56   10.57
   3  -3  -4  288.40    9.60
  -3   0  -4  303.85   10.47
   3   0  -4  295.89    9.62
   0  -3  -4  299.82    9.49
   0  -3  -4  315.60    9.86
   0   3  -4  305.44    9.75
   3   1   4    6.73    0.32
  -4   3   4    6.26    0.43
  -3  -1   4    6.61    0.40
   1  -4   4    6.63    0.35
  -1   4   4    5.96    0.39
  -4   3   4    6.12    0.37
  -3  -1   4    6.48    0.29
   4  -3   4    6.57    0.41
  -3  -1   4    6.37    0.48
   3   1   4    6.53    0.47
  -1   4   4    7.11    0.36
   4  -3   4    7.30    0.41
   1  -4  -4    5.67    0.30
  -1   4  -4    6.38    0.49
   4  -3  -4    6.25    0.38
   4  -3  -4    6.49    0.39
   3   1  -4    6.74    0.40
  -4   3  -4    6.56    0.41
  -1   4  -4    6.88    0.36
  -3  -1  -4    6.25    0.39
   1  -4  -4    5.88    0.49
  -3  -1  -4    7.26    0.44
  -4   3  -4    6.73    0.37
   2  -4   4  671.26   22.62
   2   2   4  667.64   21.17
  -4   2   4  673.17   22.84
   2   2   4  650.43   22.77
   4  -2   4  581.20   22.76
   4  -2   4  626.09   21.28
  -2   4   4  723.00   22.94
  -2   4   4  735.87   21.82
  -4   2   4  711.69   21.74
   2  -4   4  704.11   21.32
  -2  -2   4  564.04   22.77
  -2  -2   4  715.24   21.32
  -2  -2  -4  607.28   23.34
  -4   2  -4  763.73   21.84
   2   2  -4  641.16   23.31
  -4   2  -4  759.49   23.20
   2  -4  -4  566.94   23.36
   2  -4  -4  667.65   21.23
  -2   4  -4  709.86   21.78
   4  -2  -4  668.89   21.31
   4  -2  -4  687.75   23.22
  -2   4  -4  602.96   23.37
  -3   4   4    5.23    0.36
  -3   4   4    5.54    0.33
  -1  -3   4    4.96    0.34
  -4   1   4    5.17    0.29
   1   3   4    5.88    0.38
   3  -4   4    5.65    0.31
   4  -1   4    5.06    0.42
   4  -1   4    6.10    0.34
   3  -4   4    5.88    0.37
  -4   1   4    5.37    0.44
  -1  -3   4    5.99    0.40
   3  -4  -4    5.30    0.32
   3  -4  -4    6.18    0.44
  -1  -3  -4    5.41    0.24
  -3   4  -4    5.65    0.36
  -1  -3  -4    5.79    0.45
  -4   1  -4    5.70    0.37
   1   3  -4    6.60    0.46
   1   3  -4    5.65    0.27
  -4   1  -4    5.62    0.31
   4  -1  -4    5.63    0.32
  -3   4  -4    5.20    0.39
  -1  -3  -4    5.15    0.35
   0  -4   4    1.56    0.21
  -4   0   4    2.12    0.33
  -4   4   4    1.78    0.23
   4   0   4    1.56    0.28
   0  -4   4    1.64    0.21
  -4   4   4    1.74    0.23
   0   4   4    1.74    0.17
  -4   0   4    1.90    0.14
   4  -4   4    1.74    0.23
   4  -4   4    2.29    0.19
   4   0   4    1.82    0.16
   0  -4  -4    1.73    0.12
  -4   0  -4    2.12    0.25
   4   0  -4    1.60    0.22
   0   4  -4    1.74    0.31
   0  -4  -4    1.98    0.33
   0   4  -4    1.89    0.15
  -4   4  -4    1.60    0.21
  -4   4  -4    1.95    0.24
   4  -4  -4    1.97    0.23
   4  -4  -4    1.72    0.25
  -4   0  -4    1.73    0.16
   4   0  -4    1.84    0.16
  -5   4   4  615.85   21.02
   1  -5   4  584.91   20.85
  -1   5   4  683.50   20.85
   4   1   4  594.25   19.53
  -1   5   4  684.89   20.15
   1  -5   4  625.18   19.65
  -4  -1   4  626.62   19.94
  -5   4   4  677.58   20.12
   5  -4   4  585.10   20.92
   4   1   4  536.74   21.10
  -4  -1   4  550.72   21.15
   5  -4   4  587.11   19.66
  -4  -1   4  641.71   19.66
  -1   5  -4  654.96   20.05
  -4  -1  -4  651.30   20.11
   1  -5  -4  625.49   19.50
   1  -5  -4  510.16   21.66
  -5   4  -4  668.34   21.38
   4   1  -4  632.72   21.40
   5  -4  -4  547.92   21.42
  -4  -1  -4  542.79   21.46
   5  -4  -4  621.26   19.66
  -5   4  -4  660.84   20.15
   2  -5   4    7.43    0.46
   3   2   4    7.63    0.55
  -5   3   4    8.58    0.46
  -3  -2   4    7.40    0.35
  -3  -2   4    7.82    0.58
  -2   5   4    7.69    0.47
  -2   5   4    7.87    0.39
   2  -5   4    7.82    0.38
  -5   3   4    8.47    0.57
   5  -3   4    7.38    0.46
   5  -3   4    7.87    0.52
  -3  -2   4    8.20    0.47
   3   2   4    7.70    0.36
  -2   5  -4    8.57    0.63
   5  -3  -4    7.82    0.43
  -3  -2  -4    7.70    0.54
  -3  -2  -4    7.45    0.46
  -2   5  -4    7.80    0.45
  -5   3  -4    7.36    0.47
  -5   3  -4    7.64    0.39
   2  -5  -4    7.78    0.61
   2  -5  -4    7.80    0.40
   5  -3  -4    7.48    0.46
   3   2  -4    7.47    0.49
  -3   5   4    0.28    0.10
  -5   2   4    0.23    0.12
  -2  -3   4    0.54    0.14
   2   3   4    0.27    0.11
   3  -5   4    0.25    0.08
   5  -2   4    1.11    0.22
   5  -2   4    0.47    0.12
  -3   5   4    0.28    0.06
  -5   2   4    0.37    0.08
  -2  -3   4    0.28    0.09
   5  -2  -4    0.50    0.08
  -3   5  -4    0.81    0.15
  -2  -3  -4    0.37    0.06
   2   3  -4    0.81    0.17
  -2  -3  -4    0.35    0.13
  -5   2  -4    0.45    0.06
  -2  -3  -4    0.47    0.12
   5  -2  -4    0.38    0.10
  -5   2  -4    0.31    0.10
   2   3  -4    0.42    0.06
  -3   5  -4    0.64    0.16
   3  -5  -4    0.33    0.07
   3  -5  -4    0.35    0.14
  -1  -4   4  456.46   14.74
  -4   5   4  476.32   15.67
  -4   5   4  495.69   15.12
  -5   1   4  434.38   15.95
  -5   1   4  479.30   14.97
   4  -5   4  482.30   15.59
  -1  -4   4  420.49   15.77
   5  -1   4  464.54   14.72
   1   4   4  464.67   15.70
   4  -5   4  468.98   14.79
   5  -1   4  416.83   15.92
  -5   1  -4  447.92   15.97
   4  -5  -4  401.51   16.20
  -5   1  -4  491.94   15.11
  -1  -4  -4  412.33   16.32
   4  -5  -4  452.43   14.72
   1   4  -4  478.47   14.96
  -4   5  -4  456.22   16.17
   5  -1  -4  463.04   14.77
   5  -1  -4  480.74   15.98
  -1  -4  -4  475.51   15.10
   1   4  -4  411.16   16.25
  -4   5  -4  477.38   15.12
  -1  -4  -4  481.33   14.58
   0   5   4    0.11    0.08
  -5   5   4    0.19    0.07
   0  -5   4    0.25    0.08
   0  -5   4    0.20    0.07
   5  -5   4    0.10    0.08
   0   5   4    0.87    0.13
   5  -5   4    0.13    0.04
   5   0   4    0.20    0.06
  -5   5   4    0.15    0.08
  -5   0   4   -0.01    0.09
   5   0   4    0.08    0.10
  -5   0   4    0.15    0.04
   0   5  -4    0.22    0.06
   5  -5  -4    0.04    0.05
   0  -5  -4    0.17    0.11
   5  -5  -4    0.19    0.05
  -5   5  -4    0.20    0.08
  -5   5  -4    0.18    0.06
  -5   0  -4    0.17    0.04
   0   5  -4    0.15    0.12
   5   0  -4    0.21    0.05
   5   0  -4    0.11    0.07
   0  -5  -4    0.14    0.04
  -5   0  -4    0.17    0.08
   1  -6   4    5.49    0.40
  -1   6   4    5.27    0.41
  -1   6   4    5.55    0.32
   6  -5   4    4.80    0.40
  -6   5   4    5.37    0.44
   6  -5   4    5.16    0.38
  -5  -1   4    5.14    0.63
   5   1   4    4.92    0.60
   5   1   4    5.38    0.33
  -5  -1   4    5.02    0.30
  -6   5   4    5.54    0.41
  -6   5  -4    4.62    0.39
   6  -5  -4    5.29    0.40
  -1   6  -4    4.75    0.34
   1  -6  -4    5.09    0.30
   6  -5  -4    5.45    0.41
   5   1  -4    5.20    0.40
  -6   5  -4    5.41    0.34
  -5  -1  -4    4.58    0.38
  -5  -1  -4    5.26    0.41
   5   1  -4    4.96    0.34
  -1   6  -4    5.65    0.68
   1  -6  -4    6.37    0.73
  -4  -2   4   24.22    1.06
  -2   6   4   22.92    1.08
   2  -6   4   23.06    1.06
  -2   6   4   22.70    0.94
  -6   4   4   22.85    1.04
   6  -4   4   23.08    1.07
   6  -4   4   23.65    1.15
  -6   4   4   23.90    1.22
  -4  -2   4   23.38    1.31
   4   2   4   24.67    1.27
   2  -6   4   25.23    0.96
  -4  -2   4   24.15    0.92
   4   2   4   23.93    0.93
   4   2  -4   23.36    1.09
  -4  -2  -4   23.06    1.06
   6  -4  -4   23.26    1.05
  -2   6  -4   22.50    1.34
   2  -6  -4   22.18    0.94
   2  -6  -4   25.41    1.41
   6  -4  -4   22.48    1.06
  -2   6  -4   23.55    1.04
  -4  -2  -4   23.56    1.21
  -6   4  -4   22.91    1.09
  -6   4  -4   23.21    0.97
  -3   6   4  122.95    4.36
   3  -6   4  125.02    4.29
  -6   3   4  123.78    4.74
  -3   6   4  127.35    4.34
   3  -6   4  129.00    4.28
  -3  -3   4  114.84    4.71
   6  -3   4  121.09    4.68
  -3  -3   4  124.28    4.24
   6  -3   4  130.15    4.30
  -6   3   4  126.90    4.29
   3   3   4  118.89    4.07
   3   3   4  118.60    4.61
   3  -6  -4  122.86    4.17
   3   3  -4  123.05    4.67
  -3  -3  -4  123.21    4.33
  -3   6  -4  126.33    4.89
  -3  -3  -4  117.50    4.81
  -6   3  -4  123.99    4.39
   3  -6  -4  122.08    4.90
   6  -3  -4  125.43    4.47
  -6   3  -4  129.74    4.38
   6  -3  -4  119.56    4.27
  -3   6  -4  129.98    4.36
   6  -2   4    6.38    0.57
   2   4   4    6.46    0.46
  -4   6   4    7.04    0.48
  -2  -4   4    7.01    0.45
   4  -6   4    6.22    0.31
  -6   2   4    7.22    0.61
  -2  -4   4    6.35    0.52
  -4   6   4    6.48    0.37
   6  -2   4    6.59    0.44
   4  -6   4    6.38    0.46
  -6   2   4    6.01    0.38
  -2  -4  -4    6.02    0.43
   2   4  -4    6.47    0.35
  -4   6  -4    6.86    0.55
  -2  -4  -4    6.21    0.32
  -6   2  -4    6.65    0.46
  -4   6  -4    6.14    0.45
  -2  -4  -4    7.78    0.65
   4  -6  -4    6.45    0.41
   6  -2  -4    6.71    0.46
   4  -6  -4    6.76    0.58
   6  -2  -4    6.81    0.35
   2   4  -4    7.02    0.55
  -5   6   4    1.94    0.19
   1   5   4    1.80    0.24
  -1  -5   4    1.73    0.27
   5  -6   4    1.70    0.27
   6  -1   4    2.72    0.29
   6  -1   4    2.16    0.40
  -1  -5   4    1.87    0.26
  -6   1   4    2.20    0.42
   5  -6   4    1.91    0.16
  -5   6   4    1.94    0.28
  -6   1   4    1.86    0.17
  -6   1  -4    1.84    0.28
   5  -6  -4    2.19    0.27
   6  -1  -4    1.58    0.25
   1   5  -4    2.31    0.18
  -5   6  -4    1.88    0.28
   6  -1  -4    2.16    0.16
  -1  -5  -4    1.59    0.26
   1   5  -4    2.01    0.38
  -1  -5  -4    2.35    0.45
   5  -6  -4    2.51    0.36
  -1  -5  -4    2.15    0.16
  -5   6  -4    2.02    0.29
   6  -6   4  111.95    4.04
   6   0   4  113.69    4.59
   0   6   4  118.12    4.11
  -6   0   4  108.54    4.59
   0  -6   4  110.49    3.98
  -6   0   4  114.27    3.92
   6   0   4  114.72    3.93
   0  -6   4  118.39    4.27
   6  -6   4  113.96    4.11
   0   6   4  110.74    4.08
  -6   6   4  117.57    4.27
  -6   6   4  117.81    4.12
   6   0  -4  118.64    4.16
   6  -6  -4  111.65    4.44
   0  -6  -4  110.88    4.77
  -6   0  -4  116.64    4.09
  -6   6  -4  117.62    4.30
   6  -6  -4  111.66    4.00
   0   6  -4  110.15    4.68
   0  -6  -4  117.33    3.82
   0   6  -4  113.68    3.98
   6   0  -4  110.74    4.00
  -6   6  -4  114.78    4.12
   6   1   4    1.05    0.15
   6   1   4    0.59    0.21
   1  -7   4    0.90    0.20
  -7   6   4    1.58    0.25
  -1   7   4    1.19    0.23
  -6  -1   4    0.91    0.13
   7  -6   4    1.17    0.19
  -6  -1   4    0.77    0.26
   7  -6   4    0.92    0.23
  -7   6   4    1.03    0.21
   6   1  -4    1.02    0.22
   7  -6  -4    0.63    0.17
  -6  -1  -4    1.48    0.26
   7  -6  -4    1.35    0.21
   1  -7  -4    1.15    0.35
   1  -7  -4    1.31    0.16
  -7   6  -4    0.97    0.21
  -1   7  -4    1.47    0.21
  -1   7  -4    0.83    0.31
   7  -5   4  488.64   15.67
   5   2   4  459.45   16.90
  -7   5   4  464.46   16.81
  -2   7   4  504.60   16.00
  -7   5   4  513.03   15.97
   7  -5   4  458.72   16.65
   5   2   4  502.91   15.47
  -5  -2   4  480.91   15.75
   2  -7   4  506.58   15.64
  -5  -2   4  442.62   16.98
   2  -7  -4  513.34   15.47
   7  -5  -4  485.39   15.64
  -5  -2  -4  491.84   15.96
   5   2  -4  494.18   16.95
  -2   7  -4  402.07   17.35
  -2   7  -4  510.82   15.94
  -5  -2  -4  425.28   17.14
   5   2  -4  498.20   15.61
  -7   5  -4  504.39   16.02
  -3   7   4    0.73    0.18
   4   3   4    1.44    0.17
   7  -4   4    1.47    0.26
  -4  -3   4    1.37    0.31
   4   3   4    0.94    0.25
  -7   4   4    1.20    0.21
   7  -4   4    1.69    0.30
  -4  -3   4    1.31    0.16
  -7   4   4    1.15    0.29
  -4  -3   4    1.08    0.20
   3  -7   4    0.95    0.20
   3  -7  -4    1.00    0.16
   7  -4  -4    1.05    0.20
  -3   7  -4    1.01    0.18
  -7   4  -4    1.24    0.23
  -4  -3  -4    1.27    0.28
  -4  -3  -4    1.24    0.23
  -3   7  -4    0.91    0.27
   4   3  -4    1.18    0.20
   3  -7  -4    1.11    0.33
  -3  -4   4    0.65    0.19
  -3  -4   4    1.27    0.22
   7  -3   4    0.38    0.10
  -4   7   4    0.15    0.10
   3   4   4    0.42    0.13
   4  -7   4    0.42    0.13
  -7   3   4    0.27    0.15
  -7   3   4    0.19    0.06
   7  -3   4    0.18    0.11
   4  -7  -4    0.34    0.18
  -3  -4  -4    0.27    0.15
   3   4  -4    0.50    0.15
  -4   7  -4    0.83    0.23
   7  -3  -4    0.17    0.08
   3   4  -4    0.30    0.06
  -3  -4  -4    0.32    0.12
  -4   7  -4    0.17    0.09
  -7   3  -4    0.25    0.10
   4  -7  -4    0.30    0.09
   5  -7   4  321.28   10.47
   7  -2   4  290.36   11.40
  -2  -5   4  316.29   10.41
   2   5   4  317.41   11.08
   7  -2   4  323.29   10.44
  -2  -5   4  308.56   11.30
  -7   2   4  307.60   11.49
  -5   7   4  336.86   10.73
  -7   2   4  324.33   10.55
  -2  -5  -4  323.40   10.66
  -2  -5  -4  323.23   10.22
   2   5  -4  326.61   10.49
  -2  -5  -4  300.19   11.78
  -5   7  -4  330.34   10.71
   5  -7  -4  286.92   11.62
   2   5  -4  321.19   11.61
   7  -2  -4  327.90   10.48
   5  -7  -4  309.84   10.37
  -5   7  -4  323.22   11.55
  -7   2  -4  326.60   10.69
   7  -1   4    5.54    0.39
   6  -7   4    4.75    0.42
  -7   1   4    4.68    0.33
   7  -1   4    4.23    0.63
  -1  -6   4    4.81    0.39
  -6   7   4    4.89    0.43
  -1  -6   4    4.89    0.42
  -7   1   4    4.71    0.70
   1   6   4    4.98    0.35
   1   6   4    4.93    0.42
   7  -1  -4    4.83    0.41
  -7   1  -4    4.43    0.40
  -6   7  -4    4.05    0.46
   1   6  -4    4.53    0.32
   1   6  -4    4.67    0.64
   6  -7  -4    4.78    0.39
  -6   7  -4    4.37    0.40
  -1  -6  -4    4.80    0.71
   6  -7  -4    5.54    0.51
   7  -7   4    2.59    0.38
   0   7   4    1.91    0.30
  -7   7   4    2.25    0.34
  -7   0   4    2.62    0.50
   0  -7   4    1.91    0.29
  -7   0   4    2.24    0.20
   7   0   4    2.67    0.31
   7   0   4    2.75    0.52
  -7   7  -4    2.11    0.34
   7   0  -4    1.72    0.29
   0  -7  -4    2.55    0.53
  -7   0  -4    2.28    0.33
   0   7  -4    2.05    0.46
   7  -7  -4    3.02    0.40
   7  -7  -4    2.12    0.31
  -7   7  -4    2.44    0.30
   0   7  -4    2.34    0.22
  -1   8   4  373.64   11.99
  -8   7   4  369.62   11.98
   1  -8   4  354.91   11.66
   7   1   4  337.99   12.84
   8  -7   4  357.95   11.76
  -7  -1   4  350.99   12.92
   7   1   4  358.64   11.56
  -8   7  -4  359.48   12.01
   8  -7  -4  355.50   11.72
   7   1  -4  364.99   11.70
  -1   8  -4  307.19   13.14
   1  -8  -4  336.39   13.30
  -1   8  -4  349.52   11.84
  -7  -1  -4  372.30   11.95
  -6  -2   4    5.59    0.75
   6   2   4    4.55    0.66
  -2   8   4    4.68    0.43
   8  -6   4    5.27    0.42
   2  -8   4    4.92    0.42
   8  -6   4    4.68    0.50
  -8   6   4    5.29    0.44
  -8   6   4    5.39    0.49
  -6  -2  -4    4.44    0.41
  -8   6  -4    4.39    0.50
   6   2  -4    4.59    0.41
   8  -6  -4    3.91    0.46
   2  -8  -4    4.81    0.34
  -2   8  -4    5.44    0.41
   2  -8  -4    4.17    0.70
  -2   8  -4    5.66    0.81
   3  -8   4    0.91    0.20
  -3   8   4    0.79    0.19
  -5  -3   4    1.01    0.29
  -8   5   4    0.81    0.18
  -8   5   4    0.60    0.18
   5   3   4    0.50    0.17
  -5  -3   4    0.79    0.18
   8  -5   4    0.65    0.20
   8  -5   4    1.00    0.21
   3  -8  -4    0.60    0.24
   8  -5  -4    0.74    0.19
  -3   8  -4    0.58    0.24
  -3   8  -4    0.77    0.15
   5   3  -4    1.01    0.18
  -8   5  -4    0.55    0.15
   3  -8  -4    0.52    0.10
  -5  -3  -4    0.66    0.16
  -5  -3  -4    0.95    0.18
  -8   4   4  438.51   14.23
   8  -4   4  419.81   14.02
   4   4   4  427.21   15.04
  -8   4   4  419.02   15.25
  -4  -4   4  416.45   15.21
  -4   8   4  457.27   14.37
   8  -4   4  420.49   15.12
  -4  -4   4  449.34   13.98
   4  -8   4  445.41   14.02
   4  -8  -4  444.34   13.88
  -4   8  -4  416.12   15.62
  -4   8  -4  441.26   14.32
   4   4  -4  424.60   15.30
  -4  -4  -4  462.14   14.31
  -8   4  -4  444.03   14.33
  -4  -4  -4  391.43   15.52
   4  -8  -4  360.49   15.62
   8  -4  -4  430.01   14.03
  -8   3   4    6.01    0.42
   5  -8   4    5.82    0.48
  -3  -5   4    5.59    0.44
  -5   8   4    5.30    0.47
   3   5   4    5.90    0.48
   8  -3   4    5.98    0.46
  -8   3   4    5.72    0.74
  -3  -5   4    5.69    0.54
   8  -3   4    6.70    0.64
  -5   8  -4    5.51    0.46
  -3  -5  -4    6.70    0.80
  -5   8  -4    5.52    0.66
   5  -8  -4    5.17    0.40
   3   5  -4    6.04    0.56
  -3  -5  -4    5.14    0.44
  -8   3  -4    5.72    0.47
   5  -8  -4    6.41    0.79
   8  -3  -4    4.97    0.45
  -6   8   4    2.16    0.36
   6  -8   4    2.54    0.37
   8  -2   4    3.02    0.37
  -8   2   4    3.14    0.54
  -2  -6   4    2.50    0.34
   2   6   4    2.94    0.27
  -2  -6   4    2.84    0.40
   8  -2   4    3.05    0.55
  -8   2   4    2.67    0.25
   2   6  -4    3.01    0.50
   6  -8  -4    2.54    0.33
  -8   2  -4    2.48    0.36
  -2  -6  -4    2.79    0.53
  -2  -6  -4    3.35    0.41
  -6   8  -4    2.69    0.41
   6  -8  -4    3.03    0.50
   8  -2  -4    3.64    0.43
  -6   8  -4    2.78    0.39
  -7   8   4  370.23   12.12
   1   7   4  358.65   12.06
   8  -1   4  326.51   12.98
   8  -1   4  350.93   11.75
  -1  -7   4  380.23   11.81
  -8   1   4  369.03   11.90
  -8   1   4  348.10   13.04
   7  -8   4  357.63   11.86
  -7   8  -4  367.21   12.88
   1   7  -4  363.49   13.30
   7  -8  -4  372.04   11.82
   8  -1  -4  365.54   11.84
   7  -8  -4  307.82   13.03
  -7   8  -4  362.77   12.14
  -1  -7  -4  336.22   13.37
  -8   1  -4  385.09   12.10
   8   0   4    0.09    0.06
  -8   8   4    0.14    0.09
  -8   0   4    0.47    0.21
   0   8   4   -0.09    0.07
   8   0   4    0.00    0.10
   8  -8   4   -0.10    0.07
   0  -8   4   -0.03    0.06
  -8   8  -4   -0.05    0.06
   0   8  -4   -0.14    0.11
   0  -8  -4   -0.05    0.13
  -8   0  -4    0.22    0.10
   8   0  -4    0.07    0.07
   8  -8  -4    0.35    0.13
  -1   9   4    2.62    0.39
  -8  -1   4    3.70    0.62
   8   1   4    2.66    0.51
  -9   8   4    2.54    0.40
   1  -9   4    2.41    0.36
   9  -8   4    2.44    0.40
  -8  -1  -4    2.24    0.35
  -1   9  -4    2.44    0.55
   8   1  -4    2.07    0.34
   1  -9  -4    2.48    0.53
   9  -8  -4    3.92    0.49
  -9   8  -4    2.45    0.40
  -7  -2   4   10.39    0.93
  -9   7   4   10.50    0.72
   2  -9   4   11.49    0.73
   9  -7   4   10.40    0.73
   7   2   4    9.57    0.88
  -2   9   4   10.18    0.72
  -9   7  -4    9.86    0.72
  -2   9  -4   10.37    0.64
  -7  -2  -4    9.42    0.67
   2  -9  -4    9.67    1.11
   9  -7  -4    9.26    0.69
   7   2  -4    9.80    0.68
  -2   9  -4   11.78    1.07
   3  -9   4  109.96    3.99
  -3   9   4  109.28    4.10
   9  -6   4  109.37    4.05
  -9   6   4  109.66    4.04
  -6  -3   4  106.92    4.58
   6   3   4  108.23    4.50
   9  -6   4  109.40    4.28
  -9   6   4  111.85    4.46
  -6  -3  -4  107.93    4.03
  -3   9  -4  106.40    4.02
  -3   9  -4  113.96    4.83
   9  -6  -4  108.36    4.03
   3  -9  -4  109.51    4.83
   3  -9  -4  112.91    3.84
  -9   6  -4  104.24    4.09
   6   3  -4  108.65    3.97
  -9   5   4    3.43    0.41
   4  -9   4    3.51    0.44
  -5  -4   4    3.94    0.45
   5   4   4    4.34    0.56
  -4   9   4    3.97    0.48
   9  -5   4    3.65    0.47
  -5  -4   4    4.56    0.64
   9  -5   4    3.96    0.54
  -9   5   4    4.55    0.63
  -9   5  -4    3.97    0.48
   9  -5  -4    2.96    0.42
  -4   9  -4    3.19    0.63
  -4   9  -4    3.79    0.43
   5   4  -4    4.25    0.39
  -5  -4  -4    4.74    0.59
   4  -9  -4    4.27    0.70
  -5  -4  -4    4.24    0.47
   4  -9  -4    3.70    0.32
  -4  -5   4    2.79    0.38
  -9   4   4    2.74    0.35
  -9   4   4    3.84    0.60
  -4  -5   4    3.24    0.51
   9  -4   4    2.90    0.40
  -5   9   4    2.62    0.39
   5  -9   4    2.57    0.37
   9  -4   4    2.81    0.49
   4   5   4    2.69    0.40
   9  -4  -4    2.12    0.34
  -4  -5  -4    3.76    0.44
  -9   4  -4    2.74    0.39
   5  -9  -4    3.03    0.35
   4   5  -4    3.93    0.50
  -4  -5  -4    3.30    0.54
  -5   9  -4    2.80    0.51
  -5   9  -4    2.62    0.37
   5  -9  -4    2.98    0.56
  -9   3   4  129.05    4.71
   3   6   4  132.34    5.01
   9  -3   4  139.40    5.46
   9  -3   4  135.40    4.78
  -9   3   4  132.12    5.45
  -6   9   4  131.22    4.90
   6  -9   4  132.04    4.79
  -3  -6   4  131.26    4.71
  -6   9  -4  143.48    5.41
  -3  -6  -4  134.55    5.58
  -9   3  -4  132.48    4.87
   3   6  -4  136.78    5.39
  -3  -6  -4  133.75    4.84
   6  -9  -4  134.36    4.69
   6  -9  -4  131.24    5.53
   9  -3  -4  130.76    4.79
  -6   9  -4  135.84    4.91
  -7   9   4    4.97    0.56
  -9   2   4    5.01    0.40
  -9   2   4    6.49    0.84
   2   7   4    4.95    0.46
   9  -2   4    5.22    0.44
   7  -9   4    6.65    0.55
   9  -2   4    6.59    0.85
  -2  -7   4    5.86    0.48
   9  -2  -4    5.57    0.50
   7  -9  -4    5.67    0.70
   7  -9  -4    5.63    0.46
  -9   2  -4    5.88    0.50
   2   7  -4    7.00    0.81
  -7   9  -4    6.33    0.53
  -7   9  -4    5.85    0.54
  -2  -7  -4    5.91    0.83
  -8   9   4   10.41    0.75
  -1  -8   4    9.50    0.67
   1   8   4    9.74    0.70
   9  -1   4    9.55    0.91
  -9   1   4   10.98    0.99
   8  -9   4    9.30    0.71
   9  -1   4   11.18    0.67
   1   8  -4   10.97    0.98
  -1  -8  -4   11.61    1.05
   9  -1  -4    9.67    0.70
   8  -9  -4   11.25    0.72
  -9   1  -4    9.25    0.68
  -8   9  -4   10.02    0.74
   9  -9   4  128.90    4.76
   9   0   4  124.53    5.41
  -9   9   4  128.64    4.81
   0  -9   4  136.32    4.69
  -9   0   4  123.37    5.39
   0   9   4  129.53    4.80
   9  -9  -4  129.61    4.71
   9   0  -4  133.15    4.72
   0   9  -4  131.31    5.59
  -9   9  -4  124.62    4.84
   0  -9  -4  123.86    5.56
  -9   0  -4  130.86    4.79
   9   1   4    1.42    0.34
   1 -10   4    1.17    0.23
  -1  10   4    1.51    0.27
 -10   9   4    2.22    0.36
  10  -9   4    1.64    0.32
  -9  -1   4    1.67    0.37
  -9  -1  -4    1.50    0.29
   1 -10  -4    1.23    0.38
 -10   9  -4    1.53    0.31
  10  -9  -4    1.02    0.22
  -1  10  -4    1.27    0.37
   9   1  -4    1.13    0.25
  10  -8   4  172.27    6.24
  -2  10   4  174.44    6.33
  -8  -2   4  180.07    7.01
   2 -10   4  171.45    6.14
   8   2   4  179.64    7.01
 -10   8   4  178.85    6.33
  10  -8  -4  178.49    6.25
  -2  10  -4  175.54    7.28
   2 -10  -4  166.31    7.20
  -8  -2  -4  170.84    6.26
   8   2  -4  176.37    6.18
 -10   8  -4  175.59    6.37
   3 -10   4    1.34    0.26
  10  -7   4    1.12    0.26
 -10   7   4    1.50    0.28
  -7  -3   4    0.79    0.26
  -3  10   4    1.46    0.31
   7   3   4    1.16    0.33
  -7  -3  -4    1.18    0.26
   7   3  -4    1.65    0.29
   3 -10  -4    1.13    0.35
  10  -7  -4    1.67    0.31
 -10   7  -4    1.35    0.27
  -3  10  -4    1.30    0.41
 -10   6   4    1.55    0.29
  10  -6   4    1.03    0.22
  -4  10   4    1.34    0.29
 -10   6   4    1.25    0.24
   4 -10   4    1.33    0.26
  -6  -4   4    1.88    0.38
  10  -6   4    0.75    0.21
   6   4   4    0.87    0.20
  -4  10  -4    1.44    0.23
  -6  -4  -4    1.01    0.22
   4 -10  -4    1.22    0.20
   4 -10  -4    1.44    0.38
  -4  10  -4    0.92    0.34
  10  -6  -4    0.56    0.18
   6   4  -4    1.34    0.25
 -10   6  -4    0.94    0.22
 -10   5   4  279.55    9.62
   5   5   4  282.77   10.24
  -5  10   4  271.60    9.72
  10  -5   4  281.81    9.55
  -5  -5   4  288.73    9.47
   5 -10   4  288.01    9.53
  10  -5   4  289.21   10.37
 -10   5   4  266.51   10.39
  -5  -5   4  295.70   10.42
   5 -10  -4  276.10    9.35
  -5  10  -4  287.70   10.77
  10  -5  -4  280.51    9.54
  -5  -5  -4  285.49   10.57
 -10   5  -4  285.88    9.74
   5   5  -4  284.85   10.35
  -5  10  -4  271.95    9.69
  -5  -5  -4  283.49    9.66
   5 -10  -4  264.47   10.78
  10  -4   4   10.31    0.87
 -10   4   4    9.10    0.61
  -4  -6   4    9.31    0.75
 -10   4   4    8.20    0.80
  10  -4   4    8.78    0.65
  -6  10   4    8.88    0.69
   4   6   4    9.98    0.70
  -4  -6   4    8.88    0.63
   6 -10   4    9.40    0.69
  10  -4  -4    9.37    0.70
   6 -10  -4    7.88    0.57
  -4  -6  -4    8.66    0.65
  -6  10  -4    8.76    0.65
  -4  -6  -4    8.71    0.81
 -10   4  -4    8.98    0.68
   4   6  -4    9.52    0.75
  -6  10  -4    9.74    0.84
   6 -10  -4    9.85    0.87
  -7  10   4    0.79    0.22
 -10   3   4    1.13    0.34
 -10   3   4    1.11    0.19
  10  -3   4    1.24    0.21
   3   7   4    1.05    0.24
  -3  -7   4    1.60    0.26
   7 -10   4    1.15    0.24
  10  -3   4    1.66    0.39
  10  -3  -4    0.99    0.24
   7 -10  -4    1.84    0.36
  -3  -7  -4    1.20    0.28
  -7  10  -4    1.12    0.27
 -10   3  -4    1.00    0.25
  -7  10  -4    1.30    0.24
   3   7  -4    1.27    0.29
   7 -10  -4    1.20    0.24
   8 -10   4  222.99    7.98
  -2  -8   4  223.63    7.89
 -10   2   4  230.39    8.93
  10  -2   4  236.81    8.97
  10  -2   4  237.30    7.95
  -8  10   4  229.55    8.18
   8 -10  -4  224.13    7.90
 -10   2  -4  235.94    8.14
  -8  10  -4  232.26    8.21
   2   8  -4  238.90    9.05
  -2  -8  -4  233.54    9.16
  10  -2  -4  236.49    8.01
   9 -10   4    4.00    0.53
  10  -1   4    4.15    0.71
  -1  -9   4    3.45    0.43
 -10   1   4    4.22    0.69
   1   9   4    4.38    0.53
  -9  10   4    3.45    0.50
  -1  -9  -4    3.53    0.67
  10  -1  -4    3.42    0.46
   1   9  -4    3.53    0.64
   9 -10  -4    4.49    0.51
  -9  10  -4    4.37    0.55
 -10   1  -4    3.89    0.49
  10 -10   4    1.54    0.29
   0  10   4    1.85    0.33
  10   0   4    1.60    0.38
   0 -10   4    1.34    0.23
 -10   0   4    1.98    0.45
 -10  10   4    1.58    0.31
 -10   0  -4    1.42    0.26
  10   0  -4    1.34    0.26
  10 -10  -4    1.25    0.24
 -10  10  -4    1.56    0.28
   0 -10  -4    1.48    0.35
   0  10  -4    1.92    0.46
  11 -10   4  169.57    6.33
   1 -11   4  168.98    6.20
  10   1   4  180.98    7.17
 -11  10   4  173.47    6.43
  -1  11   4  173.88    6.42
  11 -10  -4  172.81    6.30
  10   1  -4  180.62    6.29
   1 -11  -4  177.03    7.34
  -1  11  -4  175.33    7.36
 -10  -1  -4  172.08    6.34
 -11  10  -4  171.93    6.45
   2 -11   4    3.70    0.49
  -9  -2   4    3.51    0.57
  11  -9   4    3.21    0.48
   9   2   4    4.22    0.68
 -11   9   4    3.39    0.49
  -2  11   4    2.55    0.42
 -11   9  -4    3.58    0.52
  11  -9  -4    4.10    0.54
   9   2  -4    3.83    0.47
  -9  -2  -4    3.17    0.44
  -2  11  -4    3.47    0.66
   2 -11  -4    3.96    0.68
   8   3   4    0.28    0.12
   3 -11   4    0.09    0.08
  -3  11   4    0.15    0.08
  -8  -3   4    0.33    0.13
 -11   8   4    0.31    0.10
  11  -8   4    0.26    0.10
   8   3  -4    0.23    0.08
 -11   8  -4    0.38    0.12
  -3  11  -4    0.12    0.17
  11  -8  -4    0.20    0.09
  -8  -3  -4    0.24    0.08
   3 -11  -4    0.11    0.13
 -11   7   4  158.00    5.76
  -7  -4   4  160.64    6.36
   4 -11   4  155.58    5.66
   7   4   4  159.12    6.29
  11  -7   4  153.84    5.73
  -4  11   4  157.34    5.83
  11  -7  -4  159.41    5.75
   7   4  -4  160.57    5.67
 -11   7  -4  155.89    5.84
  -4  11  -4  150.93    5.72
  -4  11  -4  170.51    6.74
   4 -11  -4  157.35    6.67
  -6  -5   4    5.83    0.74
 -11   6   4    5.40    0.65
  11  -6   4    4.13    0.52
   6   5   4    4.70    0.59
 -11   6   4    4.54    0.52
  -5  11   4    4.59    0.58
  11  -6   4    4.63    0.62
   5 -11   4    3.78    0.51
  -5  11  -4    5.05    0.45
 -11   6  -4    4.73    0.59
  -5  11  -4    4.45    0.73
  -6  -5  -4    4.53    0.53
  11  -6  -4    4.32    0.55
   6   5  -4    4.56    0.52
   5 -11  -4    4.58    0.74
  -5  -6   4    0.72    0.16
 -11   5   4    0.36    0.13
   5   6   4    0.62    0.10
  11  -5   4    0.86    0.19
  -5  -6   4    0.76    0.18
 -11   5   4    1.17    0.29
   6 -11   4    0.69    0.17
  -6  11   4    0.88    0.20
  11  -5   4    0.83    0.12
 -11   5  -4    1.02    0.23
   6 -11  -4    0.74    0.15
  -6  11  -4    1.10    0.27
  -5  -6  -4    0.64    0.16
   6 -11  -4    0.75    0.17
   5   6  -4    0.22    0.10
  -6  11  -4    0.63    0.14
  11  -5  -4    0.47    0.17
  -7  11   4  193.00    7.04
   7 -11   4  192.01    6.86
 -11   4   4  188.61    7.60
  -4  -7   4  186.88    6.75
  11  -4   4  189.87    6.83
 -11   4   4  197.97    6.84
  11  -4   4  206.73    7.68
  -7  11  -4  196.80    7.02
  -4  -7  -4  200.63    7.76
 -11   4  -4  197.92    7.00
   4   7  -4  199.97    7.60
   7 -11  -4  194.10    6.73
  -7  11  -4  195.44    7.63
  11  -4  -4  193.88    6.87
   7 -11  -4  185.72    7.71
   3   8   4    2.12    0.35
 -11   3   4    2.64    0.51
  11  -3   4    2.36    0.31
   8 -11   4    2.15    0.35
  11  -3   4    2.84    0.49
  -3  -8   4    2.38    0.33
  -8  11   4    2.74    0.43
 -11   3  -4    2.45    0.39
  11  -3  -4    2.12    0.37
  -3  -8  -4    2.28    0.48
  -8  11  -4    1.90    0.30
   8 -11  -4    2.09    0.29
   3   8  -4    2.02    0.40
   9 -11   4    3.04    0.45
 -11   2   4    2.39    0.45
   2   9   4    3.47    0.43
  -2  -9   4    2.80    0.40
  11  -2   4    2.76    0.53
  -9  11   4    2.85    0.45
  -9  11  -4    3.18    0.44
  -2  -9  -4    3.25    0.58
   9 -11  -4    3.54    0.45
 -11   2  -4    2.60    0.41
   2   9  -4    3.30    0.56
  11  -2  -4    3.03    0.45
 -10  11   4  150.16    5.76
 -11   1   4  163.50    6.46
  10 -11   4  142.56    5.62
  11  -1   4  166.50    6.53
   1  10  -4  158.50    6.55
  11  -1  -4  152.40    5.64
  10 -11  -4  150.88    5.60
 -11   1  -4  151.97    5.70
 -10  11  -4  153.56    5.82
  -4  12   4    7.11    0.62
  -8  -4   4    7.93    0.74
   8   4   4    7.98    0.68
   4 -12   4    6.21    0.57
 -12   8   4    6.09    0.57
  12  -8   4    8.17    0.65
  12  -8  -4    8.15    0.67
   4 -12  -4    7.46    0.96
 -12   8  -4    5.82    0.68
   8   4  -4    6.84    0.56
  -4  12  -4    6.47    0.95
  -8  -4  -4    6.62    0.56
  -7  -5   4    3.77    0.56
   5 -12   4    2.66    0.40
   7   5   4    3.05    0.43
  -5  12   4    2.72    0.43
  12  -7   4    2.95    0.35
 -12   7   4    2.91    0.38
   7   5  -4    3.47    0.41
  -5  12  -4    2.49    0.53
  -7  -5  -4    2.53    0.36
 -12   7  -4    2.79    0.44
  -5  12  -4    3.25    0.39
  12  -7  -4    3.89    0.53
   5 -12  -4    3.08    0.54
 -12   6   4   90.48    3.95
  12  -6   4   89.37    3.91
   6 -12   4   91.54    3.58
  -6  12   4   85.20    3.65
  12  -6   4   92.17    3.61
 -12   6   4   90.04    3.53
  12  -6  -4   89.92    3.62
   6   6  -4   91.95    3.51
   6 -12  -4   85.63    4.12
  -6  12  -4   96.56    4.21
 -12   6  -4   85.11    3.62
  -6  -6  -4   90.22    3.58
  -6  12  -4   90.05    3.60
  12  -5   4    4.58    0.42
   7 -12   4    3.39    0.48
  -7  12   4    3.44    0.51
  -5  -7   4    4.01    0.49
  12  -5   4    6.17    0.77
 -12   5   4    5.37    0.49
 -12   5  -4    3.63    0.51
  -5  -7  -4    4.57    0.55
   7 -12  -4    4.75    0.42
   7 -12  -4    5.01    0.47
  -7  12  -4    4.45    0.65
  -7  12  -4    4.11    0.50
  12  -5  -4    5.10    0.62
 -12   4   4    2.94    0.45
  -8  12   4    3.69    0.52
   8 -12   4    3.15    0.46
  12  -4   4    3.16    0.56
   4   8   4    2.14    0.31
  -4  -8   4    2.64    0.39
  12  -4   4    2.55    0.30
   8 -12  -4    2.42    0.35
   4   8  -4    2.35    0.43
  -8  12  -4    3.58    0.46
  -4  -8  -4    3.72    0.57
 -12   4  -4    2.16    0.36
  12  -4  -4    3.18    0.47
   0   0   5    0.17    0.05
   0   0   5    0.02    0.04
   0   0  -5    0.12    0.05
   0   0  -5    0.10    0.06
   0   1   5   17.38    0.76
   0  -1   5   17.63    0.68
   0  -1   5   16.49    0.75
   1  -1   5   16.79    0.75
  -1   0   5   16.98    0.76
   1   0   5   17.26    0.61
  -1   0   5   17.50    0.62
   1  -1   5   17.00    0.66
  -1   1   5   15.61    0.65
  -1   1   5   17.00    0.76
  -1   1  -5   17.11    0.77
   1   0  -5   17.12    0.77
   0   1  -5   17.34    0.62
   0  -1  -5   17.17    0.69
   0  -1  -5   17.97    0.60
   0   1  -5   17.69    0.79
   1  -1  -5   16.99    0.77
   0  -1  -5   18.44    0.79
   1  -1  -5   16.90    0.65
  -1   0  -5   16.48    0.76
  -1   1  -5   17.02    0.67
  -1   2   5   61.17    2.22
   1   1   5   60.30    2.24
   1  -2   5   61.12    2.20
   1  -2   5   58.45    2.06
  -1  -1   5   60.26    2.25
  -2   1   5   61.08    2.25
  -1  -1   5   59.88    2.07
   2  -1   5   60.71    2.24
  -1   2   5   60.03    2.10
   2  -1   5   61.23    2.02
  -2   1   5   60.14    2.05
   2  -1  -5   60.40    2.06
   1  -2  -5   58.77    1.99
  -1  -1  -5   59.05    2.29
  -1   2  -5   59.41    2.30
  -1   2  -5   60.62    2.05
   1   1  -5   58.77    2.29
   1  -2  -5   59.66    2.31
  -2   1  -5   60.03    2.25
   2  -1  -5   58.82    2.26
  -2   2   5  110.90    3.66
   2  -2   5  107.93    3.59
   0   2   5  111.14    3.86
  -2   0   5  106.87    3.61
   0  -2   5  110.00    3.86
   2   0   5  111.68    3.51
   2  -2   5  109.03    3.85
  -2   0   5  107.03    3.56
   2   0   5  105.60    3.90
  -2   0   5   99.18    3.89
  -2   2   5  111.92    3.87
  -2   0  -5  112.21    3.70
   0   2  -5  103.99    3.99
   2   0  -5  108.69    3.95
  -2   0  -5  111.89    3.94
   2  -2  -5  109.48    3.97
   2  -2  -5  108.88    3.57
   0  -2  -5  110.69    3.69
  -2   2  -5  107.30    3.95
   0  -2  -5  104.10    4.00
   0   2  -5  104.80    3.57
  -2   2  -5  110.75    3.67
   1  -3   5   43.11    1.60
  -3   2   5   45.91    1.60
   2   1   5   43.70    1.45
   3  -2   5   42.01    1.72
   3  -2   5   44.04    1.58
   2   1   5   44.87    1.76
  -1   3   5   43.58    1.68
  -2  -1   5   42.07    1.76
  -1   3   5   43.86    1.64
  -3   2   5   41.99    1.74
   1  -3   5   43.78    1.67
  -2  -1  -5   46.19    1.65
  -3   2  -5   43.01    1.70
   2   1  -5   45.76    1.77
   3  -2  -5   43.80    1.59
   1  -3  -5   45.62    1.84
   1  -3  -5   44.12    1.49
  -1   3  -5   43.54    1.57
  -2  -1  -5   45.89    1.77
   3  -2  -5   43.45    1.73
  -1   3  -5   43.82    1.82
   1   2   5  127.13    4.42
  -2   3   5  125.59    4.20
  -1  -2   5  119.78    4.41
  -2   3   5  127.84    4.37
  -1  -2   5  126.62    4.13
   3  -1   5  120.26    4.44
   2  -3   5  122.81    4.12
   3  -1   5  121.27    4.05
   2  -3   5  124.84    4.34
  -3   1   5  123.72    4.11
  -2   3  -5  121.35    4.17
   2  -3  -5  120.61    4.04
   2  -3  -5  123.62    4.55
  -1  -2  -5  121.02    4.55
   3  -1  -5  128.20    4.46
   1   2  -5  118.62    4.54
  -3   1  -5  126.93    4.44
  -3   1  -5  125.29    4.21
  -2   3  -5  115.32    4.52
  -1  -2  -5  126.59    4.21
   3   0   5    1.05    0.20
  -3   3   5    1.69    0.21
  -3   0   5    1.35    0.09
   0  -3   5    0.84    0.14
   0   3   5    1.06    0.17
   3  -3   5    1.30    0.18
  -3   0   5    1.14    0.21
   0  -3   5    0.96    0.16
  -3   3   5    1.22    0.17
   3  -3   5    1.23    0.17
   3   0   5    1.03    0.10
   0  -3  -5    1.13    0.07
  -3   0  -5    1.02    0.16
   0   3  -5    1.08    0.09
   3  -3  -5    1.08    0.18
  -3   0  -5    1.49    0.18
  -3   3  -5    1.22    0.17
   0  -3  -5    0.95    0.19
   0   3  -5    1.38    0.23
  -3   3  -5    1.19    0.18
   3   0  -5    1.21    0.17
   0  -3  -5    1.10    0.17
   3  -3  -5    2.07    0.17
  -4   3   5  165.56    5.29
  -1   4   5  166.11    5.47
  -1   4   5  154.43    5.31
  -3  -1   5  158.07    5.11
   4  -3   5  151.60    5.53
   3   1   5  147.22    5.61
  -3  -1   5  161.24    5.21
   1  -4   5  157.42    5.46
   1  -4   5  156.62    5.20
   3   1   5  151.41    5.05
   4  -3   5  154.25    5.19
  -3  -1   5  144.50    5.64
  -4   3   5  162.35    5.59
   1  -4  -5  156.60    5.04
  -3  -1  -5  155.95    5.67
  -1   4  -5  144.88    5.77
  -4   3  -5  157.56    5.32
  -3  -1  -5  160.10    5.32
   4  -3  -5  158.81    5.19
  -1   4  -5  155.07    5.23
   4  -3  -5  155.76    5.64
   1  -4  -5  145.93    5.80
   3   1  -5  162.15    5.66
  -4   3  -5  159.11    5.60
  -2  -2   5   31.99    1.25
   4  -2   5   30.86    1.21
   2   2   5   32.62    1.06
   2  -4   5   31.53    1.23
  -2   4   5   29.95    1.25
  -4   2   5   31.90    1.20
   4  -2   5   30.98    1.36
  -2  -2   5   32.44    1.40
  -4   2   5   32.22    1.40
  -2   4   5   31.23    1.25
   2   2   5   33.33    1.37
  -2  -2  -5   31.75    1.27
   2  -4  -5   31.53    1.44
  -2   4  -5   30.89    1.22
  -4   2  -5   31.19    1.27
   2   2  -5   31.04    1.37
   4  -2  -5   31.31    1.24
  -2  -2  -5   31.75    1.40
  -4   2  -5   31.68    1.26
   2  -4  -5   31.04    1.15
  -2   4  -5   29.54    1.40
   4  -2  -5   31.60    1.29
   1   3   5   53.09    2.07
   4  -1   5   53.52    2.18
  -1  -3   5   53.07    2.11
  -4   1   5   55.66    2.22
  -3   4   5   52.92    1.99
  -4   1   5   51.95    1.87
   4  -1   5   54.17    1.91
  -3   4   5   54.29    2.04
   3  -4   5   53.63    1.99
   3  -4   5   53.29    1.97
  -3   4  -5   55.36    2.17
  -3   4  -5   53.81    1.98
   4  -1  -5   53.64    1.97
   4  -1  -5   54.18    2.06
  -4   1  -5   52.90    2.00
   3  -4  -5   51.97    2.19
  -1  -3  -5   53.30    2.00
  -1  -3  -5   57.24    2.27
   3  -4  -5   52.26    1.90
   1   3  -5   53.71    1.83
   1   3  -5   53.79    2.21
  -4   1  -5   52.38    2.03
   4   0   5   39.77    1.39
   4  -4   5   38.34    1.50
  -4   4   5   36.60    1.48
  -4   4   5   37.60    1.55
   0  -4   5   36.17    1.46
   4  -4   5   37.71    1.48
  -4   0   5   35.59    1.33
  -4   0   5   38.52    1.71
   0  -4   5   37.83    1.53
   0   4   5   39.74    1.52
   4   0   5   37.25    1.68
  -4   0  -5   37.75    1.50
   4  -4  -5   40.01    1.63
  -4   4  -5   36.92    1.50
  -4   4  -5   37.50    1.56
   4   0  -5   35.55    1.46
   0  -4  -5   38.88    1.75
   0  -4  -5   38.63    1.52
   4  -4  -5   37.08    1.44
   4   0  -5   37.77    1.52
   0   4  -5   36.45    1.71
  -4   0  -5   39.28    1.54
   0  -4  -5   36.85    1.28
   0   4  -5   38.08    1.39
   4   1   5   64.48    2.59
  -4  -1   5   63.15    2.29
  -4  -1   5   61.27    2.12
  -1   5   5   65.09    2.32
   1  -5   5   62.43    2.28
   1  -5   5   61.07    2.32
  -4  -1   5   63.91    2.63
  -5   4   5   61.86    2.30
   5  -4   5   62.34    2.29
  -5   4   5   63.19    2.48
   4   1   5   63.62    2.15
  -1   5   5   60.49    2.33
   5  -4   5   60.94    2.39
  -1   5  -5   59.90    2.66
  -5   4  -5   61.67    2.35
  -4  -1  -5   58.40    2.31
  -5   4  -5   61.49    2.38
   5  -4  -5   61.70    2.28
   5  -4  -5   61.56    2.44
  -4  -1  -5   65.20    2.49
   4   1  -5   63.47    2.42
   1  -5  -5   60.92    2.11
   1  -5  -5   63.35    2.70
  -1   5  -5   60.53    2.24
  -2   5   5   32.59    1.27
   3   2   5   31.32    1.45
  -5   3   5   31.94    1.27
  -5   3   5   31.35    1.46
   2  -5   5   33.25    1.26
   2  -5   5   31.40    1.31
  -3  -2   5   31.73    1.30
  -3  -2   5   32.22    1.50
   5  -3   5   31.98    1.29
   5  -3   5   31.43    1.41
   3   2   5   31.59    1.13
  -2   5   5   30.81    1.32
   2  -5  -5   31.44    1.55
  -3  -2  -5   32.08    1.46
   5  -3  -5   32.33    1.33
   5  -3  -5   30.93    1.30
  -2   5  -5   32.23    1.28
  -3  -2  -5   32.33    1.33
  -5   3  -5   30.41    1.27
  -5   3  -5   33.34    1.35
   3   2  -5   31.90    1.40
   2  -5  -5   31.92    1.18
  -2   5  -5   31.63    1.54
   3  -5   5   17.75    0.83
  -5   2   5   16.62    0.74
  -5   2   5   16.79    0.96
  -3   5   5   16.92    0.83
   5  -2   5   17.02    0.93
   2   3   5   17.48    0.88
   5  -2   5   18.09    0.80
  -3   5   5   17.97    0.78
   3  -5   5   16.06    0.72
  -2  -3   5   16.75    0.80
  -2  -3   5   17.59    0.93
   2   3   5   17.21    0.63
  -5   2  -5   18.00    0.84
   5  -2  -5   17.16    0.82
  -5   2  -5   16.77    0.74
   2   3  -5   17.05    0.92
   3  -5  -5   16.80    0.97
  -2  -3  -5   17.90    0.97
  -3   5  -5   16.29    0.79
  -3   5  -5   17.53    0.95
  -2  -3  -5   17.51    0.83
   5  -2  -5   17.14    0.78
   3  -5  -5   16.76    0.74
   2   3  -5   16.10    0.65
   1   4   5   41.40    1.67
   4  -5   5   40.73    1.61
  -5   1   5   39.53    1.49
  -4   5   5   39.80    1.62
  -1  -4   5   40.37    1.59
  -1  -4   5   41.75    1.73
   5  -1   5   38.63    1.82
  -4   5   5   38.89    1.61
  -5   1   5   38.92    1.85
   4  -5   5   41.39    1.57
   5  -1   5   42.42    1.55
   5  -1  -5   41.59    1.61
   1   4  -5   42.07    1.87
   4  -5  -5   39.48    1.54
   4  -5  -5   41.15    1.82
  -1  -4  -5   42.79    1.92
  -4   5  -5   40.92    1.75
  -1  -4  -5   42.01    1.64
  -5   1  -5   41.04    1.60
  -1  -4  -5   40.59    1.38
  -4   5  -5   40.25    1.63
   5  -1  -5   40.83    1.61
   1   4  -5   39.34    1.46
  -5   1  -5   40.84    1.64
   5  -5   5    8.49    0.48
   0  -5   5    8.63    0.53
   0   5   5    8.56    0.49
  -5   5   5    8.88    0.54
  -5   0   5    8.80    0.41
  -5   0   5    8.52    0.67
   5   0   5    8.66    0.67
   0   5   5    8.21    0.53
  -5   5   5    7.85    0.52
   0  -5   5    8.36    0.52
   5  -5   5    8.22    0.53
   5   0   5    8.26    0.46
  -5   5  -5    8.08    0.51
   0   5  -5    8.77    0.45
   0   5  -5    8.46    0.68
   5  -5  -5    8.74    0.59
  -5   0  -5    8.90    0.51
   0  -5  -5    9.03    0.72
   5   0  -5    8.40    0.47
   5   0  -5    7.74    0.51
  -5   0  -5    7.43    0.51
   5  -5  -5    8.06    0.50
  -5   5  -5    9.60    0.56
   0  -5  -5    8.23    0.38
   1  -6   5   66.85    2.39
   6  -5   5   60.08    2.35
   5   1   5   61.35    2.21
  -5  -1   5   62.85    2.17
   6  -5   5   61.29    2.42
  -6   5   5   63.60    2.38
  -5  -1   5   61.84    2.73
   1  -6   5   59.29    2.33
   5   1   5   58.36    2.67
  -6   5   5   61.33    2.53
  -1   6   5   63.85    2.33
  -1   6   5   62.37    2.40
   6  -5  -5   63.14    2.34
   5   1  -5   64.05    2.43
   1  -6  -5   59.58    2.81
   1  -6  -5   61.49    2.15
  -1   6  -5   64.65    2.31
   5   1  -5   58.85    2.32
  -5  -1  -5   63.98    2.55
  -1   6  -5   60.10    2.79
  -5  -1  -5   61.52    2.38
   6  -5  -5   62.30    2.52
  -6   5  -5   61.32    2.41
  -6   5  -5   62.06    2.40
   4   2   5   41.25    1.89
  -4  -2   5   40.83    1.47
   2  -6   5   42.89    1.68
  -4  -2   5   43.86    1.67
   4   2   5   42.52    1.50
  -6   4   5   40.33    1.64
   2  -6   5   42.76    1.60
   6  -4   5   41.58    1.67
  -4  -2   5   40.46    1.95
   6  -4   5   39.23    1.76
  -2   6   5   40.90    1.70
  -6   4   5   41.47    1.86
  -2   6   5   40.08    1.59
  -6   4  -5   42.12    1.63
   6  -4  -5   41.77    1.71
   2  -6  -5   41.58    1.52
  -2   6  -5   40.41    1.63
   2  -6  -5   42.39    2.05
   6  -4  -5   41.17    1.66
  -4  -2  -5   42.42    1.88
   4   2  -5   41.53    1.75
  -4  -2  -5   41.84    1.69
  -2   6  -5   41.14    2.01
  -6   4  -5   39.85    1.70
  -3  -3   5    0.84    0.16
   6  -3   5    0.68    0.19
   3  -6   5    0.79    0.10
  -3  -3   5    0.88    0.22
   3  -6   5    1.46    0.24
   3   3   5    0.77    0.19
  -6   3   5    2.91    0.42
  -3   6   5    1.32    0.16
  -3   6   5    0.42    0.15
   6  -3   5    0.57    0.13
   3   3   5    0.78    0.09
  -6   3   5    0.97    0.16
  -3   6  -5    0.87    0.22
  -3  -3  -5    0.99    0.19
   3   3  -5    0.78    0.18
  -6   3  -5    0.72    0.10
   6  -3  -5    0.87    0.13
  -3  -3  -5    0.75    0.20
   6  -3  -5    0.74    0.16
   3  -6  -5    0.78    0.22
  -6   3  -5    0.91    0.19
   3  -6  -5    0.73    0.13
  -3   6  -5    0.51    0.12
  -4   6   5   18.63    0.83
   4  -6   5   18.83    0.92
   6  -2   5   18.76    0.88
   4  -6   5   18.57    0.77
  -4   6   5   17.79    0.91
  -2  -4   5   18.54    0.89
  -2  -4   5   17.25    1.00
   6  -2   5   19.93    1.11
  -6   2   5   18.45    1.10
   2   4   5   18.63    0.94
  -6   2   5   17.34    0.80
   6  -2  -5   18.51    0.81
   2   4  -5   17.86    0.74
   6  -2  -5   19.07    0.91
  -2  -4  -5   18.99    0.91
   4  -6  -5   17.12    1.07
  -6   2  -5   18.15    0.78
   4  -6  -5   17.25    0.82
  -2  -4  -5   18.70    1.12
  -6   2  -5   18.60    0.92
  -4   6  -5   17.87    0.89
   2   4  -5   18.83    1.05
  -4   6  -5   18.76    1.04
   6  -1   5   12.95    0.65
  -5   6   5   11.73    0.64
  -5   6   5   12.00    0.70
   5  -6   5   12.03    0.57
   5  -6   5   12.09    0.69
  -1  -5   5   12.82    0.75
  -6   1   5   10.78    0.83
  -1  -5   5   11.16    0.65
   6  -1   5   12.03    0.86
  -6   1   5   11.12    0.55
   1   5   5   11.86    0.66
  -6   1  -5   11.27    0.68
  -1  -5  -5   10.24    0.65
  -1  -5  -5   13.07    0.93
   5  -6  -5   12.99    0.82
   1   5  -5   12.67    0.87
  -5   6  -5   11.05    0.68
   1   5  -5   12.19    0.56
   6  -1  -5   12.07    0.58
   6  -1  -5   10.84    0.66
   5  -6  -5   11.10    0.63
  -5   6  -5   11.47    0.71
   0   6   5    0.71    0.12
  -6   0   5    0.70    0.11
  -6   6   5    0.82    0.18
   6  -6   5    0.86    0.20
   6   0   5    0.33    0.17
   6  -6   5    0.71    0.12
  -6   0   5    0.40    0.18
   6   0   5    0.63    0.10
   0  -6   5    0.66    0.10
   0  -6   5    0.58    0.16
  -6   6   5    0.56    0.13
   0   6   5    0.61    0.16
   6   0  -5    0.58    0.08
   6  -6  -5    0.67    0.14
   6   0  -5    0.66    0.17
   0  -6  -5    0.66    0.24
   0   6  -5    0.88    0.11
  -6   0  -5    0.41    0.14
   6  -6  -5    0.78    0.17
  -6   6  -5    0.63    0.11
   0   6  -5    0.43    0.18
  -6   6  -5    0.38    0.12
   1  -7   5   53.21    2.11
   7  -6   5   52.22    2.15
  -7   6   5   55.67    2.17
   6   1   5   55.87    2.55
   7  -6   5   54.55    2.16
  -6  -1   5   53.51    2.58
  -1   7   5   52.14    2.17
  -7   6   5   54.36    2.32
  -1   7  -5   55.22    2.08
  -6  -1  -5   50.77    2.14
   1  -7  -5   55.83    2.73
   7  -6  -5   51.33    2.11
   6   1  -5   53.95    2.13
   6   1  -5   53.48    2.13
  -7   6  -5   50.67    2.17
  -1   7  -5   51.80    2.60
   7  -6  -5   55.90    2.32
   7  -5   5   44.47    1.87
   7  -5   5   46.62    1.96
   2  -7   5   48.18    1.86
   5   2   5   44.00    2.13
  -2   7   5   45.16    1.89
  -5  -2   5   43.66    2.21
  -7   5   5   45.51    2.07
  -7   5   5   45.02    1.84
   2  -7  -5   44.62    1.68
   7  -5  -5   44.23    1.85
  -7   5  -5   43.30    1.89
   7  -5  -5   47.71    1.92
  -5  -2  -5   48.07    2.10
  -2   7  -5   43.35    2.26
  -5  -2  -5   44.74    1.87
   2  -7  -5   46.58    2.34
  -2   7  -5   46.13    1.83
   5   2  -5   45.47    1.90
  -7   4   5   93.18    3.33
  -4  -3   5   90.05    3.31
   7  -4   5   95.97    3.36
  -7   4   5   94.52    3.75
  -4  -3   5   88.37    3.78
   7  -4   5   93.21    3.65
   4   3   5   90.30    3.66
   3  -7   5   92.75    3.35
  -3   7   5   90.17    3.41
   3  -7  -5   95.60    3.19
  -7   4  -5   92.29    3.42
   3  -7  -5   86.35    3.90
  -3   7  -5   91.17    3.89
   4   3  -5   94.71    3.61
  -3   7  -5   96.51    3.39
  -4  -3  -5   88.37    3.77
   7  -4  -5   93.41    3.35
  -4  -3  -5   88.23    3.37
   7  -3   5   49.67    1.96
  -7   3   5   47.23    1.88
  -3  -4   5   49.67    2.26
   4  -7   5   46.65    1.95
   3   4   5   52.90    2.14
   7  -3   5   47.44    2.23
  -3  -4   5   50.85    1.96
  -4   7   5   46.66    1.99
  -7   3   5   49.83    2.30
   4  -7  -5   46.98    2.33
   4  -7  -5   47.76    1.84
   3   4  -5   49.29    2.18
  -4   7  -5   47.95    2.28
  -3  -4  -5   52.58    2.37
  -7   3  -5   48.87    2.01
   7  -3  -5   48.88    1.97
  -3  -4  -5   49.58    1.99
  -4   7  -5   51.43    2.00
  -7   2   5   32.10    1.72
   7  -2   5   33.80    1.38
   7  -2   5   30.89    1.67
  -5   7   5   30.54    1.42
   2   5   5   31.23    1.43
  -2  -5   5   30.76    1.57
  -2  -5   5   30.06    1.36
   5  -7   5   32.92    1.42
  -7   2   5   31.05    1.27
   7  -2  -5   32.71    1.41
   2   5  -5   33.06    1.66
   5  -7  -5   30.71    1.32
  -2  -5  -5   31.99    1.77
   5  -7  -5   29.55    1.63
  -5   7  -5   31.32    1.41
  -7   2  -5   32.07    1.42
  -5   7  -5   30.83    1.56
  -2  -5  -5   30.41    1.39
  -1  -6   5   51.71    2.07
   7  -1   5   52.51    2.52
  -7   1   5   50.83    1.95
   6  -7   5   49.56    2.09
  -1  -6   5   53.07    2.28
  -6   7   5   54.04    2.16
   7  -1   5   54.80    2.06
   1   6   5   52.47    2.14
   1   6   5   53.67    2.11
  -7   1   5   52.27    2.53
   6  -7  -5   51.38    2.05
   1   6  -5   52.59    2.51
  -6   7  -5   52.92    2.16
   6  -7  -5   53.62    2.41
  -1  -6  -5   54.60    2.66
  -6   7  -5   54.47    2.27
  -7   1  -5   49.04    2.11
   7  -1  -5   53.07    2.11
   7   0   5   57.15    2.74
   0  -7   5   57.75    2.26
   7  -7   5   57.18    2.31
  -7   7   5   57.36    2.32
   0   7   5   55.92    2.31
   7   0   5   58.70    2.18
  -7   0   5   56.45    2.75
  -7   0  -5   56.63    2.31
  -7   7  -5   57.60    2.34
   0  -7  -5   57.65    2.89
   7   0  -5   56.44    2.27
   7  -7  -5   58.91    2.27
  -7   7  -5   56.63    2.34
   0   7  -5   56.88    2.78
   7  -7  -5   53.72    2.51
  -7  -1   5   12.65    1.04
  -8   7   5   11.20    0.75
  -1   8   5   12.06    0.78
   7   1   5   13.41    1.05
   8  -7   5   13.45    0.82
   1  -8   5   13.30    0.79
  -1   8  -5   12.16    1.05
   8  -7  -5   12.89    0.79
  -7  -1  -5   12.08    0.77
  -8   7  -5   10.89    0.76
   1  -8  -5   13.08    1.12
   7   1  -5   11.61    0.76
   6   2   5   17.84    1.16
  -8   6   5   16.36    0.89
  -8   6   5   15.58    1.01
   8  -6   5   15.56    0.92
   8  -6   5   15.89    0.90
   2  -8   5   15.62    0.88
  -2   8   5   15.85    0.91
  -6  -2   5   15.54    1.16
   6   2  -5   15.46    0.89
  -6  -2  -5   14.85    0.88
  -2   8  -5   16.27    0.85
  -2   8  -5   15.85    1.20
  -8   6  -5   14.39    0.90
   2  -8  -5   17.44    1.31
   8  -6  -5   16.59    0.92
  -8   5   5   10.45    0.78
   5   3   5    9.83    0.77
  -3   8   5    8.24    0.61
  -8   5   5    8.20    0.56
  -5  -3   5    8.30    0.59
   8  -5   5    8.85    0.62
  -5  -3   5    9.12    0.80
   3  -8   5    8.87    0.61
   8  -5   5    7.79    0.62
   3  -8  -5    8.89    0.50
   3  -8  -5   10.10    0.92
  -5  -3  -5    8.46    0.60
  -3   8  -5    8.44    0.57
  -8   5  -5    7.58    0.59
   8  -5  -5   10.16    0.65
   5   3  -5    8.36    0.57
  -5  -3  -5    8.95    0.73
  -3   8  -5    8.69    0.81
   8  -4   5   13.08    0.89
   4  -8   5   11.06    0.71
  -4   8   5   10.93    0.73
  -4  -4   5   10.12    0.67
  -8   4   5   11.83    0.67
   8  -4   5   12.52    0.75
   4   4   5   11.76    0.81
  -4  -4   5   12.04    0.91
  -8   4   5   12.40    0.93
   4  -8  -5   10.96    0.61
  -4   8  -5   10.82    0.69
  -4  -4  -5   11.79    0.92
   4  -8  -5   12.70    1.03
  -4   8  -5   11.64    0.92
  -8   4  -5   10.12    0.70
  -4  -4  -5   11.74    0.72
   8  -4  -5   12.20    0.75
   4   4  -5   11.91    0.78
  -3  -5   5    6.70    0.49
   8  -3   5    7.43    0.52
  -8   3   5    6.15    0.76
  -5   8   5    5.49    0.48
   5  -8   5    5.87    0.50
   8  -3   5    6.58    0.75
  -8   3   5    5.96    0.42
   3   5   5    5.67    0.48
  -3  -5   5    6.60    0.62
  -5   8  -5    7.39    0.65
  -3  -5  -5    5.61    0.48
   3   5  -5    6.22    0.57
   5  -8  -5    6.29    0.44
  -5   8  -5    5.67    0.47
  -8   3  -5    6.14    0.51
   5  -8  -5    6.63    0.79
  -3  -5  -5    6.18    0.78
   8  -3  -5    6.83    0.52
  -6   8   5   23.42    1.22
   8  -2   5   24.24    1.16
  -2  -6   5   23.68    1.16
  -8   2   5   23.70    1.51
   8  -2   5   24.46    1.51
  -8   2   5   24.28    1.07
  -2  -6   5   26.77    1.37
   2   6   5   24.77    1.18
   6  -8   5   22.77    1.19
   6  -8  -5   24.54    1.14
   2   6  -5   25.67    1.48
  -6   8  -5   22.68    1.21
  -6   8  -5   25.90    1.35
   6  -8  -5   24.20    1.47
  -2  -6  -5   27.68    1.66
  -8   2  -5   23.19    1.20
   8  -2  -5   22.46    1.18
  -2  -6  -5   23.63    1.20
  -7   8   5   13.01    0.82
  -1  -7   5   12.56    0.77
   8  -1   5   12.95    1.05
   7  -8   5   12.37    0.80
  -8   1   5   12.53    1.05
   8  -1   5   13.08    0.73
   1   7   5   12.21    0.78
   7  -8  -5   12.91    0.93
  -8   1  -5   11.77    0.78
  -1  -7  -5   13.81    1.13
   1   7  -5   13.97    1.06
  -7   8  -5   12.69    0.81
  -7   8  -5   12.61    0.80
   7  -8  -5   12.20    0.74
   8  -1  -5   11.36    0.76
   8   0   5   17.84    1.29
  -8   0   5   15.85    1.22
   0   8   5   15.76    0.95
  -8   8   5   15.97    0.96
   8  -8   5   15.51    0.96
   0  -8   5   15.11    0.90
   8   0  -5   15.77    0.93
   8  -8  -5   15.77    0.92
   0  -8  -5   16.66    1.32
   0   8  -5   19.32    1.34
  -8   0  -5   16.01    0.94
  -8   8  -5   15.59    0.96
  -1   9   5    8.89    0.68
   9  -8   5    9.16    0.70
  -9   8   5    9.47    0.69
   8   1   5    9.61    0.91
  -8  -1   5   11.53    0.99
   1  -9   5    8.20    0.64
  -9   8  -5   10.00    0.73
   8   1  -5    9.15    0.68
   9  -8  -5    9.25    0.68
  -1   9  -5    9.38    0.94
  -8  -1  -5    9.01    0.67
   1  -9  -5   10.34    1.01
  -9   7   5   16.73    0.94
  -7  -2   5   15.37    1.19
   7   2   5   17.16    1.21
  -2   9   5   13.99    0.91
   2  -9   5   16.81    0.95
   9  -7   5   16.01    0.97
   2  -9  -5   16.88    1.34
   7   2  -5   15.72    0.92
  -9   7  -5   14.72    0.95
   9  -7  -5   13.95    0.90
  -2   9  -5   15.58    1.25
  -7  -2  -5   15.37    0.92
  -9   6   5    0.31    0.11
   3  -9   5    0.11    0.08
   6   3   5    0.10    0.13
  -9   6   5    0.47    0.17
  -3   9   5    0.25    0.10
   9  -6   5    0.49    0.13
  -6  -3   5    0.21    0.15
   9  -6   5   -0.02    0.08
  -6  -3  -5    0.25    0.09
  -3   9  -5    0.27    0.16
   9  -6  -5    0.06    0.06
   3  -9  -5    0.22    0.15
  -9   6  -5    0.09    0.08
  -3   9  -5    0.37    0.08
   6   3  -5    0.17    0.11
   4  -9   5   20.77    1.11
  -9   5   5   20.00    1.04
  -5  -4   5   21.51    1.09
  -5  -4   5   20.94    1.36
  -4   9   5   20.40    1.13
  -9   5   5   20.74    1.32
   9  -5   5   20.12    1.22
   9  -5   5   21.88    1.13
   5   4   5   21.89    1.28
   4  -9  -5   21.13    0.98
  -4   9  -5   20.09    1.39
  -4   9  -5   20.57    1.08
   4  -9  -5   18.45    1.42
   9  -5  -5   20.59    1.11
  -5  -4  -5   18.72    1.06
  -5  -4  -5   24.24    1.38
   5   4  -5   19.26    1.10
  -9   5  -5   19.43    1.11
   5  -9   5   33.93    1.59
  -5   9   5   33.18    1.60
   9  -4   5   34.31    1.59
   9  -4   5   35.54    1.87
  -4  -5   5   33.35    1.54
  -9   4   5   33.44    1.91
   4   5   5   33.64    1.68
  -4  -5   5   35.25    1.87
  -9   4   5   32.92    1.49
  -5   9  -5   37.46    1.95
   9  -4  -5   33.44    1.58
   5  -9  -5   37.93    2.09
   5  -9  -5   35.59    1.48
  -5   9  -5   34.70    1.59
  -9   4  -5   32.37    1.59
  -4  -5  -5   37.62    2.00
   4   5  -5   35.80    1.75
  -4  -5  -5   32.79    1.56
   3   6   5    1.07    0.18
   9  -3   5    0.64    0.22
  -3  -6   5    0.92    0.21
   6  -9   5    1.92    0.33
  -3  -6   5    1.32    0.27
  -6   9   5    0.90    0.22
  -9   3   5    0.97    0.19
  -9   3   5    0.90    0.28
   9  -3   5    1.04    0.21
  -3  -6  -5    0.43    0.13
   9  -3  -5    0.61    0.18
  -6   9  -5    1.00    0.23
  -3  -6  -5    0.81    0.20
   6  -9  -5    0.81    0.24
  -9   3  -5    0.74    0.20
   6  -9  -5    1.03    0.20
  -6   9  -5    1.01    0.21
   3   6  -5    0.57    0.18
  -2  -7   5   33.45    1.55
   7  -9   5   33.97    1.62
   9  -2   5   34.48    1.99
   2   7   5   34.67    1.62
  -9   2   5   35.78    2.02
   9  -2   5   34.61    1.55
  -7   9   5   32.66    1.62
   2   7  -5   34.41    1.93
  -2  -7  -5   34.56    2.05
   9  -2  -5   33.39    1.60
  -7   9  -5   36.60    1.76
   7  -9  -5   34.10    1.90
  -7   9  -5   34.96    1.65
   7  -9  -5   34.87    1.54
  -9   2  -5   32.17    1.58
  -8   9   5    4.74    0.55
   1   8   5    4.24    0.52
   8  -9   5    4.53    0.55
  -9   1   5    3.54    0.63
   9  -1   5    4.40    0.69
  -1  -8   5    4.09    0.48
   8  -9  -5    4.64    0.51
  -1  -8  -5    5.55    0.84
   9  -1  -5    4.82    0.54
  -9   1  -5    3.91    0.51
   1   8  -5    5.89    0.79
  -8   9  -5    4.15    0.52
  -9   9   5    1.70    0.33
   0   9   5    2.40    0.39
   0  -9   5    2.49    0.38
   9   0   5    2.34    0.51
   9  -9   5    2.20    0.38
  -9   0   5    1.61    0.39
   9   0  -5    2.70    0.40
   0  -9  -5    1.94    0.43
  -9   0  -5    2.06    0.34
  -9   9  -5    3.03    0.45
   9  -9  -5    2.52    0.35
   0   9  -5    2.19    0.51
  -9  -1   5   27.74    1.78
  10  -9   5   26.72    1.45
   9   1   5   27.70    1.78
 -10   9   5   26.03    1.40
   1 -10   5   26.31    1.37
  -1  10   5   25.32    1.41
  -9  -1  -5   25.94    1.40
  -1  10  -5   27.85    1.86
   9   1  -5   25.64    1.38
  10  -9  -5   27.06    1.42
   1 -10  -5   27.49    1.87
 -10   9  -5   27.35    1.48
   2 -10   5    4.13    0.51
  -8  -2   5    3.86    0.66
 -10   8   5    3.96    0.50
  -2  10   5    3.93    0.52
   8   2   5    4.49    0.70
  10  -8   5    4.80    0.58
   2 -10  -5    3.94    0.73
   8   2  -5    4.39    0.53
  -2  10  -5    4.25    0.74
 -10   8  -5    3.12    0.47
  -8  -2  -5    3.36    0.47
  10  -8  -5    4.33    0.54
  -7  -3   5   34.61    2.00
 -10   7   5   32.90    1.57
   3 -10   5   32.20    1.57
  -3  10   5   33.47    1.65
  10  -7   5   32.79    1.63
   7   3   5   33.58    1.91
   3 -10  -5   36.27    2.16
 -10   7  -5   31.34    1.62
  -7  -3  -5   33.84    1.61
  -3  10  -5   30.71    2.00
   7   3  -5   32.57    1.58
  10  -7  -5   33.08    1.62
  -6  -4   5   32.73    1.88
 -10   6   5   32.52    1.78
  10  -6   5   31.82    1.56
  10  -6   5   35.13    1.71
   4 -10   5   31.08    1.53
   6   4   5   33.90    1.79
  -4  10   5   29.75    1.56
 -10   6   5   31.59    1.50
  -4  10  -5   30.70    1.93
   4 -10  -5   31.68    2.01
 -10   6  -5   30.08    1.55
  10  -6  -5   33.04    1.58
  -4  10  -5   30.17    1.49
   6   4  -5   31.52    1.51
  -6  -4  -5   29.78    1.51
   5 -10   5    5.08    0.56
  10  -5   5    4.61    0.53
 -10   5   5    4.32    0.40
 -10   5   5    4.28    0.61
   5   5   5    4.16    0.55
  10  -5   5    4.56    0.63
  -5  -5   5    5.39    0.72
  -5  10   5    4.28    0.54
  -5  -5   5    4.12    0.49
   5 -10  -5    4.78    0.76
  -5  10  -5    4.33    0.50
   5 -10  -5    4.41    0.36
   5   5  -5    4.95    0.45
  -5  10  -5    3.73    0.64
  10  -5  -5    4.17    0.52
  -5  -5  -5    3.67    0.48
  -5  -5  -5    4.72    0.61
 -10   5  -5    4.50    0.54
  -4  -6   5   33.78    1.63
  -6  10   5   35.28    1.74
   4   6   5   35.66    1.75
 -10   4   5   36.19    1.59
  10  -4   5   36.75    1.70
 -10   4   5   36.68    2.06
  -4  -6   5   41.64    1.99
  10  -4   5   36.93    2.01
   6 -10   5   32.71    1.66
   6 -10  -5   38.90    2.15
  -6  10  -5   35.84    1.71
 -10   4  -5   34.65    1.70
  -6  10  -5   38.35    2.03
   6 -10  -5   34.55    1.57
   4   6  -5   35.60    1.87
  -4  -6  -5   40.93    2.15
  -4  -6  -5   35.91    1.69
  10  -4  -5   36.09    1.71
  -7  10   5   41.29    1.94
   7 -10   5   40.25    1.89
  -3  -7   5   39.89    1.82
  10  -3   5   44.23    2.32
  10  -3   5   43.29    1.87
 -10   3   5   41.84    2.29
 -10   3  -5   39.90    1.90
  -3  -7  -5   42.72    2.36
   3   7  -5   43.36    2.21
  10  -3  -5   42.60    1.92
   7 -10  -5   42.28    2.24
  -7  10  -5   42.94    1.94
   7 -10  -5   37.51    1.75
  -7  10  -5   41.65    2.10
  10  -2   5    8.83    1.04
  -8  10   5    6.77    0.62
 -10   2   5    8.52    1.02
   8 -10   5    8.27    0.67
   2   8   5    8.28    0.66
  -2  -8   5    8.34    0.62
   8 -10  -5    7.56    0.58
  -8  10  -5    8.27    0.65
  10  -2  -5    7.98    0.65
  -2  -8  -5    9.08    0.87
 -10   2  -5    8.88    0.68
   2   8  -5    8.62    0.83
  -9  10   5   29.72    1.60
   9 -10   5   31.51    1.62
  -1  -9   5   31.91    1.56
   1   9   5   32.58    1.63
  10  -1   5   34.03    2.04
 -10   1   5   33.73    2.04
 -10   1  -5   32.69    1.62
  -9  10  -5   32.58    1.67
   9 -10  -5   32.42    1.56
   1   9  -5   31.60    1.97
  -1  -9  -5   34.71    2.10
  10  -1  -5   29.87    1.57
 -10  10   5   43.68    2.08
   0  10   5   42.34    2.05
  10   0   5   45.97    2.54
 -10   0   5   44.11    2.49
  10 -10   5   43.49    2.08
   0  10  -5   44.58    2.55
  10   0  -5   43.92    2.05
 -10  10  -5   43.00    2.10
   0 -10  -5   49.00    2.68
 -10   0  -5   44.14    2.05
  10 -10  -5   45.01    2.03
   2 -11   5    2.96    0.41
   9   2   5    3.46    0.58
 -11   9   5    3.02    0.42
  11  -9   5    3.37    0.46
  -2  11   5    3.08    0.46
  -9  -2   5    2.52    0.49
   2 -11  -5    2.26    0.53
  11  -9  -5    2.93    0.43
   9   2  -5    2.22    0.34
  -2  11  -5    2.60    0.57
  -9  -2  -5    2.90    0.43
 -11   9  -5    2.68    0.42
 -11   8   5    2.41    0.38
  -3  11   5    2.75    0.42
   8   3   5    2.94    0.53
  11  -8   5    3.43    0.48
   3 -11   5    2.81    0.41
  -8  -3   5    2.79    0.51
  11  -8  -5    2.88    0.44
  -3  11  -5    3.02    0.62
   8   3  -5    3.48    0.45
  -8  -3  -5    2.31    0.36
   3 -11  -5    2.66    0.56
 -11   8  -5    2.60    0.43
  -4  11   5    6.02    0.68
  -7  -4   5    6.76    0.83
   7   4   5    6.27    0.77
   4 -11   5    6.13    0.55
  11  -7   5    5.57    0.51
 -11   7   5    6.28    0.53
 -11   7  -5    7.26    0.63
   4 -11  -5    7.34    1.00
  11  -7  -5    6.71    0.59
  -7  -4  -5    6.62    0.57
   7   4  -5    6.46    0.56
  -4  11  -5    6.01    0.89
 -11   6   5    5.30    0.66
  -5  11   5    5.86    0.65
 -11   6   5    4.58    0.44
   6   5   5    5.66    0.53
  11  -6   5    5.85    0.51
   5 -11   5    5.84    0.53
  -6  -5   5    5.45    0.73
  11  -6   5    6.02    0.71
   6   5  -5    5.74    0.51
 -11   6  -5    4.79    0.59
   5 -11  -5    7.17    0.98
  11  -6  -5    4.84    0.59
  -5  11  -5    6.06    0.83
  -5  11  -5    4.92    0.42
  -6  -5  -5    5.44    0.59
 -11   5   5   15.59    1.16
  -5  -6   5   14.99    0.92
 -11   5   5   14.20    0.85
  11  -5   5   15.54    1.12
  -5  -6   5   17.73    1.16
  11  -5   5   14.52    0.92
  -6  11   5   14.20    0.98
   6 -11   5   13.90    0.94
   5   6   5   15.14    0.96
   6 -11  -5   15.74    1.21
  11  -5  -5   13.53    0.93
   5   6  -5   14.58    0.96
  -5  -6  -5   15.91    0.97
  -6  11  -5   13.55    1.10
  -6  11  -5   14.73    0.92
 -11   5  -5   14.27    0.96
 -11   4   5   12.64    1.04
  11  -4   5   11.28    0.75
  11  -4   5   12.19    1.00
  -4  -7   5   11.25    0.77
  -7  11   5   11.29    0.85
   7 -11   5   10.67    0.79
  -7  11  -5   12.55    0.82
 -11   4  -5   11.81    0.84
   7 -11  -5   11.07    0.71
   7 -11  -5   12.14    0.97
   4   7  -5   12.46    0.91
  11  -4  -5   11.42    0.83
  -4  -7  -5   10.34    0.93
  -7  11  -5   11.04    0.91
  11  -3   5    0.95    0.26
  -3  -8   5    0.58    0.12
   8 -11   5    1.00    0.26
  -8  11   5    1.08    0.26
 -11   3   5    0.55    0.14
   3   8   5    1.18    0.22
   8 -11  -5    0.63    0.15
 -11   3  -5    0.73    0.18
  11  -3  -5    0.46    0.16
  -3  -8  -5    0.35    0.16
   3   8  -5    0.73    0.15
  -8  11  -5    1.01    0.21
   2   9   5    8.07    0.65
  -9  11   5    6.95    0.65
  -2  -9   5    7.30    0.59
 -11   2   5    8.36    1.02
  11  -2   5    7.50    0.98
   9 -11   5    8.67    0.71
  11  -2  -5    7.78    0.66
 -11   2  -5    7.26    0.62
   9 -11  -5    7.54    0.59
   2   9  -5    7.65    0.76
  -2  -9  -5    9.32    0.88
  -9  11  -5    8.31    0.65
   7   5   5   10.90    0.86
   5 -12   5   10.56    0.79
  12  -7   5   11.41    0.79
 -12   7   5   11.62    0.79
  -7  -5  -5   11.33    0.80
   5 -12  -5   11.57    1.03
  12  -7  -5   10.99    0.82
  -5  12  -5   10.03    0.98
   7   5  -5   12.32    0.80
 -12   7  -5   10.33    0.81
  -6  12   5    0.03    0.09
  12  -6   5    0.43    0.15
   6 -12   5    0.39    0.12
 -12   6   5    0.29    0.13
  12  -6   5    0.41    0.10
 -12   6  -5    0.45    0.13
  12  -6  -5    0.28    0.10
  -6  12  -5    0.34    0.10
  -6  -6  -5    0.36    0.11
   6   6  -5    0.23    0.09
  -6  12  -5    0.23    0.14
   6 -12  -5    0.28    0.14
  -7  12   5   14.10    0.99
  12  -5   5   14.48    1.10
  12  -5   5   14.14    0.91
 -12   5   5   13.57    1.05
   7 -12   5   13.93    0.96
  -5  -7   5   14.13    0.92
  -7  12  -5   16.08    1.16
  12  -5  -5   13.35    0.95
  -5  -7  -5   15.11    0.98
  -7  12  -5   14.70    0.93
   7 -12  -5   15.67    1.15
 -12   5  -5   12.29    0.92
   0   0   6    8.65    0.38
   0   0   6    8.70    0.48
   0   0  -6    8.66    0.38
   0   0  -6    8.48    0.48
  -1   0   6   90.12    3.03
   1   0   6   93.80    2.96
   1   0   6   91.81    3.31
   1  -1   6   90.64    3.01
  -1   0   6   89.62    3.01
   0  -1   6   87.04    3.28
   0   1   6   93.29    3.30
  -1   1   6   90.62    3.29
   0  -1   6   88.34    3.03
   1  -1   6   87.06    3.28
  -1   1   6   90.96    3.07
  -1   0   6   92.12    3.31
   0  -1  -6   88.14    3.37
   1  -1  -6   91.89    3.00
   0  -1  -6   95.31    3.11
  -1   1  -6   90.32    3.37
  -1   0  -6   93.20    3.37
  -1   1  -6   93.86    3.07
   0   1  -6   89.86    3.38
   1  -1  -6   90.53    3.37
   0   1  -6   87.66    3.01
   1   0  -6   90.70    3.37
  -1   0  -6   93.59    3.10
   1  -2   6   29.54    1.10
  -2   1   6   29.16    1.22
  -2   1   6   28.97    1.05
  -1   2   6   27.59    1.11
  -1  -1   6   29.47    1.11
   1   1   6   29.24    1.23
  -1  -1   6   28.61    1.22
   2  -1   6   28.39    1.22
   1  -2   6   29.30    1.19
   2  -1   6   28.71    1.04
  -1   2  -6   28.10    1.24
   2  -1  -6   29.57    1.09
  -2   1  -6   29.34    1.21
   1   1  -6   28.59    1.24
   1  -2  -6   28.81    1.26
  -1   2  -6   28.36    1.06
  -1  -1  -6   28.95    1.12
   2  -1  -6   28.60    1.22
   1  -2  -6   29.83    1.02
  -1  -1  -6   28.69    1.24
  -2   1  -6   29.28    1.12
   0   2   6  127.96    4.44
   0  -2   6  122.21    4.13
  -2   0   6  123.71    4.08
   2  -2   6  121.43    4.10
   2  -2   6  124.49    4.42
  -2   0   6  124.77    4.48
  -2   0   6  122.09    4.13
   2   0   6  119.74    4.46
   0  -2   6  122.61    4.42
  -2   2   6  127.36    4.44
  -2   2   6  125.77    4.19
   2   0   6  124.10    4.01
   2   0  -6  124.18    4.54
  -2   0  -6  128.87    4.53
   0   2  -6  117.15    4.08
   0  -2  -6  129.61    4.23
  -2   2  -6  127.04    4.20
   0   2  -6  123.76    4.58
   2  -2  -6  121.38    4.55
   2  -2  -6  124.10    4.09
  -2   0  -6  126.78    4.23
  -2   2  -6  128.11    4.55
   0  -2  -6  122.36    4.58
   1  -3   6  232.11    7.75
   3  -2   6  228.49    7.71
   2   1   6  239.84    8.34
  -2  -1   6  225.91    8.33
  -1   3   6  242.21    7.93
  -3   2   6  243.71    7.87
   3  -2   6  232.35    8.30
   1  -3   6  241.48    8.25
  -1   3   6  258.90    8.28
  -2  -1   6  234.24    7.76
  -3   2   6  249.50    8.34
   3  -2  -6  237.73    8.47
  -3   2  -6  249.70    8.46
  -2  -1  -6  247.76    8.51
  -2  -1  -6  244.79    7.94
   1  -3  -6  238.19    7.62
   2   1  -6  238.57    8.50
  -1   3  -6  227.11    7.83
  -3   2  -6  253.15    7.94
  -1   3  -6  223.23    8.54
   3  -2  -6  225.51    7.72
   1  -3  -6  229.69    8.56
   3  -1   6  139.09    4.59
   2  -3   6  138.70    4.95
  -1  -2   6  141.61    4.68
  -1  -2   6  138.39    5.02
  -3   1   6  136.17    5.05
  -3   1   6  140.79    4.66
   3  -1   6  136.37    5.04
  -2   3   6  146.56    4.98
  -2   3   6  138.08    4.75
   1   2   6  143.29    5.02
   2  -3   6  134.61    4.66
   3  -1  -6  140.87    5.08
  -1  -2  -6  144.10    5.17
  -3   1  -6  146.60    4.78
  -3   1  -6  142.10    5.06
   1   2  -6  139.19    5.16
  -2   3  -6  138.21    5.14
   2  -3  -6  143.92    4.59
  -2   3  -6  145.03    4.73
   2  -3  -6  137.96    5.16
   3  -1  -6  137.41    4.66
   3  -3   6    4.02    0.30
  -3   3   6    4.91    0.32
  -3   0   6    4.38    0.38
   0   3   6    4.40    0.33
   3   0   6    5.15    0.39
   3   0   6    4.73    0.24
   0  -3   6    4.51    0.32
  -3   0   6    5.12    0.34
  -3   3   6    4.26    0.34
   0  -3   6    5.11    0.35
  -3   0   6    4.54    0.21
   3  -3   6    4.98    0.33
   0   3  -6    4.97    0.23
   0  -3  -6    4.14    0.32
  -3   3  -6    4.62    0.34
  -3   0  -6    4.41    0.32
  -3   0  -6    4.45    0.32
   0   3  -6    5.09    0.40
  -3   3  -6    4.80    0.32
   0  -3  -6    3.86    0.37
   3  -3  -6    4.73    0.30
   3  -3  -6    5.19    0.38
   3   0  -6    5.21    0.35
   1  -4   6  144.95    5.13
   3   1   6  145.81    5.29
  -3  -1   6  146.96    4.89
  -1   4   6  150.99    5.15
   3   1   6  144.06    4.69
   1  -4   6  147.12    4.88
  -3  -1   6  140.33    5.31
   4  -3   6  146.11    4.86
  -4   3   6  154.52    4.95
  -1   4   6  140.63    4.97
   4  -3   6  142.71    5.20
  -4   3   6  146.76    5.24
  -3  -1  -6  146.65    4.99
   3   1  -6  146.28    5.31
  -4   3  -6  145.01    4.99
  -1   4  -6  144.40    4.88
   4  -3  -6  141.34    5.29
  -4   3  -6  148.39    5.26
   4  -3  -6  149.65    4.87
   1  -4  -6  144.76    4.69
  -1   4  -6  136.57    5.42
   1  -4  -6  140.94    5.44
  -3  -1  -6  145.41    5.32
  -4   2   6   17.89    0.76
  -2  -2   6   18.09    0.83
   2   2   6   18.44    0.92
  -4   2   6   17.34    0.93
   4  -2   6   19.79    0.80
   2  -4   6   19.03    0.84
   4  -2   6   18.12    0.91
   2  -4   6   18.26    0.81
  -2  -2   6   17.80    0.93
  -2   4   6   17.97    0.83
  -2   4   6   18.11    0.84
  -2   4  -6   18.39    0.96
  -2  -2  -6   18.08    0.94
   4  -2  -6   18.49    0.86
   2  -4  -6   17.43    0.72
   2   2  -6   18.19    0.92
   2  -4  -6   18.80    0.98
  -4   2  -6   18.23    0.83
  -2  -2  -6   17.42    0.83
   4  -2  -6   18.82    0.83
  -4   2  -6   18.72    0.85
  -2   4  -6   18.38    0.79
  -1  -3   6  119.79    4.10
  -1  -3   6  125.83    4.41
  -4   1   6  122.87    4.49
  -3   4   6  117.06    4.17
   4  -1   6  118.87    4.46
   4  -1   6  118.03    4.01
  -3   4   6  118.79    4.32
   3  -4   6  118.56    4.28
  -4   1   6  113.62    4.02
   1   3   6  120.70    4.37
   3  -4   6  120.99    4.11
   4  -1  -6  118.52    4.09
   3  -4  -6  122.49    4.55
  -1  -3  -6  124.75    4.20
  -3   4  -6  124.90    4.17
  -1  -3  -6  121.19    4.58
   3  -4  -6  121.74    4.02
  -3   4  -6  122.32    4.51
  -4   1  -6  118.83    4.19
   4  -1  -6  121.81    4.40
   1   3  -6  117.56    4.54
  -4   1  -6  123.86    4.39
   4   0   6  128.88    4.27
   0  -4   6  131.92    4.66
   4  -4   6  123.37    4.38
  -4   0   6  127.49    4.27
  -4   0   6  127.81    4.83
   4   0   6  123.94    4.79
  -4   4   6  127.49    4.45
   0  -4   6  132.53    4.40
  -4   4   6  129.80    4.67
   4  -4   6  131.68    4.62
   0   4   6  133.27    4.63
  -4   4  -6  134.18    4.50
   4  -4  -6  128.54    4.81
   0   4  -6  118.76    4.89
  -4   0  -6  129.53    4.49
   4   0  -6  130.70    4.40
   4  -4  -6  130.44    4.35
   0  -4  -6  123.83    4.93
  -4   4  -6  130.20    4.76
  -4   0  -6  132.32    4.73
   4   0  -6  130.95    4.73
   0  -4  -6  133.21    4.51
   0   4  -6  127.32    4.32
  -4  -1   6   11.79    0.65
   1  -5   6   11.72    0.60
   4   1   6   11.56    0.76
  -5   4   6   10.82    0.60
  -1   5   6   11.07    0.64
  -5   4   6   10.19    0.67
   5  -4   6   11.84    0.65
  -1   5   6   11.79    0.60
   4   1   6   12.42    0.52
  -4  -1   6   12.25    0.79
   5  -4   6   11.00    0.63
   1  -5   6   11.62    0.65
   5  -4  -6   11.98    0.67
   1  -5  -6   10.83    0.78
  -1   5  -6   12.35    0.57
  -5   4  -6   11.83    0.62
   5  -4  -6   11.19    0.62
  -1   5  -6   10.99    0.77
  -4  -1  -6   10.62    0.63
   4   1  -6   11.69    0.64
   1  -5  -6   10.53    0.47
  -4  -1  -6   11.72    0.67
  -5   4  -6   11.61    0.65
  -2   5   6  100.57    3.61
  -3  -2   6  104.03    3.51
  -2   5   6   97.73    3.56
  -3  -2   6   97.22    3.84
  -5   3   6  101.08    3.49
  -5   3   6   99.61    3.81
   5  -3   6   97.60    3.47
   2  -5   6  102.04    3.59
   3   2   6   97.85    3.79
   5  -3   6   96.75    3.75
   2  -5   6   99.81    3.50
  -2   5  -6  103.63    3.51
  -5   3  -6  102.87    3.59
   2  -5  -6   96.93    3.33
  -5   3  -6  101.73    3.68
   3   2  -6  101.70    3.81
  -3  -2  -6  102.77    3.57
  -3  -2  -6  102.05    3.87
   5  -3  -6   98.69    3.48
   2  -5  -6   96.88    3.96
  -2   5  -6   97.86    3.95
   5  -3  -6  100.28    3.73
  -3   5   6   85.74    3.06
   3  -5   6   82.48    3.04
   5  -2   6   85.71    3.29
  -5   2   6   80.71    2.92
  -5   2   6   84.66    3.32
  -2  -3   6   86.02    3.00
   5  -2   6   83.04    2.94
   3  -5   6   86.14    3.01
  -3   5   6   86.72    3.10
   2   3   6   83.10    3.21
  -2  -3   6   83.86    3.27
  -2  -3  -6   86.48    3.39
  -3   5  -6   84.01    3.34
   3  -5  -6   82.71    2.88
  -2  -3  -6   84.89    3.06
  -5   2  -6   83.04    3.11
  -5   2  -6   85.44    3.07
   5  -2  -6   81.95    2.98
  -3   5  -6   85.14    3.03
   2   3  -6   84.41    3.31
   3  -5  -6   84.23    3.39
   5  -2  -6   83.32    3.16
   4  -5   6    2.92    0.23
  -4   5   6    2.66    0.24
   4  -5   6    2.67    0.32
   1   4   6    2.22    0.28
  -4   5   6    2.52    0.30
  -1  -4   6    2.76    0.34
  -1  -4   6    2.48    0.31
  -5   1   6    2.25    0.38
   5  -1   6    2.72    0.39
  -5   1   6    2.62    0.18
   5  -1   6    2.38    0.21
  -1  -4  -6    2.43    0.30
   1   4  -6    2.32    0.37
   5  -1  -6    2.62    0.22
   5  -1  -6    2.56    0.30
  -4   5  -6    2.60    0.33
  -5   1  -6    2.54    0.21
  -1  -4  -6    2.71    0.41
   4  -5  -6    2.48    0.36
   4  -5  -6    2.34    0.22
  -5   1  -6    2.48    0.31
  -4   5  -6    2.79    0.30
   0  -5   6   71.73    2.67
  -5   5   6   68.25    2.67
  -5   0   6   69.11    2.36
   5  -5   6   69.08    2.60
  -5   0   6   64.36    2.86
  -5   5   6   67.87    2.56
   0   5   6   67.50    2.59
   0  -5   6   65.61    2.52
   5  -5   6   71.15    2.56
   5   0   6   71.50    2.43
   5   0   6   68.88    2.87
   0   5   6   68.64    2.60
  -5   0  -6   65.11    2.57
   5   0  -6   68.05    2.64
   5  -5  -6   68.33    2.78
   0  -5  -6   68.34    2.97
   5   0  -6   66.59    2.53
  -5   5  -6   69.16    2.59
   0   5  -6   65.58    2.91
   5  -5  -6   69.83    2.50
  -5   5  -6   67.36    2.69
  -5   0  -6   70.34    2.67
   0   5  -6   71.91    2.44
   6  -5   6   86.07    3.30
  -1   6   6   81.38    3.22
  -6   5   6   92.44    3.44
  -6   5   6   84.71    3.19
   1  -6   6   89.17    3.27
   6  -5   6   89.83    3.20
  -5  -1   6   86.07    3.60
  -1   6   6   90.14    3.22
   5   1   6   86.01    3.56
   1  -6   6   88.04    3.17
  -5  -1  -6   86.66    3.42
  -5  -1  -6   86.16    3.23
   5   1  -6   86.16    3.16
  -6   5  -6   87.61    3.26
  -6   5  -6   87.78    3.31
   6  -5  -6   87.61    3.15
  -1   6  -6   89.11    3.13
   5   1  -6   87.89    3.34
   1  -6  -6   85.22    3.71
  -1   6  -6   83.80    3.67
   6  -5  -6   92.85    3.45
  -2   6   6  144.53    5.01
  -6   4   6  146.52    4.93
   2  -6   6  140.89    4.89
   6  -4   6  134.44    5.21
   2  -6   6  144.87    5.04
  -4  -2   6  142.19    4.88
   6  -4   6  139.63    4.89
   4   2   6  135.38    5.32
  -4  -2   6  137.68    5.41
  -2   6   6  148.36    5.05
  -6   4   6  143.24    5.32
   6  -4  -6  144.85    5.24
  -6   4  -6  142.91    5.02
   2  -6  -6  135.55    5.56
   6  -4  -6  142.41    4.89
  -6   4  -6  144.95    5.15
  -4  -2  -6  142.68    4.99
  -4  -2  -6  141.02    5.37
   4   2  -6  145.22    5.29
   2  -6  -6  142.70    4.69
  -2   6  -6  143.78    5.56
  -2   6  -6  144.76    4.92
  -6   3   6    4.88    0.35
  -6   3   6    4.85    0.48
   6  -3   6    5.42    0.47
   3  -6   6    5.48    0.32
  -3   6   6    5.18    0.42
  -3  -3   6    5.23    0.49
  -3  -3   6    5.10    0.40
   3   3   6    5.16    0.46
  -3   6   6    5.79    0.35
   6  -3   6    5.38    0.40
   3  -6   6    5.67    0.43
  -6   3  -6    4.94    0.32
   6  -3  -6    5.78    0.43
  -3  -3  -6    5.34    0.42
  -3  -3  -6    6.09    0.52
   3   3  -6    5.76    0.46
   3  -6  -6    4.76    0.58
  -3   6  -6    5.55    0.51
   6  -3  -6    5.79    0.37
  -6   3  -6    5.53    0.43
   3  -6  -6    6.33    0.36
  -3   6  -6    4.96    0.38
   6  -2   6   69.79    2.88
  -2  -4   6   65.39    2.53
  -6   2   6   66.75    2.44
  -6   2   6   69.79    2.91
  -2  -4   6   69.08    2.81
  -4   6   6   68.43    2.61
   6  -2   6   73.30    2.54
   4  -6   6   65.92    2.51
  -4   6   6   66.77    2.58
   2   4   6   72.19    2.73
   4  -6   6   67.32    2.57
  -4   6  -6   70.87    2.61
  -6   2  -6   67.80    2.61
   2   4  -6   68.31    2.87
   4  -6  -6   70.33    2.93
  -2  -4  -6   70.50    2.97
  -4   6  -6   66.74    2.84
   4  -6  -6   66.96    2.44
  -2  -4  -6   67.24    2.59
   6  -2  -6   66.67    2.54
  -6   2  -6   69.09    2.58
   6  -2  -6   70.89    2.62
  -5   6   6   55.24    2.18
   1   5   6   56.24    2.19
  -6   1   6   54.84    1.97
   5  -6   6   52.90    2.13
   5  -6   6   54.48    2.08
  -6   1   6   52.67    2.45
  -1  -5   6   55.72    2.29
   6  -1   6   57.79    2.07
  -5   6   6   54.52    2.16
   6  -1   6   55.00    2.46
  -1  -5   6   52.17    2.10
  -5   6  -6   53.85    2.29
  -1  -5  -6   56.24    2.56
   5  -6  -6   55.29    2.06
  -5   6  -6   54.29    2.17
   6  -1  -6   52.34    2.12
   6  -1  -6   55.93    2.14
  -1  -5  -6   55.19    2.16
  -6   1  -6   50.95    2.15
   5  -6  -6   57.69    2.41
   1   5  -6   53.99    2.46
   6   0   6    9.56    0.79
   0   6   6   10.15    0.57
   6  -6   6    9.53    0.63
   6  -6   6    9.39    0.55
  -6   0   6    9.20    0.78
   0   6   6    9.49    0.63
  -6   6   6   10.29    0.64
   6   0   6   11.10    0.56
  -6   6   6    9.24    0.61
   0  -6   6   10.25    0.63
   0  -6   6    8.92    0.60
   0   6  -6   11.39    0.86
   6  -6  -6    9.75    0.67
   6   0  -6    9.92    0.63
   0  -6  -6   10.13    0.85
  -6   0  -6    9.60    0.63
   6  -6  -6    9.37    0.59
  -6   6  -6    8.85    0.62
   6   0  -6    9.99    0.55
  -6   6  -6    9.53    0.61
   1  -7   6  104.88    3.74
  -1   7   6  101.93    3.82
   7  -6   6  103.02    3.87
   6   1   6   99.90    4.24
   7  -6   6   99.84    3.76
  -7   6   6  107.06    4.05
  -7   6   6  106.76    3.80
  -6  -1   6  104.34    4.32
   1  -7  -6   98.61    4.42
   7  -6  -6  106.33    4.07
  -6  -1  -6  104.68    3.82
  -1   7  -6   95.87    4.35
   6   1  -6  102.68    3.74
   7  -6  -6  104.11    3.73
  -7   6  -6  101.74    3.84
   6   1  -6  108.46    3.91
   7  -5   6   11.50    0.70
   7  -5   6   10.65    0.69
   5   2   6    9.94    0.79
  -5  -2   6   10.40    0.84
   2  -7   6   10.92    0.67
  -2   7   6    9.12    0.65
  -7   5   6    9.66    0.73
  -7   5   6   10.98    0.64
   2  -7  -6   10.36    0.88
  -2   7  -6   11.20    0.90
   5   2  -6   11.52    0.66
  -5  -2  -6   10.53    0.67
  -2   7  -6   11.52    0.63
  -5  -2  -6   11.08    0.75
  -7   5  -6   10.02    0.67
   7  -5  -6   10.68    0.67
   7  -5  -6   10.86    0.65
  -4  -3   6  104.48    3.67
  -4  -3   6   97.14    4.10
  -7   4   6  100.45    4.07
   7  -4   6   98.51    3.96
   7  -4   6  104.37    3.68
  -3   7   6  103.15    3.77
   4   3   6  100.16    4.00
  -7   4   6  100.90    3.65
   3  -7   6  100.36    3.68
  -4  -3  -6  100.72    3.73
  -3   7  -6  101.43    4.24
   3  -7  -6  102.78    4.29
   7  -4  -6  101.86    3.67
   3  -7  -6  101.29    3.49
  -7   4  -6  103.46    3.78
  -4  -3  -6  106.10    4.16
  -3   7  -6  104.83    3.70
   4   3  -6  103.71    3.98
  -7   3   6   92.47    3.27
   7  -3   6   96.77    3.35
   3   4   6   91.51    3.58
  -4   7   6   86.29    3.40
  -3  -4   6   93.64    3.34
  -3  -4   6   89.24    3.71
   7  -3   6   88.02    3.69
  -7   3   6   91.85    3.78
   4  -7   6   91.70    3.36
   4  -7  -6   90.76    3.88
   7  -3  -6   95.09    3.37
  -4   7  -6   90.08    3.79
  -7   3  -6   93.83    3.43
  -3  -4  -6   95.47    3.87
  -3  -4  -6   86.80    3.38
  -4   7  -6   94.41    3.40
   3   4  -6   93.39    3.70
   4  -7  -6   90.37    3.20
   7  -2   6   11.32    0.63
  -7   2   6    9.35    0.51
   5  -7   6    9.28    0.63
   2   5   6   10.23    0.64
  -5   7   6    9.31    0.62
  -2  -5   6    9.21    0.61
  -2  -5   6    9.34    0.69
  -7   2   6    8.50    0.75
   7  -2   6   10.62    0.81
  -5   7  -6    8.81    0.67
  -2  -5  -6   11.28    0.87
   5  -7  -6    9.92    0.78
   5  -7  -6   10.26    0.58
   2   5  -6    8.81    0.72
  -7   2  -6    9.63    0.64
   7  -2  -6    9.52    0.63
  -5   7  -6    9.35    0.63
  -2  -5  -6    8.69    0.61
  -1  -6   6   83.49    3.30
   1   6   6   85.67    3.15
   7  -1   6   81.51    3.54
  -6   7   6   81.92    3.13
   7  -1   6   87.22    3.01
   6  -7   6   80.99    3.08
   1   6   6   78.97    3.12
  -7   1   6   83.35    3.58
  -1  -6   6   80.23    3.05
  -6   7  -6   79.26    3.14
  -6   7  -6   81.64    3.29
   7  -1  -6   82.27    3.07
   6  -7  -6   81.04    3.00
  -1  -6  -6   81.42    3.67
   6  -7  -6   80.61    3.45
   1   6  -6   82.84    3.57
  -7   1  -6   81.23    3.13
  -7   7   6  112.82    4.13
   7   0   6  111.92    4.66
   0  -7   6  114.05    4.05
   0   7   6  111.91    4.16
   7  -7   6  111.74    4.10
  -7   0   6  110.72    4.69
   7  -7  -6  112.22    4.03
   0   7  -6  112.59    4.76
   7  -7  -6  116.66    4.51
   0  -7  -6  112.82    4.87
  -7   7  -6  114.01    4.29
  -7   7  -6  108.55    4.16
   7   0  -6  109.91    4.06
  -7   0  -6  113.63    4.15
  -8   7   6    4.39    0.40
   8  -7   6    4.43    0.53
  -1   8   6    3.80    0.48
  -7  -1   6    3.78    0.63
   1  -8   6    3.86    0.46
   7   1   6    3.67    0.61
   1  -8  -6    4.39    0.73
   8  -7  -6    4.01    0.46
   7   1  -6    4.00    0.47
  -7  -1  -6    4.56    0.50
  -8   7  -6    3.70    0.48
  -1   8  -6    3.10    0.59
   6   2   6   74.92    3.31
  -8   6   6   73.31    2.88
   8  -6   6   75.39    3.01
   8  -6   6   76.12    2.91
  -8   6   6   75.21    3.17
  -2   8   6   72.37    2.94
  -6  -2   6   74.94    3.41
   2  -8   6   75.48    2.89
  -6  -2  -6   74.66    2.92
   8  -6  -6   75.18    2.89
  -8   6  -6   76.00    2.98
   6   2  -6   77.11    2.89
   2  -8  -6   73.36    3.55
  -2   8  -6   74.59    3.50
  -5  -3   6   62.44    2.89
  -3   8   6   62.68    2.51
  -8   5   6   57.65    2.71
  -5  -3   6   61.42    2.43
   8  -5   6   62.46    2.63
   3  -8   6   61.22    2.44
  -8   5   6   62.39    2.41
   5   3   6   61.16    2.73
   8  -5   6   60.78    2.45
   8  -5  -6   62.45    2.45
  -8   5  -6   57.27    2.47
   3  -8  -6   64.64    3.04
  -3   8  -6   63.63    2.44
  -3   8  -6   62.15    2.95
   5   3  -6   59.52    2.55
  -5  -3  -6   64.56    2.82
  -5  -3  -6   59.54    2.46
   4  -8   6    4.62    0.50
  -4   8   6    4.63    0.51
  -4  -4   6    4.77    0.43
  -8   4   6    4.86    0.38
   4   4   6    4.98    0.57
   8  -4   6    4.85    0.43
   8  -4   6    5.10    0.49
  -4  -4   6    4.87    0.65
  -8   4   6    5.75    0.70
   4  -8  -6    4.61    0.70
  -8   4  -6    4.46    0.50
  -4  -4  -6    4.61    0.63
   8  -4  -6    4.70    0.43
   4   4  -6    4.44    0.44
   4  -8  -6    5.20    0.35
  -4   8  -6    5.51    0.70
  -4  -4  -6    4.60    0.42
  -4   8  -6    4.71    0.41
  -3  -5   6   77.16    3.33
   3   5   6   76.83    3.13
   5  -8   6   76.96    2.97
  -8   3   6   79.09    3.45
  -8   3   6   74.92    2.84
   8  -3   6   80.18    2.97
  -3  -5   6   77.05    2.93
   8  -3   6   77.99    3.38
  -5   8   6   78.25    3.03
   5  -8  -6   76.31    2.82
   3   5  -6   80.89    3.34
  -5   8  -6   79.63    3.37
   5  -8  -6   78.57    3.50
  -3  -5  -6   80.67    3.56
   8  -3  -6   78.28    2.98
  -3  -5  -6   76.96    3.00
  -5   8  -6   76.91    3.01
  -8   3  -6   76.57    3.03
  -6   8   6   53.16    2.29
   8  -2   6   53.35    2.64
  -2  -6   6   56.73    2.51
  -2  -6   6   54.54    2.23
   2   6   6   56.27    2.31
   6  -8   6   53.57    2.27
  -8   2   6   55.38    2.71
   8  -2   6   59.86    2.24
  -2  -6  -6   55.51    2.29
  -8   2  -6   52.72    2.28
   8  -2  -6   55.23    2.27
  -6   8  -6   57.13    2.33
   2   6  -6   54.35    2.61
   6  -8  -6   56.31    2.66
  -2  -6  -6   57.95    2.83
   6  -8  -6   54.53    2.15
  -6   8  -6   57.63    2.50
   1   7   6    7.12    0.56
   8  -1   6    6.82    0.85
  -7   8   6    5.64    0.51
  -1  -7   6    6.99    0.54
   7  -8   6    7.11    0.57
  -8   1   6    6.03    0.81
   7  -8  -6    6.33    0.58
   8  -1  -6    6.35    0.53
  -7   8  -6    5.40    0.47
  -8   1  -6    5.71    0.51
  -7   8  -6    6.28    0.53
   1   7  -6    7.70    0.74
  -1  -7  -6    7.17    0.94
   7  -8  -6    6.19    0.48
   8   0   6   48.87    2.59
   8  -8   6   49.97    2.17
  -8   0   6   52.19    2.67
   0  -8   6   51.01    2.13
  -8   8   6   50.75    2.18
   0   8   6   49.80    2.19
   8  -8  -6   52.16    2.13
   0  -8  -6   54.68    2.83
  -8   0  -6   49.27    2.17
  -8   8  -6   45.85    2.16
   8   0  -6   51.48    2.16
   0   8  -6   52.59    2.68
   1  -9   6   37.98    1.77
   8   1   6   41.77    2.25
  -8  -1   6   38.84    2.22
  -9   8   6   37.18    1.77
  -1   9   6   37.92    1.82
   9  -8   6   37.64    1.81
  -8  -1  -6   38.37    1.80
  -1   9  -6   40.77    2.33
   8   1  -6   40.30    1.81
   9  -8  -6   40.76    1.80
  -9   8  -6   36.79    1.83
   1  -9  -6   38.97    2.35
  -7  -2   6   61.31    3.00
   2  -9   6   62.97    2.50
   9  -7   6   61.31    2.53
  -2   9   6   60.72    2.56
  -9   7   6   58.94    2.47
   7   2   6   63.08    2.97
  -9   7  -6   62.46    2.59
   2  -9  -6   63.32    3.21
  -2   9  -6   56.93    3.05
  -7  -2  -6   59.01    2.51
   9  -7  -6   61.11    2.50
   7   2  -6   58.38    2.47
  -6  -3   6    2.72    0.53
   9  -6   6    3.14    0.43
   6   3   6    3.33    0.54
  -9   6   6    2.51    0.41
   3  -9   6    2.02    0.34
   9  -6   6    2.46    0.37
  -9   6   6    2.90    0.38
  -3   9   6    2.54    0.40
  -3   9  -6    3.57    0.62
   9  -6  -6    2.64    0.40
  -6  -3  -6    2.53    0.38
   3  -9  -6    2.54    0.55
   6   3  -6    2.34    0.36
  -9   6  -6    2.58    0.40
   9  -5   6   66.56    2.62
   4  -9   6   64.39    2.61
  -4   9   6   63.12    2.66
  -5  -4   6   62.44    2.56
   9  -5   6   66.03    2.86
  -5  -4   6   68.87    3.09
  -9   5   6   65.02    2.54
   5   4   6   67.95    2.90
  -9   5   6   63.54    2.99
  -9   5  -6   62.54    2.64
   5   4  -6   64.36    2.74
  -5  -4  -6   65.78    3.03
  -4   9  -6   67.02    2.61
  -4   9  -6   65.95    3.13
   4  -9  -6   63.91    3.22
  -5  -4  -6   62.56    2.61
   9  -5  -6   61.79    2.59
   9  -4   6   72.76    3.09
  -9   4   6   63.43    2.56
  -9   4   6   69.55    3.17
  -5   9   6   63.83    2.72
  -4  -5   6   71.93    3.12
   5  -9   6   65.91    2.69
   4   5   6   64.88    2.84
  -4  -5   6   67.21    2.65
   9  -4   6   70.23    2.70
  -9   4  -6   64.79    2.73
  -5   9  -6   70.36    3.15
   5  -9  -6   64.10    2.51
   9  -4  -6   63.84    2.66
  -4  -5  -6   72.17    3.25
  -4  -5  -6   63.81    2.68
  -5   9  -6   69.60    2.72
   5  -9  -6   68.86    3.30
   4   5  -6   69.15    2.95
   9  -3   6    7.44    0.53
  -9   3   6    7.13    0.89
  -3  -6   6    6.95    0.62
   3   6   6    6.90    0.53
   9  -3   6    6.93    0.85
   6  -9   6    6.71    0.56
  -3  -6   6    6.22    0.52
  -6   9   6    6.72    0.58
  -9   3  -6    6.82    0.57
   6  -9  -6    7.05    0.70
   9  -3  -6    7.37    0.58
   6  -9  -6    6.07    0.46
  -3  -6  -6    6.54    0.55
  -6   9  -6    6.81    0.62
  -6   9  -6    7.00    0.55
  -3  -6  -6    7.48    0.91
   3   6  -6    6.34    0.62
  -7   9   6   62.82    2.59
   2   7   6   59.66    2.55
   7  -9   6   61.47    2.55
  -2  -7   6   61.20    2.48
   9  -2   6   61.08    3.00
  -9   2   6   60.00    3.03
  -7   9  -6   63.55    2.59
   7  -9  -6   60.36    2.42
  -9   2  -6   61.74    2.57
  -2  -7  -6   61.13    3.13
  -7   9  -6   63.09    2.74
   9  -2  -6   58.42    2.50
   7  -9  -6   63.76    2.99
   2   7  -6   62.30    2.95
   1   8   6   68.82    2.80
  -8   9   6   66.72    2.77
  -1  -8   6   66.15    2.68
   9  -1   6   62.58    3.22
   8  -9   6   68.99    2.77
  -9   1   6   67.57    3.28
   8  -9  -6   66.67    2.66
  -9   1  -6   64.18    2.75
   9  -1  -6   69.95    2.76
  -8   9  -6   67.05    2.80
  -1  -8  -6   67.22    3.41
   1   8  -6   69.44    3.30
  -9   9   6    3.35    0.47
   0   9   6    2.86    0.42
   9  -9   6    3.10    0.47
  -9   0   6    4.17    0.70
   0  -9   6    3.69    0.48
   9   0   6    3.69    0.64
   0  -9  -6    4.25    0.73
  -9   9  -6    2.83    0.45
   9  -9  -6    2.94    0.40
   0   9  -6    2.74    0.55
  -9   0  -6    3.58    0.49
   9   0  -6    3.34    0.47
  -9  -1   6   62.25    3.07
   1 -10   6   58.06    2.45
  -1  10   6   55.54    2.50
 -10   9   6   56.69    2.47
  10  -9   6   55.04    2.49
   9   1   6   61.08    3.03
  -1  10  -6   56.33    3.06
   1 -10  -6   57.17    3.13
 -10   9  -6   53.43    2.51
  -9  -1  -6   58.21    2.50
  10  -9  -6   58.43    2.47
   9   1  -6   56.28    2.45
   8   2   6    2.96    0.55
   2 -10   6    2.20    0.37
  -2  10   6    2.43    0.40
  -8  -2   6    1.98    0.44
 -10   8   6    2.42    0.36
  10  -8   6    2.38    0.39
   8   2  -6    2.95    0.43
 -10   8  -6    2.19    0.37
   2 -10  -6    2.79    0.57
  10  -8  -6    1.99    0.35
  -2  10  -6    2.50    0.49
  -8  -2  -6    2.80    0.42
   7   3   6   45.87    2.44
 -10   7   6   48.65    2.11
  -7  -3   6   53.12    2.64
   3 -10   6   46.10    2.11
  10  -7   6   48.77    2.17
  -3  10   6   47.02    2.18
  -3  10  -6   47.35    2.67
   7   3  -6   48.92    2.13
  -7  -3  -6   48.70    2.15
   3 -10  -6   51.80    2.81
  10  -7  -6   49.58    2.16
 -10   7  -6   45.73    2.17
  -4  10   6   67.23    2.76
   4 -10   6   60.82    2.63
  10  -6   6   67.85    2.72
  -6  -4   6   65.64    3.13
  10  -6   6   68.66    2.90
 -10   6   6   64.61    3.02
   6   4   6   66.72    2.99
 -10   6   6   61.90    2.60
  -6  -4  -6   63.16    2.67
  10  -6  -6   66.50    2.69
   6   4  -6   65.04    2.65
 -10   6  -6   61.39    2.72
   4 -10  -6   65.59    3.35
  -4  10  -6   63.98    3.22
   5 -10   6    4.70    0.55
  -5  -5   6    4.43    0.52
 -10   5   6    4.44    0.39
  -5  -5   6    4.78    0.67
  10  -5   6    4.14    0.48
 -10   5   6    3.76    0.56
  -5  10   6    4.10    0.54
   5   5   6    4.41    0.58
  10  -5   6    5.68    0.68
  -5  10  -6    5.09    0.42
  -5  -5  -6    4.16    0.52
   5 -10  -6    4.64    0.74
  -5  10  -6    4.93    0.72
 -10   5  -6    4.20    0.54
   5   5  -6    4.42    0.42
  -5  -5  -6    5.49    0.70
  10  -5  -6    4.49    0.54
   4   6   6   71.92    3.03
  10  -4   6   72.95    3.32
  10  -4   6   72.29    2.89
  -4  -6   6   68.80    2.83
 -10   4   6   70.94    3.37
   6 -10   6   71.97    2.91
  -4  -6   6   77.35    3.29
  -6  10   6   69.29    2.96
   4   6  -6   74.15    3.20
  -6  10  -6   74.68    3.33
 -10   4  -6   63.97    2.89
  -4  -6  -6   73.62    3.44
  -6  10  -6   70.43    2.92
   6 -10  -6   71.90    2.73
   6 -10  -6   73.21    3.50
  10  -4  -6   72.80    2.92
  -3  -7   6   80.97    3.16
  -7  10   6   76.52    3.26
  10  -3   6   84.19    3.76
   7 -10   6   78.26    3.21
 -10   3   6   82.34    3.79
  10  -3  -6   80.18    3.22
  -7  10  -6   83.17    3.55
   3   7  -6   79.45    3.60
 -10   3  -6   77.92    3.24
  -3  -7  -6   86.34    3.89
   7 -10  -6   80.87    3.07
   7 -10  -6   81.33    3.76
  -7  10  -6   83.25    3.30
  10  -2   6    1.87    0.42
  -2  -8   6    1.40    0.27
 -10   2   6    1.65    0.38
   8 -10   6    1.72    0.33
  -8  10   6    1.33    0.27
   2   8   6    1.21    0.25
  -2  -8  -6    2.18    0.48
  -8  10  -6    2.00    0.29
   2   8  -6    1.46    0.34
  10  -2  -6    1.74    0.33
 -10   2  -6    1.99    0.35
   8 -10  -6    1.14    0.21
  -1  -9   6   55.73    2.43
   9 -10   6   56.32    2.51
  -9  10   6   56.73    2.53
 -10   1   6   58.59    3.02
   1   9   6   57.14    2.53
  10  -1   6   60.21    3.05
  -1  -9  -6   60.16    3.16
   1   9  -6   59.28    3.04
  -9  10  -6   59.20    2.57
   9 -10  -6   58.17    2.42
  10  -1  -6   57.43    2.50
 -10   1  -6   56.43    2.51
 -10   0   6   63.52    3.25
   0 -10   6   63.44    2.65
  10   0   6   63.84    3.24
 -10  10   6   62.03    2.71
   0  10   6   61.93    2.72
  10 -10   6   61.56    2.70
 -10   0  -6   60.34    2.68
   0  10  -6   63.08    3.28
   0 -10  -6   63.00    3.33
 -10  10  -6   60.66    2.74
  10 -10  -6   62.84    2.64
  10   0  -6   62.89    2.68
   9   2   6   45.56    2.52
  -2  11   6   44.96    2.14
  11  -9   6   45.40    2.13
 -11   9   6   40.22    2.03
  11  -9  -6   44.10    2.08
   9   2  -6   47.17    2.12
  -2  11  -6   45.15    2.64
 -11   9  -6   44.28    2.15
   2 -11  -6   46.92    2.70
  -9  -2  -6   44.68    2.08
   8   3   6   28.81    1.73
  11  -8   6   25.25    1.39
   3 -11   6   25.81    1.39
 -11   8   6   24.92    1.35
  -3  11   6   25.15    1.43
  -8  -3   6   24.70    1.68
  11  -8  -6   25.30    1.39
  -8  -3  -6   25.74    1.39
  -3  11  -6   24.17    1.77
   3 -11  -6   27.05    1.89
 -11   8  -6   25.09    1.43
   8   3  -6   26.06    1.39
  -7  -4   6    4.98    0.72
   4 -11   6    5.01    0.59
  11  -7   6    4.63    0.42
 -11   7   6    4.67    0.52
  -4  11   6    4.84    0.60
   7   4   6    4.38    0.60
   4 -11  -6    3.93    0.71
 -11   7  -6    4.23    0.57
  11  -7  -6    4.44    0.57
  -4  11  -6    4.63    0.76
   7   4  -6    3.63    0.49
  -7  -4  -6    5.62    0.51
  11  -6   6   56.67    2.54
  -5  11   6   50.12    2.32
 -11   6   6   50.03    2.19
   6   5   6   52.35    2.49
 -11   6   6   51.73    2.58
   5 -11   6   47.87    2.24
  11  -6   6   51.95    2.27
  11  -6  -6   49.53    2.27
  -5  11  -6   54.61    2.80
   5 -11  -6   52.00    2.84
  -6  -5  -6   51.98    2.29
 -11   6  -6   48.48    2.31
   6 -11   6   39.28    1.86
  11  -5   6   37.95    1.80
   5   6   6   37.08    1.89
  11  -5   6   40.86    2.12
  -5  -6   6   38.13    2.05
 -11   5   6   42.29    2.21
  -6  11  -6   37.95    1.80
 -11   5  -6   34.88    1.83
   5   6  -6   38.34    1.93
  -5  -6  -6   35.90    1.80
   6 -11  -6   39.19    2.26
  -6  11  -6   41.83    2.21
  11  -5  -6   36.34    1.81
   7 -11   6    2.35    0.40
 -11   4   6    1.99    0.38
  11  -4   6    1.87    0.35
  -4  -7   6    1.91    0.31
  -7  11   6    1.53    0.32
   4   7  -6    1.62    0.28
  -4  -7  -6    1.84    0.34
  -7  11  -6    2.02    0.36
  11  -4  -6    2.26    0.37
  -7  11  -6    2.26    0.31
  -4  -7  -6    2.02    0.34
 -11   4  -6    1.68    0.33
   7 -11  -6    2.23    0.31
  11  -3   6   37.09    2.10
  -8  11   6   28.86    1.64
   8 -11   6   32.34    1.67
   3   8   6   33.27    1.68
 -11   3   6   33.51    2.03
  -3  -8   6   31.05    1.58
  11  -3  -6   31.17    1.65
   3   8  -6   34.47    1.92
   8 -11  -6   32.67    1.54
  -3  -8  -6   35.02    2.08
 -11   3  -6   32.90    1.68
  -8  11  -6   33.29    1.66
   2   9   6   21.02    1.24
  -9  11   6   21.53    1.28
  11  -2   6   24.52    1.65
  -2  -9   6   20.32    1.19
 -11   2   6   24.07    1.64
   9 -11   6   18.83    1.21
  -9  11  -6   21.89    1.25
   2   9  -6   21.04    1.47
   9 -11  -6   21.13    1.16
  -2  -9  -6   20.34    1.53
  11  -2  -6   20.46    1.24
 -11   2  -6   21.44    1.26
   0   0   7    0.23    0.07
   0   0   7    0.18    0.04
   0   0  -7    0.14    0.04
   0   0  -7    0.41    0.10
   1   0   7   60.46    2.28
  -1   1   7   60.78    2.07
  -1   0   7   60.32    2.06
   0  -1   7   58.96    2.06
  -1   1   7   60.95    2.28
   1  -1   7   59.51    2.27
   0  -1   7   58.47    2.26
  -1   0   7   57.05    2.27
   1  -1   7   60.31    2.04
   1   0   7   60.13    1.98
   0   1   7   59.96    2.27
  -1   0   7   59.58    2.02
  -1   1  -7   60.54    2.07
   0  -1  -7   57.56    2.32
   0   1  -7   58.05    2.01
  -1   0  -7   61.27    2.11
  -1   0  -7   60.53    2.32
   0   1  -7   57.51    2.33
  -1   1  -7   60.74    2.33
   1  -1  -7   59.38    2.02
   1  -1  -7   57.68    2.32
   0  -1  -7   60.91    2.11
   1   0  -7   56.85    2.31
  -1  -1   7    0.85    0.14
  -1   2   7    0.79    0.14
   2  -1   7    1.23    0.20
   2  -1   7    0.99    0.10
  -2   1   7    1.00    0.12
   1   1   7    1.17    0.20
   1  -2   7    1.18    0.16
  -1   2   7    1.12    0.20
   1  -2   7    1.05    0.18
  -2   1   7    0.84    0.18
  -1  -1   7    0.99    0.19
   1   1  -7    0.88    0.18
   1  -2  -7    0.89    0.09
  -2   1  -7    0.75    0.13
  -2   1  -7    0.71    0.15
   2  -1  -7    1.03    0.19
   2  -1  -7    0.71    0.13
  -1  -1  -7    0.80    0.17
   1  -2  -7    0.75    0.17
  -1   2  -7    0.71    0.17
  -1  -1  -7    0.58    0.12
  -1   2  -7    0.98    0.11
   0  -2   7   80.05    2.97
   0   2   7   83.71    2.99
   2   0   7   81.06    3.02
   2  -2   7   82.04    2.97
   2   0   7   80.56    2.62
  -2   2   7   81.40    2.98
  -2   0   7   77.46    3.00
  -2   0   7   81.10    2.76
  -2   2   7   78.45    2.76
   0  -2   7   76.55    2.75
   2  -2   7   79.46    2.73
  -2   0   7   82.15    2.66
   0  -2  -7   76.32    3.07
   2  -2  -7   79.86    2.70
  -2   2  -7   78.71    2.77
   0   2  -7   78.40    2.65
  -2   0  -7   83.26    2.82
  -2   0  -7   79.91    3.03
   0  -2  -7   81.64    2.82
   2   0  -7   81.75    3.05
  -2   2  -7   80.02    3.04
   0   2  -7   76.09    3.06
   3  -2   7  115.02    3.92
   1  -3   7  113.59    4.22
  -1   3   7  123.82    4.25
  -2  -1   7  119.70    3.99
  -3   2   7  119.95    4.30
   2   1   7  119.06    4.31
  -3   2   7  116.21    3.98
   3  -2   7  118.96    4.28
  -2  -1   7  113.05    4.31
   1  -3   7  118.41    3.98
  -1   3   7  123.27    4.07
  -2  -1  -7  118.68    4.07
  -2  -1  -7  118.86    4.37
   2   1  -7  118.48    4.38
  -3   2  -7  119.52    4.05
   3  -2  -7  116.50    4.35
  -3   2  -7  119.64    4.33
  -1   3  -7  114.71    3.93
  -1   3  -7  113.70    4.41
   3  -2  -7  115.89    3.94
   1  -3  -7  114.83    4.42
   1  -3  -7  114.66    3.81
  -1  -2   7   70.25    2.72
   2  -3   7   71.03    2.66
   3  -1   7   72.20    2.41
   1   2   7   72.73    2.72
   2  -3   7   72.06    2.50
  -2   3   7   68.86    2.53
   3  -1   7   70.02    2.73
  -2   3   7   72.73    2.68
  -1  -2   7   69.41    2.51
  -3   1   7   71.02    2.42
  -2   3  -7   70.50    2.78
  -3   1  -7   71.91    2.56
   2  -3  -7   70.11    2.80
  -3   1  -7   71.34    2.71
   3  -1  -7   71.05    2.73
   1   2  -7   71.11    2.80
  -2   3  -7   73.73    2.50
  -1  -2  -7   71.19    2.80
   2  -3  -7   71.60    2.41
   3  -1  -7   69.48    2.49
  -1  -2  -7   71.81    2.56
  -3   0   7    2.55    0.33
  -3   3   7    2.77    0.31
   0  -3   7    2.03    0.26
  -3   0   7    2.03    0.10
   3  -3   7    2.06    0.23
   3  -3   7    2.37    0.23
  -3   0   7    2.45    0.26
   0  -3   7    2.02    0.25
   0   3   7    1.74    0.25
  -3   3   7    2.18    0.20
   3   0   7    2.00    0.13
   3   0   7    2.44    0.32
   3   0  -7    1.91    0.25
   0   3  -7    2.08    0.30
   0  -3  -7    2.02    0.25
  -3   0  -7    2.27    0.22
  -3   3  -7    1.94    0.26
   3  -3  -7    2.02    0.18
   0   3  -7    2.04    0.12
   3  -3  -7    2.05    0.28
  -3   0  -7    2.24    0.26
   0  -3  -7    2.91    0.35
  -3   3  -7    2.58    0.22
   1  -4   7   83.66    3.07
   3   1   7   85.30    3.23
   1  -4   7   84.14    2.94
  -4   3   7   84.41    2.93
   4  -3   7   82.58    3.12
   4  -3   7   82.49    2.90
  -1   4   7   80.89    2.98
  -3  -1   7   82.22    2.93
  -3  -1   7   83.83    3.24
  -1   4   7   83.27    3.08
  -4   3   7   83.56    3.17
   4  -3  -7   81.16    2.89
   1  -4  -7   80.43    3.30
  -3  -1  -7   84.41    3.00
  -1   4  -7   82.51    3.31
  -1   4  -7   81.97    2.85
   1  -4  -7   81.45    2.71
   3   1  -7   83.31    3.19
   4  -3  -7   81.73    3.18
  -4   3  -7   82.84    2.99
  -3  -1  -7   84.84    3.21
  -4   3  -7   83.84    3.15
  -4   2   7   15.58    0.68
   4  -2   7   15.48    0.83
  -4   2   7   15.47    0.86
  -2  -2   7   16.06    0.76
   2  -4   7   16.01    0.76
  -2  -2   7   16.09    0.86
   2  -4   7   15.32    0.76
   2   2   7   15.69    0.84
  -2   4   7   15.04    0.76
   4  -2   7   16.41    0.71
  -2   4   7   14.85    0.75
   4  -2  -7   15.53    0.79
  -2  -2  -7   14.74    0.76
   2   2  -7   15.73    0.85
  -4   2  -7   15.37    0.76
  -4   2  -7   16.06    0.78
   4  -2  -7   15.56    0.74
   2  -4  -7   16.09    0.90
   2  -4  -7   15.77    0.64
  -2   4  -7   15.78    0.88
  -2  -2  -7   15.84    0.86
  -2   4  -7   16.35    0.71
  -3   4   7   63.86    2.38
  -4   1   7   63.24    2.61
   4  -1   7   68.24    2.26
  -1  -3   7   63.04    2.53
   3  -4   7   63.22    2.34
  -3   4   7   66.36    2.49
   3  -4   7   65.17    2.45
   4  -1   7   61.17    2.58
  -4   1   7   64.49    2.22
  -1  -3   7   65.90    2.37
   1   3   7   67.06    2.53
  -4   1  -7   64.16    2.40
   3  -4  -7   65.39    2.63
   3  -4  -7   64.76    2.26
   4  -1  -7   64.86    2.35
  -4   1  -7   63.64    2.49
  -1  -3  -7   63.64    2.40
  -3   4  -7   66.73    2.37
  -3   4  -7   65.30    2.60
  -1  -3  -7   65.07    2.66
   4  -1  -7   65.24    2.52
   1   3  -7   62.91    2.63
   4  -4   7   84.72    3.11
   4   0   7   82.02    3.26
  -4   4   7   82.95    3.16
   4  -4   7   84.52    2.97
  -4   0   7   82.06    3.29
   0  -4   7   84.08    3.14
   4   0   7   87.27    2.81
   0   4   7   84.41    3.13
  -4   4   7   84.82    2.99
   0  -4   7   80.12    2.96
   0  -4  -7   82.29    3.36
  -4   4  -7   83.84    3.21
   4   0  -7   80.43    2.95
   0  -4  -7   83.67    3.04
  -4   0  -7   83.45    3.18
  -4   0  -7   83.22    3.04
   0   4  -7   79.99    3.33
   4  -4  -7   82.57    2.91
   4  -4  -7   82.48    3.26
  -4   4  -7   86.19    3.02
   4   0  -7   83.63    3.18
  -5   4   7    2.85    0.26
  -5   4   7    2.64    0.36
   5  -4   7    3.37    0.30
   4   1   7    2.89    0.42
  -4  -1   7    2.85    0.34
  -1   5   7    3.27    0.28
   5  -4   7    3.24    0.30
   1  -5   7    2.96    0.34
  -4  -1   7    3.97    0.50
  -1   5   7    2.61    0.33
   1  -5   7    2.95    0.26
  -1   5  -7    3.21    0.45
  -4  -1  -7    2.54    0.33
   1  -5  -7    3.12    0.46
   5  -4  -7    3.31    0.31
   5  -4  -7    3.04    0.28
  -1   5  -7    3.06    0.22
  -4  -1  -7    3.25    0.30
  -5   4  -7    3.35    0.28
  -5   4  -7    2.97    0.35
   4   1  -7    2.99    0.28
  -2   5   7   61.47    2.34
   3   2   7   60.95    2.50
   2  -5   7   61.62    2.29
   2  -5   7   61.39    2.32
  -2   5   7   58.65    2.31
   5  -3   7   62.03    2.25
  -3  -2   7   60.07    2.54
  -3  -2   7   62.81    2.29
   5  -3   7   61.11    2.46
  -5   3   7   61.18    2.23
  -5   3   7   63.41    2.53
  -5   3  -7   60.48    2.36
   5  -3  -7   59.40    2.42
   2  -5  -7   61.53    2.10
  -5   3  -7   62.03    2.34
   2  -5  -7   61.13    2.63
   3   2  -7   60.35    2.49
  -2   5  -7   60.48    2.59
  -2   5  -7   61.60    2.24
   5  -3  -7   62.89    2.27
  -3  -2  -7   59.10    2.31
  -3  -2  -7   61.33    2.52
  -5   2   7   56.70    2.05
   5  -2   7   53.15    2.34
   3  -5   7   57.75    2.18
   3  -5   7   58.82    2.17
  -5   2   7   59.52    2.43
   5  -2   7   59.65    2.10
  -3   5   7   53.79    2.17
  -2  -3   7   55.64    2.14
   2   3   7   57.56    2.32
  -2  -3   7   57.54    2.37
  -3   5   7   58.92    2.22
  -3   5  -7   56.55    2.41
   3  -5  -7   55.37    2.44
  -5   2  -7   59.51    2.21
  -3   5  -7   58.11    2.15
   2   3  -7   56.23    2.39
   5  -2  -7   56.01    2.25
  -2  -3  -7   60.52    2.46
   3  -5  -7   57.60    2.03
   5  -2  -7   57.55    2.15
  -2  -3  -7   54.10    2.18
  -5   2  -7   55.80    2.21
  -4   5   7    3.96    0.34
  -4   5   7    3.60    0.32
  -5   1   7    4.45    0.52
  -1  -4   7    4.13    0.37
  -1  -4   7    3.56    0.33
   5  -1   7    5.02    0.31
   4  -5   7    4.81    0.38
   4  -5   7    4.13    0.31
  -5   1   7    4.10    0.23
   5  -1   7    3.92    0.48
   1   4   7    3.94    0.35
   4  -5  -7    4.12    0.30
  -4   5  -7    4.00    0.37
  -1  -4  -7    3.25    0.36
   5  -1  -7    3.92    0.34
   1   4  -7    4.11    0.48
   4  -5  -7    2.98    0.41
  -5   1  -7    3.83    0.30
  -5   1  -7    4.09    0.35
  -1  -4  -7    4.71    0.53
   5  -1  -7    3.80    0.30
  -4   5  -7    4.51    0.34
   0   5   7   65.79    2.50
  -5   5   7   65.38    2.46
   0   5   7   66.85    2.53
   0  -5   7   64.26    2.55
   5  -5   7   63.61    2.44
  -5   5   7   65.01    2.58
   0  -5   7   64.55    2.44
   5   0   7   65.51    2.75
  -5   0   7   64.12    2.77
   5  -5   7   65.29    2.50
  -5   0  -7   63.02    2.48
  -5   0  -7   67.27    2.58
  -5   5  -7   66.52    2.50
   0   5  -7   62.87    2.80
   5  -5  -7   63.40    2.38
   5   0  -7   63.27    2.43
  -5   5  -7   66.12    2.61
   5  -5  -7   64.62    2.68
   5   0  -7   65.49    2.56
   0  -5  -7   64.13    2.83
   6  -5   7   62.75    2.51
   1  -6   7   62.01    2.42
  -1   6   7   66.56    2.46
  -6   5   7   66.75    2.65
  -1   6   7   61.48    2.47
  -6   5   7   64.39    2.43
   6  -5   7   61.39    2.43
   1  -6   7   63.59    2.48
   5   1   7   63.93    2.76
  -5  -1   7   63.35    2.80
  -1   6  -7   61.52    2.85
  -5  -1  -7   64.46    2.62
  -6   5  -7   61.55    2.48
   5   1  -7   61.13    2.41
   6  -5  -7   66.68    2.42
   6  -5  -7   66.44    2.63
  -6   5  -7   64.81    2.52
   1  -6  -7   61.56    2.86
  -5  -1  -7   60.95    2.46
   5   1  -7   64.62    2.55
  -6   4   7   56.48    2.13
  -4  -2   7   54.68    2.16
  -6   4   7   54.87    2.39
  -4  -2   7   52.73    2.45
   2  -6   7   58.44    2.17
   4   2   7   56.87    2.43
  -2   6   7   54.29    2.20
   6  -4   7   54.12    2.31
  -2   6   7   57.33    2.17
   2  -6   7   58.27    2.19
   6  -4   7   57.49    2.16
  -2   6  -7   55.31    2.11
   6  -4  -7   54.88    2.27
  -4  -2  -7   58.32    2.42
  -2   6  -7   57.67    2.55
   2  -6  -7   54.50    2.54
   6  -4  -7   54.00    2.14
  -4  -2  -7   54.61    2.20
  -6   4  -7   55.19    2.22
  -6   4  -7   55.10    2.19
   4   2  -7   58.15    2.33
   3  -6   7    0.84    0.19
   6  -3   7    1.37    0.22
  -6   3   7    1.21    0.28
   3  -6   7    2.02    0.17
  -3   6   7    1.39    0.20
   3   3   7    1.04    0.23
  -6   3   7    1.29    0.18
  -3  -3   7    0.94    0.20
   6  -3   7    1.61    0.28
  -3   6   7    0.90    0.19
  -3  -3   7    1.19    0.25
  -6   3  -7    1.61    0.19
  -3   6  -7    1.10    0.18
  -3  -3  -7    1.24    0.26
   3  -6  -7    1.29    0.16
  -6   3  -7    1.54    0.26
  -3   6  -7    0.79    0.23
   3  -6  -7    1.11    0.27
   6  -3  -7    1.38    0.24
  -3  -3  -7    1.95    0.29
   3   3  -7    1.60    0.28
   6  -3  -7    1.72    0.23
   4  -6   7   30.74    1.37
  -4   6   7   31.31    1.34
  -2  -4   7   32.21    1.52
   6  -2   7   30.57    1.29
  -2  -4   7   31.58    1.36
   6  -2   7   29.73    1.54
   2   4   7   30.79    1.43
  -6   2   7   30.04    1.57
  -6   2   7   30.21    1.21
   4  -6   7   30.55    1.27
  -4   6   7   29.62    1.37
   6  -2  -7   32.17    1.35
   4  -6  -7   32.54    1.61
   4  -6  -7   30.34    1.25
  -2  -4  -7   31.89    1.38
  -6   2  -7   30.23    1.38
   6  -2  -7   30.34    1.35
   2   4  -7   30.24    1.53
  -2  -4  -7   31.70    1.61
  -4   6  -7   29.90    1.51
  -6   2  -7   32.24    1.31
  -4   6  -7   33.01    1.38
  -1  -5   7   24.69    1.17
  -5   6   7   25.41    1.18
   6  -1   7   24.69    1.39
   6  -1   7   27.59    1.11
  -5   6   7   24.60    1.18
  -1  -5   7   26.05    1.28
   5  -6   7   24.45    1.10
   1   5   7   25.81    1.20
  -6   1   7   25.17    1.42
   5  -6   7   23.96    1.18
  -5   6  -7   26.19    1.28
   1   5  -7   24.49    1.39
  -1  -5  -7   26.64    1.47
   5  -6  -7   24.56    1.34
  -6   1  -7   24.31    1.20
  -1  -5  -7   25.34    1.20
   6  -1  -7   24.71    1.17
   6  -1  -7   26.24    1.14
  -5   6  -7   25.73    1.20
   5  -6  -7   24.09    1.09
   0  -6   7    0.02    0.06
   0   6   7    0.15    0.09
   6  -6   7   -0.10    0.05
  -6   6   7    0.16    0.09
  -6   0   7    0.09    0.13
   6  -6   7    0.03    0.04
   6   0   7    0.26    0.13
  -6   6   7    0.20    0.07
   0   6   7    0.14    0.05
   0  -6   7   -0.01    0.05
   6  -6  -7    0.08    0.07
   6   0  -7    0.13    0.07
   6  -6  -7    0.06    0.05
   6   0  -7    0.03    0.05
   0   6  -7    0.04    0.09
  -6   6  -7    0.33    0.10
  -6   0  -7    0.16    0.07
   0  -6  -7   -0.06    0.09
  -6   6  -7    0.20    0.08
  -6  -1   7   45.91    2.27
   6   1   7   42.74    2.19
  -7   6   7   44.16    1.88
   7  -6   7   47.27    1.93
   1  -7   7   47.35    1.92
  -1   7   7   42.96    1.92
  -7   6   7   44.97    2.03
   7  -6   7   45.63    1.90
  -7   6  -7   43.60    1.93
   6   1  -7   44.53    1.89
  -6  -1  -7   44.51    1.92
  -1   7  -7   44.70    2.30
   1  -7  -7   45.30    2.35
   7  -6  -7   46.31    2.03
   6   1  -7   42.88    1.87
   7  -6  -7   46.34    1.87
  -7   5   7    0.40    0.11
   7  -5   7    0.30    0.11
  -5  -2   7    0.48    0.14
   5   2   7    0.43    0.18
   2  -7   7    0.76    0.19
   7  -5   7    0.60    0.16
  -7   5   7    0.58    0.14
  -2   7   7    0.33    0.14
  -5  -2   7    0.33    0.15
  -5  -2  -7    0.68    0.16
   7  -5  -7    0.79    0.18
   5   2  -7    0.67    0.12
  -2   7  -7    0.75    0.22
  -5  -2  -7    0.39    0.14
   2  -7  -7    0.60    0.25
  -7   5  -7    0.47    0.14
   7  -5  -7    1.77    0.25
   3  -7   7   43.40    1.84
  -7   4   7   42.63    1.75
   7  -4   7   41.04    1.80
  -4  -3   7   44.87    1.84
   4   3   7   44.75    2.04
  -7   4   7   46.00    2.11
  -3   7   7   42.36    1.86
   7  -4   7   43.95    2.01
  -4  -3   7   45.42    2.15
  -3   7  -7   46.62    2.22
  -4  -3  -7   45.31    1.87
  -7   4  -7   42.69    1.87
  -3   7  -7   45.74    1.82
   7  -4  -7   44.47    1.83
   3  -7  -7   44.12    2.22
  -4  -3  -7   46.22    2.12
   4   3  -7   43.40    1.96
   3   4   7   38.57    1.79
   7  -3   7   39.21    1.64
  -7   3   7   38.20    1.54
  -3  -4   7   39.11    1.66
   4  -7   7   36.49    1.67
  -7   3   7   38.61    1.95
   7  -3   7   37.52    1.87
  -3  -4   7   39.81    1.91
  -4   7   7   39.25    1.71
  -7   3  -7   38.41    1.71
  -3  -4  -7   38.21    1.69
  -4   7  -7   41.21    1.96
   4  -7  -7   39.70    1.53
   3   4  -7   39.64    1.86
   4  -7  -7   40.44    2.02
   7  -3  -7   39.87    1.68
  -3  -4  -7   43.41    2.03
  -4   7  -7   40.43    1.69
   2   5   7    4.71    0.41
   5  -7   7    3.71    0.44
  -2  -5   7    3.98    0.44
  -5   7   7    4.32    0.40
   7  -2   7    3.29    0.52
  -7   2   7    4.03    0.59
  -2  -5   7    4.92    0.56
   7  -2   7    4.72    0.36
   5  -7  -7    4.51    0.33
  -5   7  -7    4.69    0.45
  -2  -5  -7    4.35    0.62
  -5   7  -7    3.92    0.37
  -2  -5  -7    4.33    0.40
   2   5  -7    3.44    0.51
   7  -2  -7    4.15    0.45
  -7   2  -7    4.13    0.46
   5  -7  -7    5.01    0.61
  -1  -6   7   30.38    1.41
  -1  -6   7   31.91    1.53
   7  -1   7   32.68    1.75
   1   6   7   30.15    1.40
   6  -7   7   31.15    1.45
  -6   7   7   31.73    1.45
   1   6   7   30.00    1.45
  -7   1   7   30.99    1.74
   1   6  -7   31.81    1.74
   7  -1  -7   30.47    1.42
   6  -7  -7   30.31    1.35
  -7   1  -7   30.89    1.45
  -6   7  -7   30.49    1.50
  -1  -6  -7   32.31    1.81
  -6   7  -7   30.72    1.45
   6  -7  -7   31.38    1.63
   7  -7   7   45.06    1.91
  -7   0   7   41.08    2.24
  -7   7   7   43.17    1.87
   0   7   7   42.04    1.90
   7   0   7   46.61    2.29
   0  -7   7   44.52    1.87
  -7   7  -7   41.82    1.90
   0   7  -7   42.49    2.27
   7  -7  -7   44.61    1.83
  -7   7  -7   43.04    1.92
   7  -7  -7   47.25    2.11
   7   0  -7   43.53    1.87
   0  -7  -7   45.04    2.37
  -7   0  -7   41.81    1.89
   8  -7   7    0.83    0.20
  -8   7   7    1.01    0.20
   1  -8   7    0.48    0.13
  -7  -1   7    0.55    0.23
   7   1   7    0.95    0.29
  -8   7   7    1.22    0.20
  -1   8   7    0.70    0.18
   1  -8  -7    0.67    0.26
   7   1  -7    0.60    0.17
  -7  -1  -7    0.99    0.23
  -1   8  -7    0.89    0.26
  -8   7  -7    0.86    0.20
   8  -7  -7    0.90    0.18
   8  -6   7   37.33    1.68
  -6  -2   7   36.72    2.03
   8  -6   7   37.60    1.71
  -8   6   7   38.16    1.64
   2  -8   7   37.21    1.67
   6   2   7   38.92    1.99
  -2   8   7   34.89    1.68
  -8   6   7   38.44    1.86
   8  -6  -7   38.61    1.67
  -6  -2  -7   35.55    1.67
   2  -8  -7   36.33    2.11
   6   2  -7   34.26    1.63
   6   2  -7   36.38    1.65
  -2   8  -7   38.72    2.11
  -8   6  -7   35.09    1.69
   5   3   7   65.66    2.84
   3  -8   7   62.97    2.52
   8  -5   7   64.39    2.71
  -8   5   7   62.27    2.82
  -3   8   7   60.35    2.56
   8  -5   7   64.54    2.54
  -8   5   7   62.88    2.46
  -5  -3   7   65.21    2.96
  -5  -3   7   61.20    2.50
   3  -8  -7   65.19    3.08
  -3   8  -7   63.63    3.01
  -5  -3  -7   63.69    2.85
   8  -5  -7   64.26    2.52
  -8   5  -7   62.81    2.59
  -5  -3  -7   61.47    2.54
   5   3  -7   63.39    2.65
  -4   8   7    1.45    0.29
   8  -4   7    1.62    0.31
  -4  -4   7    1.26    0.31
  -8   4   7    1.56    0.23
   8  -4   7    2.12    0.31
   4   4   7    1.58    0.32
  -8   4   7    1.24    0.30
  -4  -4   7    1.49    0.27
   4  -8   7    1.25    0.27
  -4   8  -7    1.13    0.28
  -4  -4  -7    1.24    0.26
  -4   8  -7    1.79    0.26
   4   4  -7    1.56    0.30
  -4  -4  -7    1.48    0.30
   8  -4  -7    1.36    0.25
  -8   4  -7    1.25    0.26
   4  -8  -7    1.61    0.38
   8  -3   7   53.58    2.13
  -5   8   7   51.91    2.19
  -8   3   7   51.96    2.52
  -3  -5   7   53.99    2.46
   8  -3   7   52.77    2.48
   5  -8   7   53.24    2.18
  -3  -5   7   49.85    2.11
   3   5   7   51.43    2.26
  -3  -5  -7   51.21    2.17
  -3  -5  -7   52.47    2.58
   3   5  -7   53.19    2.42
   5  -8  -7   50.75    1.99
   5  -8  -7   54.03    2.59
  -5   8  -7   51.54    2.44
  -8   3  -7   49.29    2.17
   8  -3  -7   50.61    2.14
  -5   8  -7   53.26    2.19
  -2  -6   7   44.65    2.10
  -8   2   7   45.69    2.31
   2   6   7   43.96    1.92
   8  -2   7   41.84    2.22
  -6   8   7   44.80    1.94
   6  -8   7   45.23    1.94
  -2  -6   7   41.88    1.86
   8  -2  -7   41.98    1.88
  -2  -6  -7   43.33    1.92
   2   6  -7   45.81    2.23
  -6   8  -7   44.25    2.07
  -8   2  -7   43.69    1.93
   6  -8  -7   43.44    1.78
  -2  -6  -7   46.43    2.38
  -6   8  -7   42.13    1.92
   6  -8  -7   42.75    2.20
   7  -8   7    1.92    0.33
   1   7   7    2.01    0.34
  -8   1   7    1.64    0.40
   8  -1   7    1.59    0.36
  -7   8   7    2.25    0.35
  -1  -7   7    1.44    0.26
  -1  -7  -7    1.63    0.42
  -7   8  -7    1.57    0.29
  -7   8  -7    1.64    0.28
   7  -8  -7    2.34    0.38
  -8   1  -7    1.56    0.29
   8  -1  -7    1.42    0.26
   1   7  -7    1.41    0.35
   7  -8  -7    2.25    0.31
  -8   8   7   50.17    2.18
   0   8   7   51.40    2.22
   8   0   7   48.98    2.59
  -8   0   7   50.42    2.65
   8  -8   7   49.42    2.17
   0  -8   7   49.69    2.14
   8  -8  -7   48.74    2.09
   0   8  -7   50.02    2.64
   0  -8  -7   53.40    2.81
  -8   8  -7   51.93    2.24
  -8   0  -7   49.57    2.18
   8   0  -7   50.92    2.17
  -9   8   7   33.58    1.62
   9  -8   7   32.53    1.65
  -1   9   7   34.60    1.69
   8   1   7   34.10    2.02
   1  -9   7   34.08    1.63
  -8  -1   7   35.65    2.11
  -9   8  -7   35.66    1.72
   1  -9  -7   34.65    2.20
  -8  -1  -7   33.86    1.66
  -1   9  -7   32.47    2.06
   8   1  -7   33.62    1.64
   9  -8  -7   34.30    1.61
   9  -7   7   19.58    1.13
  -9   7   7   19.64    1.07
   7   2   7   21.74    1.42
  -9   7   7   23.05    1.28
  -7  -2   7   20.24    1.44
  -2   9   7   19.16    1.13
   2  -9   7   20.09    1.12
  -9   7  -7   19.96    1.15
  -7  -2  -7   19.10    1.11
   7   2  -7   18.56    1.09
   9  -7  -7   19.26    1.10
   2  -9  -7   21.48    1.57
  -2   9  -7   18.61    1.42
  -6  -3   7    0.80    0.24
  -3   9   7    0.49    0.14
   3  -9   7    0.17    0.09
  -9   6   7    0.23    0.08
   9  -6   7    0.37    0.11
  -9   6   7    0.11    0.10
   6   3   7    0.38    0.16
   9  -6   7    0.29    0.08
  -9   6  -7    0.29    0.10
   6   3  -7    0.46    0.18
   3  -9  -7    0.40    0.21
  -6  -3  -7    0.49    0.14
  -3   9  -7    0.36    0.13
   9  -6  -7    0.65    0.16
   4  -9   7   49.80    2.16
   5   4   7   49.45    2.37
  -9   5   7   52.34    2.52
   9  -5   7   50.71    2.17
   9  -5   7   53.70    2.40
  -5  -4   7   47.13    2.11
  -9   5   7   50.28    2.07
  -4   9   7   47.51    2.19
  -5  -4   7   49.69    2.54
  -9   5  -7   50.45    2.22
   9  -5  -7   52.31    2.18
   4  -9  -7   50.92    2.71
   5   4  -7   49.86    2.26
  -5  -4  -7   51.60    2.19
  -5  -4  -7   55.07    2.59
  -4   9  -7   53.33    2.63
   9  -4   7   38.46    1.99
  -5   9   7   35.81    1.74
   5  -9   7   37.29    1.74
  -9   4   7   37.09    2.06
  -4  -5   7   39.15    2.05
   4   5   7   35.97    1.82
   9  -4   7   40.17    1.73
  -4  -5   7   38.46    1.72
  -9   4  -7   36.82    1.77
   9  -4  -7   38.20    1.74
   5  -9  -7   39.68    2.20
  -5   9  -7   37.40    1.73
  -4  -5  -7   40.40    2.15
  -4  -5  -7   38.00    1.75
  -5   9  -7   38.97    2.05
   4   5  -7   35.65    1.85
  -3  -6   7    0.12    0.07
  -6   9   7    0.16    0.09
   6  -9   7    0.05    0.07
   3   6   7    0.12    0.07
  -3  -6   7    0.34    0.12
  -9   3   7    0.58    0.19
   9  -3   7    0.22    0.10
  -6   9  -7    0.04    0.08
   6  -9  -7   -0.04    0.10
  -6   9  -7    0.09    0.09
  -9   3  -7   -0.02    0.06
  -3  -6  -7    0.04    0.07
   6  -9  -7    0.12    0.06
   3   6  -7    0.26    0.10
  -3  -6  -7    0.16    0.12
   9  -3  -7    0.09    0.08
   9  -2   7   34.65    2.00
  -7   9   7   34.97    1.67
  -2  -7   7   32.99    1.59
  -9   2   7   33.71    2.02
   2   7   7   33.66    1.65
   7  -9   7   34.51    1.66
   9  -2  -7   30.39    1.57
  -2  -7  -7   36.86    2.16
   2   7  -7   34.87    1.95
   7  -9  -7   33.06    1.51
  -7   9  -7   35.14    1.67
  -9   2  -7   33.90    1.66
  -7   9  -7   35.24    1.75
   7  -9  -7   35.55    1.95
  -9   1   7   42.37    2.37
   9  -1   7   37.73    2.24
   8  -9   7   39.17    1.88
   1   8   7   41.89    1.93
  -8   9   7   41.38    1.90
  -1  -8   7   41.69    1.86
   8  -9  -7   39.14    1.77
  -9   1  -7   41.33    1.91
  -1  -8  -7   44.06    2.48
   1   8  -7   42.24    2.31
  -8   9  -7   39.76    1.90
   9  -1  -7   40.05    1.87
   0  -9   7    0.99    0.19
  -9   9   7    0.65    0.21
   9   0   7    0.68    0.22
  -9   0   7    0.75    0.30
   9  -9   7    0.64    0.18
   0   9   7    0.39    0.15
   0  -9  -7    0.56    0.21
  -9   0  -7    1.05    0.23
   9   0  -7    0.55    0.17
   9  -9  -7    0.83    0.18
   0   9  -7    0.58    0.17
  -9   9  -7    0.73    0.14
  10  -9   7   21.50    1.28
  -1  10   7   22.79    1.32
   1 -10   7   23.26    1.29
  -9  -1   7   22.46    1.62
   9   1   7   24.85    1.67
 -10   9   7   20.99    1.23
  10  -9  -7   25.79    1.31
  -1  10  -7   21.48    1.64
  -9  -1  -7   23.60    1.31
   9   1  -7   23.02    1.30
 -10   9  -7   24.57    1.37
   1 -10  -7   21.19    1.68
 -10   8   7    0.03    0.09
  -8  -2   7    0.15    0.13
  10  -8   7    0.20    0.09
   2 -10   7    0.07    0.08
  -2  10   7    0.18    0.07
   8   2   7    0.45    0.16
  -2  10  -7   -0.02    0.13
   2 -10  -7    0.01    0.14
  10  -8  -7    0.18    0.08
 -10   8  -7    0.44    0.13
   8   2  -7    0.16    0.10
  -8  -2  -7    0.14    0.11
   3 -10   7   12.73    0.86
 -10   7   7   13.21    0.83
  -3  10   7   13.56    0.92
  -7  -3   7   14.38    1.17
  10  -7   7   12.57    0.85
   7   3   7   15.13    1.12
   3 -10  -7   14.59    1.26
 -10   7  -7   11.60    0.85
  -3  10  -7   12.42    1.13
  10  -7  -7   13.33    0.88
  -7  -3  -7   12.50    0.86
   7   3  -7   12.63    0.86
   4 -10   7   21.98    1.23
  -6  -4   7   22.90    1.52
 -10   6   7   23.69    1.45
  -4  10   7   21.65    1.27
  10  -6   7   21.91    1.31
 -10   6   7   21.87    1.15
  10  -6   7   23.19    1.25
   6   4   7   21.86    1.38
   4 -10  -7   25.27    1.75
 -10   6  -7   21.54    1.25
   6   4  -7   21.91    1.22
  -6  -4  -7   23.15    1.25
  -4  10  -7   22.59    1.57
  10  -6  -7   23.48    1.25
   5   5   7    2.70    0.39
  10  -5   7    2.66    0.44
  -5  10   7    2.35    0.40
  -5  -5   7    3.68    0.48
  -5  -5   7    2.33    0.46
  10  -5   7    3.46    0.42
   5 -10   7    2.19    0.37
 -10   5   7    3.79    0.58
  -5  -5  -7    2.56    0.39
 -10   5  -7    2.28    0.39
   5 -10  -7    2.49    0.50
   5   5  -7    2.54    0.38
  -5  10  -7    2.27    0.44
  10  -5  -7    2.66    0.40
 -10   4   7   28.56    1.78
  10  -4   7   29.96    1.72
  -4  -6   7   26.99    1.39
   4   6   7   28.58    1.47
  -6  10   7   25.23    1.42
   6 -10   7   26.99    1.44
  -4  -6   7   29.48    1.66
   6 -10  -7   29.73    1.84
  10  -4  -7   26.36    1.41
  -6  10  -7   25.86    1.39
  -4  -6  -7   30.39    1.82
  -4  -6  -7   25.67    1.40
 -10   4  -7   25.61    1.42
  -6  10  -7   29.77    1.69
   4   6  -7   28.33    1.57
 -10   3   7   25.16    1.69
  -3  -7   7   24.88    1.31
  -7  10   7   22.93    1.34
  10  -3   7   25.41    1.64
   7 -10   7   23.95    1.34
  -3  -7  -7   27.84    1.77
  -7  10  -7   25.73    1.35
   3   7  -7   25.21    1.53
   7 -10  -7   29.43    1.73
  10  -3  -7   25.29    1.36
 -10   3  -7   23.28    1.34
  -7  10  -7   26.49    1.50
  -2  -8   7    0.58    0.19
   8 -10   7    0.53    0.17
 -10   2   7    0.11    0.12
  10  -2   7    0.05    0.16
   2   8   7    0.27    0.09
  -8  10   7    0.16    0.11
   2   8  -7    0.00    0.10
 -10   2  -7    0.10    0.08
  -8  10  -7    0.44    0.10
   8 -10  -7    0.30    0.08
  -2  -8  -7    0.16    0.19
  10  -2  -7    0.13    0.08
   9 -10   7   20.01    1.21
  -9  10   7   19.76    1.19
 -10   1   7   22.13    1.58
  -1  -9   7   19.75    1.16
  10  -1   7   19.16    1.48
  10  -1  -7   18.26    1.16
  -1  -9  -7   23.17    1.65
  -9  10  -7   20.92    1.20
 -10   1  -7   20.05    1.21
   9 -10  -7   21.09    1.13
   1   9  -7   20.85    1.50
   0  10   7   24.82    1.41
 -10   0   7   23.75    1.70
  10 -10   7   25.37    1.41
 -10  10   7   22.60    1.33
   0 -10   7   24.10    1.35
  10   0   7   23.59    1.70
   0 -10  -7   26.39    1.85
 -10  10  -7   25.67    1.41
   0  10  -7   25.64    1.78
 -10   0  -7   25.69    1.41
  10   0  -7   23.04    1.35
  10 -10  -7   25.35    1.34
   8   3   7   25.18    1.60
  11  -8   7   22.81    1.29
   3 -11   7   21.07    1.26
 -11   8   7   23.00    1.24
  -3  11   7   22.43    1.33
  -8  -3  -7   23.81    1.32
  -3  11  -7   22.91    1.68
   3 -11  -7   20.81    1.65
  11  -8  -7   23.40    1.30
   8   3  -7   21.40    1.25
 -11   8  -7   21.16    1.29
  -4  11   7    0.65    0.18
  -7  -4   7    0.23    0.13
  11  -7   7    0.39    0.10
   7   4   7    0.06    0.11
  11  -7  -7    0.44    0.11
   7   4  -7    0.33    0.09
  -4  11  -7    0.13    0.12
   4 -11  -7    0.37    0.15
  -7  -4  -7    0.32    0.12
 -11   7  -7   -0.01    0.08
 -11   6   7   29.21    1.72
   5 -11   7   28.49    1.50
  11  -6   7   29.03    1.49
  -5  11   7   25.64    1.49
  11  -6   7   30.75    1.66
   6   5   7   26.86    1.58
  -6  -5   7   31.29    1.83
  -6  -5  -7   29.30    1.51
 -11   6  -7   26.57    1.50
   5 -11  -7   30.34    1.99
  11  -6  -7   25.91    1.45
  -5  11  -7   28.04    1.82
 -11   5   7   29.22    1.79
  11  -5   7   30.06    1.74
   6 -11   7   27.27    1.51
  -6  11   7   29.03    1.57
   5   6   7   31.06    1.60
  -5  -6   7   28.89    1.48
   6 -11  -7   29.75    1.91
  -6  11  -7   30.83    1.82
   5   6  -7   29.72    1.59
 -11   5  -7   28.33    1.54
  11  -5  -7   28.32    1.53
  -5  -6  -7   26.88    1.49
  11  -4   7    0.37    0.12
  -4  -7   7    0.11    0.08
 -11   4   7   -0.01    0.12
  -7  11   7   -0.01    0.08
   7 -11   7    0.05    0.07
  -4  -7  -7    0.07    0.08
  11  -4  -7    0.05    0.08
  -7  11  -7   -0.04    0.10
   4   7  -7    0.14    0.11
   7 -11  -7   -0.17    0.15
  -4  -7  -7    0.48    0.15
  -7  11  -7    0.22    0.11
 -11   4  -7    0.24    0.11
 -11   3   7   19.04    1.42
  -3  -8   7   19.32    1.12
  -8  11   7   17.48    1.13
  11  -3   7   18.54    1.39
   8 -11   7   18.64    1.15
  11  -3  -7   17.39    1.11
  -8  11  -7   18.33    1.12
   3   8  -7   18.71    1.29
  -3  -8  -7   20.70    1.50
 -11   3  -7   17.56    1.13
   0   0   8  489.51   17.02
   0   0   8  506.45   15.82
   0   0  -8  502.29   16.18
   0   0  -8  489.28   17.43
   1  -1   8   14.37    0.74
   1   0   8   13.10    0.73
  -1   0   8   13.78    0.74
  -1   1   8   14.50    0.61
  -1   0   8   13.83    0.56
  -1   1   8   13.64    0.74
  -1   0   8   15.08    0.64
   1  -1   8   14.60    0.61
   0  -1   8   15.17    0.64
   0  -1   8   13.70    0.73
   0   1   8   14.37    0.74
   1   0   8   14.72    0.56
   0  -1  -8   14.16    0.63
  -1   1  -8   13.77    0.60
   1   0  -8   14.46    0.76
   1  -1  -8   13.38    0.74
  -1   0  -8   13.92    0.74
   0  -1  -8   13.92    0.76
  -1   1  -8   14.40    0.76
   0   1  -8   14.27    0.77
  -1   0  -8   13.92    0.63
   1  -1  -8   14.03    0.59
   0   1  -8   14.39    0.56
   1  -2   8  231.96    8.12
   1  -2   8  221.94    7.54
   1   1   8  241.24    8.17
  -1   2   8  243.06    7.73
   2  -1   8  231.18    7.48
  -2   1   8  228.86    7.63
  -1  -1   8  220.50    7.56
  -2   1   8  236.49    8.17
  -1   2   8  243.27    8.15
  -1  -1   8  219.08    8.14
   2  -1   8  231.21    8.15
  -1   2  -8  240.08    8.37
   1  -2  -8  229.33    7.45
  -1  -1  -8  240.17    7.74
  -2   1  -8  244.98    7.73
  -1   2  -8  221.23    7.63
  -1  -1  -8  234.85    8.35
   2  -1  -8  228.84    8.32
   1  -2  -8  222.67    8.35
  -2   1  -8  244.74    8.33
   1   1  -8  224.10    8.34
   2  -1  -8  229.45    7.54
  -2   2   8   27.27    1.20
   2   0   8   26.70    0.94
   0  -2   8   26.48    1.19
  -2   0   8   27.94    1.09
   2  -2   8   26.66    1.19
   2   0   8   25.41    1.21
  -2   0   8   27.55    0.94
   0   2   8   27.59    1.21
   0  -2   8   26.46    1.08
   2  -2   8   26.67    1.04
  -2   2   8   25.74    1.04
  -2   0   8   25.27    1.21
   0   2  -8   26.31    0.94
   0  -2  -8   26.45    0.90
   2   0  -8   26.67    1.22
   2  -2  -8   26.99    1.24
   0  -2  -8   27.17    1.10
   0  -2  -8   27.53    1.26
  -2   2  -8   27.38    1.23
  -2   0  -8   27.31    1.11
   0   2  -8   25.31    1.24
   2  -2  -8   26.42    1.02
  -2   0  -8   25.77    1.20
  -2   2  -8   27.30    1.06
  -1   3   8    0.27    0.11
  -2  -1   8    0.38    0.12
  -3   2   8    0.39    0.15
   3  -2   8    0.36    0.12
  -3   2   8    0.27    0.08
   2   1   8    0.46    0.15
   1  -3   8    0.23    0.09
   3  -2   8    0.37    0.09
   1  -3   8    1.00    0.19
  -2  -1   8    0.26    0.10
  -1   3   8    0.23    0.08
   1  -3  -8    0.35    0.05
   2   1  -8    0.61    0.16
  -2  -1  -8    0.36    0.11
  -3   2  -8    0.43    0.12
  -3   2  -8    0.27    0.08
  -1   3  -8    0.55    0.16
  -1   3  -8    0.34    0.06
   3  -2  -8    0.53    0.11
   3  -2  -8    0.32    0.11
  -2  -1  -8    0.21    0.09
   1  -3  -8    0.21    0.12
   2  -3   8    3.87    0.32
  -3   1   8    4.54    0.39
   3  -1   8    3.88    0.35
   1   2   8    4.77    0.38
   2  -3   8    3.93    0.30
  -3   1   8    4.16    0.23
  -2   3   8    4.46    0.35
  -1  -2   8    4.24    0.36
  -2   3   8    3.98    0.30
  -1  -2   8    4.16    0.32
   3  -1   8    4.74    0.25
  -1  -2  -8    3.89    0.31
   3  -1  -8    4.17    0.35
  -2   3  -8    3.91    0.26
   2  -3  -8    4.39    0.38
   1   2  -8    4.28    0.38
   2  -3  -8    4.17    0.25
  -3   1  -8    3.93    0.32
  -3   1  -8    4.17    0.32
  -1  -2  -8    4.25    0.38
   3  -1  -8    3.99    0.30
  -2   3  -8    4.02    0.36
  -3   3   8  350.66   11.77
   0  -3   8  335.99   11.75
  -3   3   8  352.36   11.20
  -3   0   8  335.98   11.00
   3   0   8  337.57   10.80
  -3   0   8  323.99   11.83
   3   0   8  331.18   11.82
   3  -3   8  316.51   10.95
   0   3   8  368.90   11.78
   3  -3   8  331.18   11.73
   0  -3   8  327.80   11.00
   0   3  -8  313.54   12.10
  -3   0  -8  354.69   11.26
  -3   0  -8  355.98   12.04
  -3   3  -8  348.40   11.21
   3   0  -8  331.45   12.03
   3  -3  -8  331.62   10.92
  -3   3  -8  354.63   12.06
   3  -3  -8  335.95   12.07
   0  -3  -8  354.20   11.26
   0  -3  -8  329.57   12.12
  -4   3   8   24.32    1.02
  -1   4   8   24.32    1.11
  -3  -1   8   23.80    1.22
   1  -4   8   25.59    1.08
   3   1   8   26.01    1.23
   1  -4   8   22.85    1.09
   4  -3   8   24.17    1.03
  -4   3   8   24.09    1.18
  -1   4   8   24.00    1.08
   4  -3   8   24.56    1.15
  -3  -1   8   22.90    1.05
  -1   4  -8   24.66    0.94
   4  -3  -8   23.43    1.16
   3   1  -8   24.34    1.17
  -3  -1  -8   24.18    1.09
  -4   3  -8   24.40    1.07
  -3  -1  -8   23.39    1.15
  -4   3  -8   24.33    1.13
   1  -4  -8   24.66    1.27
   4  -3  -8   23.74    1.02
  -1   4  -8   23.81    1.24
  -2   4   8  170.54    5.79
   4  -2   8  168.78    5.59
   4  -2   8  168.61    6.12
  -2  -2   8  165.69    6.14
  -4   2   8  170.61    6.15
   2  -4   8  168.38    6.00
  -4   2   8  174.09    5.67
   2  -4   8  161.38    5.66
  -2  -2   8  167.56    5.68
  -2   4   8  174.64    6.04
   2   2   8  175.94    6.13
  -2  -2  -8  174.78    6.28
  -2   4  -8  169.59    6.29
   2   2  -8  167.63    6.25
   2  -4  -8  169.26    5.51
  -4   2  -8  170.74    6.14
  -2  -2  -8  171.51    5.81
  -4   2  -8  170.40    5.80
  -2   4  -8  168.83    5.69
   4  -2  -8  166.77    5.65
   2  -4  -8  165.54    6.30
   4  -2  -8  165.09    6.18
  -4   1   8    7.05    0.53
  -1  -3   8    4.97    0.42
  -1  -3   8    5.62    0.40
   3  -4   8    5.26    0.38
   4  -1   8    5.35    0.46
   1   3   8    5.62    0.44
   4  -1   8    6.28    0.33
  -3   4   8    4.97    0.40
   3  -4   8    6.45    0.42
  -3   4   8    5.44    0.38
  -3   4  -8    5.79    0.38
  -4   1  -8    5.66    0.41
  -1  -3  -8    5.47    0.40
   4  -1  -8    5.19    0.40
  -3   4  -8    5.05    0.43
  -1  -3  -8    5.80    0.49
   1   3  -8    5.38    0.47
   3  -4  -8    6.25    0.49
   4  -1  -8    5.96    0.40
   3  -4  -8    5.51    0.33
  -4   1  -8    6.38    0.41
   0   4   8    0.24    0.10
   0  -4   8    0.34    0.09
   4  -4   8    0.34    0.08
  -4   0   8    0.28    0.11
   4  -4   8    0.23    0.08
   4   0   8    0.31    0.13
   0  -4   8    0.40    0.13
  -4   4   8    0.21    0.11
  -4   4   8    0.51    0.11
   0  -4  -8    0.31    0.10
   4  -4  -8    0.22    0.10
   4   0  -8    0.40    0.11
   0  -4  -8    0.40    0.15
   0   4  -8    0.48    0.15
  -4   4  -8    0.39    0.11
   4   0  -8    0.77    0.16
  -4   0  -8    0.27    0.10
   4  -4  -8    0.15    0.05
  -4   4  -8    0.67    0.13
  -4   0  -8    0.39    0.10
   1  -5   8  173.56    6.14
   4   1   8  182.98    6.70
  -4  -1   8  183.41    6.16
   5  -4   8  183.32    6.13
  -4  -1   8  173.01    6.71
  -1   5   8  190.39    6.49
  -1   5   8  175.46    6.28
  -5   4   8  189.37    6.62
   5  -4   8  179.03    6.53
   1  -5   8  184.54    6.49
  -5   4   8  188.11    6.22
  -4  -1  -8  181.26    6.29
   5  -4  -8  181.92    6.10
  -4  -1  -8  183.11    6.70
   5  -4  -8  183.61    6.71
   4   1  -8  181.83    6.68
  -5   4  -8  188.64    6.30
  -1   5  -8  172.50    6.86
  -5   4  -8  189.40    6.65
   1  -5  -8  177.07    6.89
  -5   3   8    1.54    0.29
  -3  -2   8    1.76    0.27
  -2   5   8    2.04    0.29
  -3  -2   8    1.89    0.32
  -5   3   8    2.27    0.20
   5  -3   8    2.54    0.28
  -2   5   8    1.84    0.25
   3   2   8    2.11    0.33
   2  -5   8    1.77    0.23
   2  -5   8    1.89    0.27
   5  -3   8    2.42    0.33
  -2   5  -8    2.20    0.18
   5  -3  -8    2.48    0.31
  -5   3  -8    1.98    0.29
  -5   3  -8    2.59    0.24
  -3  -2  -8    2.21    0.30
   5  -3  -8    1.93    0.26
  -2   5  -8    1.41    0.29
   3   2  -8    1.94    0.30
   2  -5  -8    1.53    0.31
  -3  -2  -8    2.24    0.33
   5  -2   8   28.28    1.36
  -5   2   8   27.14    1.38
   2   3   8   26.70    1.30
   3  -5   8   28.50    1.23
  -2  -3   8   27.09    1.21
  -3   5   8   27.46    1.21
   5  -2   8   29.07    1.14
  -3   5   8   27.64    1.23
   3  -5   8   26.30    1.18
  -5   2   8   27.20    1.07
  -2  -3   8   27.68    1.35
  -2  -3  -8   25.30    1.21
  -2  -3  -8   27.03    1.38
   5  -2  -8   26.62    1.19
  -5   2  -8   28.17    1.24
  -5   2  -8   27.37    1.21
  -3   5  -8   27.52    1.17
   5  -2  -8   26.98    1.25
   2   3  -8   26.35    1.35
   3  -5  -8   28.75    1.09
   3  -5  -8   26.70    1.39
  -3   5  -8   28.05    1.38
   5  -1   8  211.35    6.90
  -4   5   8  214.55    7.18
  -1  -4   8  203.96    7.54
   4  -5   8  210.58    7.06
  -4   5   8  221.62    7.50
   1   4   8  214.94    7.50
  -1  -4   8  204.33    7.04
   4  -5   8  211.03    7.41
  -5   1   8  206.46    7.69
   5  -1   8  202.02    7.65
  -4   5  -8  208.49    7.72
   5  -1  -8  216.36    7.62
  -1  -4  -8  213.75    7.21
  -4   5  -8  221.12    7.20
   4  -5  -8  201.69    7.76
  -5   1  -8  211.27    7.21
  -1  -4  -8  208.46    7.86
   4  -5  -8  213.79    6.94
   5  -1  -8  214.49    7.06
   1   4  -8  199.35    7.80
  -5   1  -8  214.77    7.60
   5  -5   8    5.29    0.43
   0   5   8    6.61    0.46
   5  -5   8    6.11    0.44
   0   5   8    6.13    0.47
  -5   0   8    6.30    0.58
   0  -5   8    5.68    0.45
  -5   5   8    7.27    0.47
   5   0   8    6.33    0.56
   0  -5   8    5.65    0.45
  -5   5   8    5.91    0.46
  -5   5  -8    6.65    0.48
   5  -5  -8    6.23    0.51
  -5   5  -8    6.63    0.46
   5   0  -8    5.79    0.45
  -5   0  -8    5.93    0.47
   0  -5  -8    5.84    0.57
   5  -5  -8    6.42    0.42
   5   0  -8    6.15    0.45
  -5   0  -8    6.10    0.44
   0   5  -8    5.90    0.56
   1  -6   8   36.53    1.57
   5   1   8   36.54    1.81
  -6   5   8   35.84    1.69
   6  -5   8   35.54    1.55
   1  -6   8   36.86    1.58
  -5  -1   8   37.69    1.85
  -6   5   8   36.48    1.53
   6  -5   8   35.79    1.60
  -1   6   8   36.98    1.55
  -1   6   8   36.64    1.60
   1  -6  -8   36.73    1.90
   5   1  -8   35.91    1.55
  -1   6  -8   35.25    1.86
   6  -5  -8   36.27    1.67
  -5  -1  -8   33.46    1.57
  -6   5  -8   35.11    1.58
  -6   5  -8   35.29    1.58
   5   1  -8   37.16    1.62
  -5  -1  -8   36.85    1.67
   6  -5  -8   35.41    1.51
  -2   6   8    0.80    0.14
   6  -4   8    1.43    0.23
  -6   4   8    0.34    0.17
   2  -6   8    1.32    0.18
  -4  -2   8    0.85    0.19
  -2   6   8    0.66    0.17
  -4  -2   8    0.48    0.20
   2  -6   8    0.81    0.19
   4   2   8    0.92    0.24
   6  -4   8    0.74    0.17
  -6   4   8    0.81    0.15
   4   2  -8    1.06    0.21
  -6   4  -8    1.23    0.19
   2  -6  -8    0.95    0.28
   6  -4  -8    1.16    0.19
  -4  -2  -8    1.89    0.31
  -2   6  -8    0.80    0.22
  -4  -2  -8    1.15    0.24
  -6   4  -8    1.08    0.21
   6  -4  -8    0.72    0.16
  -3  -3   8  262.09    8.80
   6  -3   8  267.81    8.75
   6  -3   8  250.76    9.45
  -6   3   8  260.04    9.53
  -6   3   8  263.74    8.82
   3  -6   8  261.80    8.81
   3  -6   8  261.86    9.20
  -3   6   8  280.46    9.27
  -3   6   8  262.83    8.98
   3   3   8  253.09    9.42
  -3  -3   8  257.31    9.52
   6  -3  -8  272.69    9.51
  -3   6  -8  268.89    9.77
   6  -3  -8  263.44    8.78
   3  -6  -8  252.34    9.78
  -6   3  -8  278.70    9.03
   3   3  -8  266.78    9.65
  -3  -3  -8  262.62    9.72
  -3   6  -8  271.55    8.93
  -3  -3  -8  269.95    9.00
  -6   3  -8  271.68    9.44
  -2  -4   8   20.78    1.16
  -2  -4   8   20.53    1.03
   6  -2   8   20.16    1.19
   4  -6   8   21.00    0.98
   4  -6   8   22.25    1.08
  -4   6   8   22.06    1.04
  -6   2   8   21.47    1.25
   6  -2   8   24.40    1.01
  -4   6   8   22.04    1.07
   2   4   8   20.37    1.10
   4  -6  -8   21.26    0.93
   6  -2  -8   22.55    1.06
   2   4  -8   21.14    1.20
  -6   2  -8   19.97    1.05
  -4   6  -8   22.64    1.05
  -2  -4  -8   20.89    1.06
  -4   6  -8   21.81    1.19
   6  -2  -8   21.20    1.03
  -2  -4  -8   20.18    1.23
  -6   2  -8   22.08    1.01
   4  -6  -8   21.28    1.24
   1   5   8    6.78    0.50
  -5   6   8    6.78    0.50
  -1  -5   8    5.90    0.48
   6  -1   8    6.67    0.62
   5  -6   8    6.56    0.44
  -6   1   8    6.91    0.64
  -5   6   8    7.53    0.52
   5  -6   8    7.51    0.54
  -1  -5   8    7.06    0.55
  -1  -5  -8    6.64    0.51
  -5   6  -8    7.40    0.52
  -1  -5  -8    7.74    0.69
   6  -1  -8    6.77    0.51
   6  -1  -8    7.69    0.48
   5  -6  -8    6.85    0.59
  -5   6  -8    7.73    0.57
  -6   1  -8    7.40    0.54
   5  -6  -8    7.08    0.45
   1   5  -8    6.81    0.62
   0   6   8  277.69    9.27
   6   0   8  256.42    9.62
   6  -6   8  263.17    8.81
  -6   0   8  257.13    9.65
   6  -6   8  265.20    9.23
   0  -6   8  268.80    9.34
   0   6   8  261.10    8.99
  -6   6   8  257.10    9.35
  -6   6   8  268.34    8.96
   0  -6   8  258.89    8.79
   0  -6  -8  250.13    9.87
   0   6  -8  238.04    9.79
   6   0  -8  270.77    8.81
   6  -6  -8  253.84    9.64
   6  -6  -8  269.34    8.73
  -6   6  -8  272.45    9.02
   6   0  -8  265.56    9.44
  -6   6  -8  270.29    9.52
  -6   0  -8  267.03    9.00
   6   1   8    0.92    0.26
  -7   6   8    1.21    0.22
   1  -7   8    1.23    0.25
  -7   6   8    1.18    0.21
   7  -6   8    0.99    0.21
  -1   7   8    1.07    0.24
  -6  -1   8    1.17    0.32
   7  -6   8    1.37    0.21
   1  -7  -8    0.98    0.27
  -6  -1  -8    0.96    0.22
   7  -6  -8    1.11    0.20
   6   1  -8    1.02    0.23
  -7   6  -8    0.93    0.20
  -1   7  -8    0.68    0.23
   7  -6  -8    1.11    0.20
   6   1  -8    1.10    0.16
   7  -5   8  113.93    4.51
   5   2   8  117.63    4.72
   7  -5   8  118.36    4.27
  -5  -2   8  119.48    4.82
  -2   7   8  120.12    4.37
   2  -7   8  123.02    4.30
  -7   5   8  119.59    4.26
  -7   5   8  116.90    4.64
  -5  -2   8  114.77    4.25
   5   2  -8  119.21    4.57
  -7   5  -8  115.79    4.38
  -5  -2  -8  124.35    4.70
  -2   7  -8  123.28    4.96
   7  -5  -8  121.63    4.57
  -5  -2  -8  118.07    4.35
   2  -7  -8  120.11    4.97
   7  -5  -8  120.77    4.25
  -7   4   8    3.48    0.50
  -4  -3   8    3.60    0.55
  -4  -3   8    3.62    0.43
  -7   4   8    3.98    0.31
   7  -4   8    3.95    0.50
  -3   7   8    3.90    0.45
   4   3   8    4.07    0.53
   7  -4   8    3.72    0.41
   3  -7   8    3.33    0.42
  -4  -3  -8    4.20    0.54
  -3   7  -8    3.79    0.56
   7  -4  -8    3.75    0.43
  -7   4  -8    3.40    0.43
   4   3  -8    3.56    0.45
  -4  -3  -8    3.98    0.46
   7  -4  -8    4.61    0.35
   3  -7  -8    4.13    0.60
   7  -3   8    6.84    0.46
   3   4   8    6.71    0.54
   7  -3   8    5.94    0.56
  -3  -4   8    5.09    0.45
   4  -7   8    6.03    0.49
  -7   3   8    6.75    0.62
  -3  -4   8    5.97    0.56
  -4   7   8    6.26    0.50
  -4   7  -8    6.03    0.57
  -7   3  -8    5.06    0.46
   3   4  -8    6.23    0.55
  -4   7  -8    6.24    0.46
   4  -7  -8    5.08    0.67
   7  -3  -8    5.22    0.45
  -3  -4  -8    6.35    0.60
  -3  -4  -8    5.95    0.48
   7  -2   8  159.80    6.09
  -2  -5   8  159.94    5.96
   5  -7   8  163.60    5.54
  -2  -5   8  154.69    5.48
   2   5   8  153.03    5.79
  -5   7   8  162.07    5.61
  -7   2   8  157.31    6.12
  -7   2  -8  162.51    5.65
   7  -2  -8  158.99    5.50
   2   5  -8  157.05    6.12
  -5   7  -8  159.02    5.60
  -5   7  -8  153.75    6.03
  -2  -5  -8  158.58    5.60
   5  -7  -8  152.64    6.14
  -2  -5  -8  154.99    6.24
   5  -7  -8  156.39    5.34
   1   6   8    9.41    0.62
   1   6   8    9.09    0.66
  -7   1   8    9.33    0.82
   7  -1   8    9.63    0.82
  -6   7   8   10.88    0.65
   6  -7   8    9.96    0.68
  -1  -6   8   10.87    0.72
  -6   7   8    9.56    0.65
  -1  -6   8   10.05    0.67
  -6   7  -8    8.39    0.62
  -7   1  -8    9.18    0.66
   7  -1  -8   10.05    0.67
   6  -7  -8    9.63    0.75
   1   6  -8    9.81    0.83
   6  -7  -8    9.09    0.58
  -6   7  -8    8.86    0.66
  -1  -6  -8    9.65    0.86
  -7   0   8    0.21    0.11
   7  -7   8    0.48    0.16
   0   7   8    0.21    0.10
  -7   7   8    0.26    0.12
  -7   7   8    0.22    0.07
   0  -7   8    0.87    0.20
   7   0   8    0.31    0.17
  -7   7  -8    0.34    0.11
   0   7  -8    0.36    0.17
   7  -7  -8    0.34    0.09
   0  -7  -8    0.34    0.17
  -7   7  -8    0.26    0.06
  -7   0  -8    0.33    0.10
   7   0  -8    0.51    0.13
   7  -7  -8    0.38    0.13
   1  -8   8   94.44    3.53
  -7  -1   8   94.91    4.14
  -8   7   8   97.49    3.81
  -8   7   8   90.09    3.51
   7   1   8   90.42    4.03
   8  -7   8   91.14    3.53
  -1   8   8   94.02    3.61
   7   1  -8   94.70    3.53
  -8   7  -8   89.54    3.59
  -1   8  -8   91.79    4.19
   8  -7  -8   91.21    3.47
   1  -8  -8   92.83    4.25
  -7  -1  -8   90.84    3.58
   2  -8   8    6.55    0.55
  -8   6   8    7.26    0.53
   8  -6   8    6.88    0.54
  -8   6   8    8.58    0.67
   6   2   8    6.97    0.81
  -6  -2   8    7.71    0.89
  -2   8   8    6.60    0.56
   8  -6   8    7.37    0.57
  -2   8  -8    6.88    0.86
   8  -6  -8    7.25    0.54
  -8   6  -8    6.40    0.55
   6   2  -8    6.87    0.50
   2  -8  -8    6.11    0.84
   6   2  -8    6.56    0.55
  -6  -2  -8    6.56    0.55
  -8   5   8    3.38    0.50
   8  -5   8    2.37    0.38
  -5  -3   8    2.71    0.40
  -5  -3   8    2.56    0.47
   8  -5   8    2.65    0.37
   5   3   8    2.98    0.47
  -3   8   8    2.49    0.38
   3  -8   8    3.08    0.42
  -8   5   8    2.61    0.33
  -5  -3  -8    2.70    0.43
   8  -5  -8    2.77    0.39
   5   3  -8    3.00    0.39
  -8   5  -8    2.47    0.38
  -5  -3  -8    2.53    0.38
   3  -8  -8    2.75    0.52
  -3   8  -8    2.02    0.42
  -8   4   8  136.19    5.39
  -4  -4   8  132.93    4.83
  -4   8   8  137.97    4.96
   8  -4   8  137.17    5.29
  -4  -4   8  135.12    5.39
   8  -4   8  139.44    4.84
   4  -8   8  139.88    4.89
   4   4   8  136.29    5.24
  -4   8  -8  133.81    5.50
   4  -8  -8  131.86    5.58
  -4  -4  -8  130.21    4.92
   4   4  -8  138.65    5.29
  -4  -4  -8  137.72    5.49
  -8   4  -8  132.14    4.95
   8  -4  -8  135.74    4.84
  -3  -5   8    0.43    0.14
  -8   3   8    0.36    0.17
   5  -8   8    2.08    0.34
   3   5   8    0.76    0.19
  -3  -5   8    0.85    0.19
  -5   8   8    0.82    0.20
   8  -3   8    0.60    0.21
  -3  -5  -8    0.85    0.24
   5  -8  -8    0.32    0.16
  -8   3  -8    0.72    0.19
  -5   8  -8    0.82    0.16
  -5   8  -8    0.91    0.25
   8  -3  -8    0.81    0.20
  -3  -5  -8    1.14    0.24
   3   5  -8    0.55    0.18
   6  -8   8    7.05    0.58
   8  -2   8    8.19    0.76
   2   6   8    7.87    0.57
  -2  -6   8    8.08    0.60
  -8   2   8    7.32    0.88
  -6   8   8    7.24    0.59
  -2  -6   8    8.94    0.69
   6  -8  -8    7.14    0.50
  -6   8  -8    8.25    0.60
   8  -2  -8    8.18    0.61
  -6   8  -8    8.38    0.66
   6  -8  -8    8.18    0.72
   2   6  -8    7.23    0.70
  -2  -6  -8    7.66    0.60
  -2  -6  -8    8.43    0.81
  -8   2  -8    6.74    0.58
   8  -1   8  111.99    4.85
  -7   8   8  117.66    4.32
  -1  -7   8  116.39    4.24
   1   7   8  116.21    4.34
   7  -8   8  112.93    4.27
  -8   1   8  119.20    4.93
   7  -8  -8  120.29    4.16
  -1  -7  -8  112.92    5.01
   7  -8  -8  112.25    4.75
  -8   1  -8  114.89    4.34
   1   7  -8  119.98    4.94
   8  -1  -8  112.26    4.24
  -7   8  -8  113.88    4.54
  -7   8  -8  115.03    4.36
  -8   0   8    6.97    0.93
   0  -8   8    8.86    0.67
   8   0   8    9.15    0.87
   0   8   8    8.31    0.67
   8  -8   8    9.20    0.69
  -8   8   8    8.93    0.66
   8   0  -8    8.60    0.66
   0   8  -8   11.14    0.98
   0  -8  -8    9.50    1.11
  -8   8  -8    8.65    0.67
  -8   0  -8    7.71    0.64
   8  -8  -8    8.48    0.61
  -9   8   8    6.00    0.52
   1  -9   8    5.70    0.62
  -8  -1   8    7.26    0.95
  -1   9   8    6.25    0.56
   8   1   8    6.47    0.90
   9  -8   8    6.53    0.57
   9  -8  -8    6.04    0.51
   8   1  -8    6.21    0.56
  -9   8  -8    7.07    0.58
   1  -9  -8    6.87    0.99
  -8  -1  -8    6.41    0.57
  -1   9  -8    6.68    0.92
  -9   7   8    3.95    0.49
  -7  -2   8    3.29    0.61
   7   2   8    2.81    0.53
  -2   9   8    2.49    0.41
   2  -9   8    3.67    0.48
  -9   7   8    3.66    0.45
   9  -7   8    4.68    0.55
   9  -7  -8    3.80    0.47
  -2   9  -8    4.73    0.75
  -9   7  -8    4.35    0.54
   2  -9  -8    4.14    0.74
  -7  -2  -8    4.28    0.53
   7   2  -8    3.65    0.48
  -3   9   8  155.09    5.70
  -9   6   8  157.18    6.11
  -9   6   8  161.95    5.58
  -6  -3   8  154.03    6.31
   9  -6   8  159.76    5.61
   9  -6   8  160.90    5.93
   3  -9   8  155.59    5.58
   6   3   8  158.25    6.16
  -9   6  -8  147.24    5.68
   9  -6  -8  153.67    5.54
   3  -9  -8  151.77    6.52
  -3   9  -8  152.49    6.44
   6   3  -8  155.93    5.54
  -6  -3  -8  156.24    5.67
   4  -9   8    3.35    0.46
   9  -5   8    3.62    0.51
  -4   9   8    3.81    0.51
   9  -5   8    3.80    0.45
   5   4   8    4.05    0.55
  -5  -4   8    3.65    0.60
  -5  -4   8    3.16    0.44
  -9   5   8    3.56    0.53
  -4   9  -8    3.90    0.62
   4  -9  -8    4.10    0.69
  -9   5  -8    3.91    0.51
  -5  -4  -8    4.49    0.62
  -5  -4  -8    4.14    0.52
   9  -5  -8    3.95    0.49
   5   4  -8    3.54    0.46
   4   5   8    6.42    0.57
  -5   9   8    5.87    0.53
  -9   4   8    6.59    0.84
   9  -4   8    6.72    0.64
  -4  -5   8    5.89    0.52
  -4  -5   8    7.43    0.69
   5  -9   8    6.01    0.63
  -9   4  -8    6.00    0.54
   5  -9  -8    6.38    0.86
  -5   9  -8    5.83    0.74
  -4  -5  -8    5.69    0.52
  -4  -5  -8    6.85    0.83
   4   5  -8    5.74    0.54
   9  -4  -8    5.94    0.53
  -3  -6   8  150.24    5.89
   9  -3   8  150.65    6.00
  -3  -6   8  145.87    5.31
  -9   3   8  149.97    6.08
   3   6   8  146.12    5.61
  -6   9   8  144.35    5.44
   6  -9   8  149.03    5.38
   9  -3  -8  149.96    5.36
  -6   9  -8  155.65    5.49
  -9   3  -8  147.84    5.46
   6  -9  -8  148.71    6.13
  -3  -6  -8  145.20    5.43
   3   6  -8  153.46    5.97
  -6   9  -8  150.84    5.92
  -3  -6  -8  147.11    6.21
   2   7   8   10.42    0.75
  -2  -7   8    9.96    0.71
   9  -2   8    9.74    0.91
  -7   9   8    9.31    0.71
   7  -9   8    9.44    0.72
  -9   2   8   10.41    0.96
  -9   2  -8    8.14    0.67
   9  -2  -8    8.89    0.69
   7  -9  -8    9.50    0.61
   7  -9  -8    9.72    0.80
  -7   9  -8    8.88    0.67
  -7   9  -8    9.16    0.72
  -2  -7  -8   10.46    0.99
   2   7  -8    9.76    0.87
   8  -9   8    0.92    0.21
  -9   1   8    1.00    0.30
  -1  -8   8    0.71    0.20
   1   8   8    0.61    0.18
  -8   9   8    0.53    0.18
   9  -1   8    0.82    0.23
  -1  -8  -8    0.82    0.26
   8  -9  -8    0.57    0.13
  -9   1  -8    0.86    0.20
   1   8  -8    0.84    0.27
   9  -1  -8    0.71    0.19
  -8   9  -8    0.86    0.15
  -9   0   8  131.49    5.68
   0   9   8  124.53    4.94
   0  -9   8  134.02    4.87
   9  -9   8  124.71    4.87
  -9   9   8  133.20    4.92
   9   0   8  134.53    5.64
   9   0  -8  132.41    4.88
   9  -9  -8  133.68    4.80
  -9   9  -8  129.66    4.98
  -9   0  -8  129.92    4.95
   0   9  -8  130.57    5.72
   0  -9  -8  134.22    5.89
  -1  10   8    2.02    0.35
  -9  -1   8    2.77    0.52
  10  -9   8    2.24    0.28
 -10   9   8    1.92    0.30
   1 -10   8    1.95    0.31
   9   1   8    1.63    0.33
  -9  -1  -8    2.78    0.43
  10  -9  -8    2.24    0.32
   1 -10  -8    2.83    0.50
 -10   9  -8    2.75    0.36
   9   1  -8    1.35    0.30
  -1  10  -8    1.90    0.45
   2 -10   8   87.05    3.41
 -10   8   8   86.38    3.37
  -2  10   8   84.80    3.48
   8   2   8   88.58    3.98
  -8  -2   8   88.90    4.07
  10  -8   8   86.04    3.42
 -10   8  -8   81.94    3.46
  10  -8  -8   79.89    3.32
   8   2  -8   87.17    3.41
  -8  -2  -8   83.25    3.43
   2 -10  -8   89.28    4.29
  -2  10  -8   76.61    4.04
  10  -7   8    2.54    0.35
   7   3   8    1.86    0.38
  -3  10   8    1.62    0.31
   3 -10   8    1.68    0.30
  -7  -3   8    2.17    0.46
 -10   7   8    1.71    0.27
 -10   7  -8    1.60    0.30
   7   3  -8    1.67    0.31
  -3  10  -8    1.31    0.35
  -7  -3  -8    1.57    0.31
  10  -7  -8    1.74    0.31
   3 -10  -8    2.04    0.46
  -4  10   8    4.96    0.61
 -10   6   8    4.60    0.45
  -6  -4   8    5.15    0.76
   6   4   8    3.95    0.57
   4 -10   8    3.96    0.52
  10  -6   8    5.38    0.46
  10  -6   8    5.13    0.63
  -6  -4  -8    4.80    0.58
   6   4  -8    5.16    0.60
  10  -6  -8    4.59    0.56
   4 -10  -8    4.18    0.74
 -10   6  -8    4.35    0.57
  -4  10  -8    5.30    0.79
   5   5   8   83.18    3.50
  10  -5   8   80.39    3.56
  -5  -5   8   81.43    3.21
  -5  10   8   81.50    3.30
   5 -10   8   79.95    3.24
 -10   5   8   84.50    3.76
  -5  -5   8   80.63    3.71
  -5  -5  -8   77.10    3.24
 -10   5  -8   78.05    3.29
  10  -5  -8   80.63    3.23
   5 -10  -8   83.20    3.97
   5   5  -8   78.27    3.42
  -5  10  -8   84.61    3.79
  -4  -6   8    0.69    0.17
   4   6   8    0.62    0.09
  10  -4   8    0.54    0.16
   6 -10   8    0.56    0.15
 -10   4   8    0.40    0.12
  -4  -6   8    0.64    0.19
  -6  10   8    0.83    0.23
  -6  10  -8    0.49    0.14
 -10   4  -8    0.42    0.16
   6 -10  -8    0.70    0.15
   4   6  -8    0.24    0.09
  -4  -6  -8    0.56    0.17
  10  -4  -8    0.90    0.19
  -4  -6  -8    0.49    0.14
  10  -3   8    4.49    0.69
  -3  -7   8    4.78    0.56
 -10   3   8    5.04    0.75
  -7  10   8    3.79    0.52
   7 -10   8    4.89    0.60
  10  -3  -8    4.01    0.52
  -3  -7  -8    5.61    0.80
  -7  10  -8    4.33    0.40
  -7  10  -8    4.88    0.62
   3   7  -8    5.08    0.64
 -10   3  -8    3.89    0.52
   7 -10  -8    4.74    0.62
 -10   2   8   65.60    3.36
  -2  -8   8   62.25    2.72
  10  -2   8   68.60    3.35
  -8  10   8   66.09    2.82
   8 -10   8   65.90    2.82
  -8  10  -8   66.79    2.83
  10  -2  -8   64.33    2.77
   2   8  -8   68.58    3.27
  -2  -8  -8   69.65    3.48
 -10   2  -8   65.60    2.83
  -1  -9   8    0.57    0.16
  10  -1   8    0.67    0.19
   1   9   8    0.99    0.24
   9 -10   8    0.84    0.19
 -10   1   8    0.87    0.24
  -9  10   8    1.09    0.21
  -1  -9  -8    1.25    0.32
  -9  10  -8    0.88    0.14
   9 -10  -8    1.13    0.20
  10  -1  -8    0.69    0.20
 -10   1  -8    0.75    0.21
   1   9  -8    1.19    0.28
  -7  -4   8   93.42    4.25
  11  -7   8   96.52    3.70
   7   4   8   91.86    4.07
   4 -11   8   87.46    3.63
  -4  11   8   92.88    3.76
   7   4  -8   91.18    3.63
 -11   7  -8   89.99    3.75
  -7  -4  -8   90.11    3.69
  11  -7  -8   90.48    3.65
  -4  11  -8   95.90    4.42
   4 -11  -8   90.99    4.49
 -11   6   8    4.46    0.62
   6   5   8    4.20    0.41
  -5  11   8    4.53    0.59
   5 -11   8    4.93    0.61
  11  -6   8    5.05    0.64
  -6  -5   8    4.44    0.64
  -6  -5  -8    3.99    0.53
  -5  11  -8    4.97    0.72
  11  -6  -8    3.97    0.52
 -11   6  -8    4.69    0.59
   5 -11  -8    4.97    0.78
 -11   5   8    6.10    0.75
  -6  11   8    4.25    0.57
  -5  -6   8    3.35    0.48
  11  -5   8    5.13    0.69
   5   6   8    5.50    0.51
   6 -11   8    4.73    0.60
  11  -5  -8    4.70    0.58
 -11   5  -8    6.19    0.68
  -6  11  -8    6.09    0.78
   5   6  -8    4.49    0.42
   6 -11  -8    4.96    0.68
  -5  -6  -8    5.25    0.62
 -11   4   8   69.58    3.38
  11  -4   8   68.28    3.27
  -7  11   8   62.40    2.86
   7 -11   8   63.99    2.84
  -7  11  -8   68.40    3.17
 -11   4  -8   62.41    2.86
   4   7  -8   69.62    3.14
  11  -4  -8   65.77    2.84
   7 -11  -8   71.14    3.45
  -4  -7  -8   70.83    3.45
   0   0   9    0.26    0.08
   0   0   9   -0.09    0.07
   0   0  -9    0.42    0.15
   1   0   9  128.55    4.02
  -1   0   9  125.68    4.10
  -1   0   9  118.91    4.49
   0  -1   9  119.89    4.48
   1  -1   9  121.97    4.48
  -1   0   9  121.32    4.09
   1  -1   9  124.66    4.07
   0  -1   9  123.23    4.10
  -1   1   9  123.01    4.15
   0   1   9  121.46    4.49
  -1   1   9  120.11    4.48
   1   0   9  121.85    4.50
   1   0  -9  121.32    4.59
   0  -1  -9  126.79    4.19
  -1   0  -9  122.69    4.18
   1  -1  -9  119.71    4.58
  -1   0  -9  123.07    4.58
  -1   1  -9  123.47    4.15
   0  -1  -9  118.32    4.59
   0   1  -9  122.16    4.61
   0  -1  -9  127.44    4.00
   1  -1  -9  123.03    4.05
  -1   1  -9  123.66    4.59
   0   1  -9  120.95    4.09
  -2   1   9  110.94    4.14
   1  -2   9  112.88    4.11
   2  -1   9  112.44    4.13
  -1   2   9  108.32    4.11
   1  -2   9  112.25    3.77
  -1   2   9  116.25    3.86
   2  -1   9  110.83    3.69
  -1  -1   9  108.05    3.78
   1   1   9  111.07    4.13
  -2   1   9  111.14    3.76
  -1  -1   9  109.01    4.13
   2  -1  -9  113.16    3.76
   1  -2  -9  112.89    4.25
  -1  -1  -9  112.74    4.23
  -2   1  -9  111.23    3.84
  -1   2  -9  109.07    3.75
   1   1  -9  110.95    4.23
  -1   2  -9  110.17    4.23
  -1  -1  -9  116.16    3.87
  -2   1  -9  112.01    4.19
   2  -1  -9  112.46    4.21
   1  -2  -9  109.83    3.66
   2   0   9  116.56    3.68
   2  -2   9  112.36    3.80
  -2   2   9  111.83    3.87
  -2   0   9  114.14    3.85
  -2   0   9  110.06    4.20
   0  -2   9  111.66    4.17
  -2   2   9  115.28    4.18
   2  -2   9  111.86    4.17
   0   2   9  112.89    4.18
   2   0   9  111.85    4.20
   0  -2   9  108.91    3.84
   0  -2  -9  114.96    4.32
   2  -2  -9  110.29    4.28
   2  -2  -9  110.28    3.77
   2   0  -9  110.21    4.27
  -2   0  -9  113.90    4.26
  -2   2  -9  115.76    3.88
   0   2  -9  115.28    4.32
  -2   2  -9  116.33    4.28
  -2   0  -9  114.18    3.93
   0  -2  -9  115.72    3.93
  -1   3   9  135.70    4.73
   3  -2   9  130.58    4.74
  -2  -1   9  131.42    4.79
   1  -3   9  127.37    4.70
   2   1   9  131.07    4.77
   1  -3   9  124.56    4.37
  -3   2   9  132.36    4.38
   3  -2   9  126.99    4.30
  -3   2   9  129.60    4.76
  -2  -1   9  118.74    4.36
  -1   3   9  132.62    4.47
  -3   2  -9  131.08    4.46
  -2  -1  -9  128.76    4.84
   3  -2  -9  126.59    4.82
   2   1  -9  130.25    4.86
  -2  -1  -9  130.89    4.48
  -1   3  -9  122.86    4.30
   1  -3  -9  129.28    4.90
  -1   3  -9  128.43    4.89
  -3   2  -9  132.66    4.82
   3  -2  -9  128.72    4.34
  -1  -2   9   94.93    3.34
  -2   3   9   94.99    3.59
   1   2   9   96.30    3.63
  -2   3   9   95.94    3.37
   2  -3   9   94.17    3.31
  -3   1   9   98.45    3.24
   2  -3   9   95.95    3.58
   3  -1   9   94.80    3.19
   3  -1   9   95.93    3.65
  -3   1   9   94.37    3.66
  -1  -2   9   96.56    3.63
  -3   1  -9   95.11    3.40
   3  -1  -9   93.90    3.67
  -1  -2  -9   96.48    3.73
   3  -1  -9   95.66    3.32
   2  -3  -9   96.24    3.73
  -2   3  -9  100.85    3.74
  -2   3  -9   95.96    3.30
   2  -3  -9   94.43    3.20
  -1  -2  -9   94.77    3.41
  -3   1  -9   95.05    3.64
   1   2  -9   96.60    3.73
  -3   3   9    1.51    0.20
  -3   3   9    2.05    0.30
   3   0   9    1.12    0.24
   0  -3   9    1.88    0.26
   3  -3   9    1.72    0.22
   0   3   9    1.40    0.25
   0  -3   9    1.63    0.26
  -3   0   9    1.55    0.28
   3  -3   9    1.73    0.26
  -3   3  -9    1.60    0.26
   3  -3  -9    1.36    0.18
  -3   0  -9    1.62    0.23
   0   3  -9    1.58    0.28
   3  -3  -9    1.77    0.30
   3   0  -9    2.36    0.31
   0  -3  -9    1.71    0.24
   0  -3  -9    1.46    0.29
  -3   3  -9    1.48    0.20
  -3   0  -9    1.81    0.27
  -1   4   9   36.96    1.49
  -1   4   9   33.10    1.53
   4  -3   9   35.73    1.58
  -3  -1   9   36.64    1.47
  -3  -1   9   35.87    1.66
   1  -4   9   33.72    1.53
   1  -4   9   35.13    1.46
   4  -3   9   35.39    1.41
  -4   3   9   35.22    1.40
  -4   3   9   35.36    1.61
   3   1   9   35.35    1.63
   4  -3  -9   36.50    1.42
   3   1  -9   36.35    1.62
  -4   3  -9   35.92    1.58
   1  -4  -9   36.34    1.71
  -3  -1  -9   36.78    1.51
   4  -3  -9   36.31    1.62
  -4   3  -9   37.05    1.48
  -1   4  -9   34.39    1.68
  -3  -1  -9   34.84    1.60
   2  -4   9   38.46    1.55
   4  -2   9   39.40    1.73
  -4   2   9   37.00    1.72
  -2  -2   9   39.37    1.56
  -2   4   9   38.62    1.57
  -2  -2   9   38.73    1.73
  -2   4   9   39.15    1.65
   2  -4   9   38.11    1.62
  -4   2   9   38.59    1.44
   4  -2   9   40.23    1.46
   2   2   9   39.10    1.72
   4  -2  -9   36.98    1.52
  -4   2  -9   39.93    1.59
  -2  -2  -9   38.91    1.75
  -4   2  -9   37.69    1.65
   2   2  -9   38.05    1.74
  -2  -2  -9   37.52    1.57
  -2   4  -9   38.42    1.46
  -2   4  -9   38.80    1.77
   4  -2  -9   38.72    1.69
   2  -4  -9   38.60    1.79
  -3   4   9   62.70    2.35
  -3   4   9   63.87    2.50
   4  -1   9   64.82    2.59
   3  -4   9   63.47    2.46
  -1  -3   9   63.15    2.35
  -4   1   9   61.20    2.59
   3  -4   9   61.38    2.32
   1   3   9   65.70    2.54
  -1  -3   9   64.05    2.55
  -1  -3  -9   63.21    2.39
  -3   4  -9   63.65    2.32
  -1  -3  -9   62.99    2.65
   1   3  -9   59.97    2.62
   4  -1  -9   61.96    2.32
  -4   1  -9   62.93    2.50
   3  -4  -9   63.91    2.22
   3  -4  -9   60.06    2.61
   4  -1  -9   62.98    2.53
  -3   4  -9   62.20    2.59
  -4   1  -9   61.43    2.38
  -4   0   9   55.44    2.40
   4  -4   9   57.91    2.13
   4  -4   9   55.91    2.25
   4   0   9   55.63    2.38
  -4   4   9   56.62    2.30
   0  -4   9   55.81    2.27
  -4   4   9   56.67    2.12
   0   4   9   58.47    2.28
   0  -4   9   53.75    2.13
   4   0  -9   54.77    2.12
  -4   0  -9   56.47    2.19
  -4   0  -9   55.61    2.29
  -4   4  -9   56.05    2.15
   4   0  -9   55.75    2.30
   4  -4  -9   56.29    2.05
   0   4  -9   53.40    2.43
   0  -4  -9   56.18    2.45
  -4   4  -9   54.45    2.31
   0  -4  -9   54.23    2.17
   4  -4  -9   55.00    2.36
  -5   4   9   54.00    2.34
  -5   4   9   52.65    2.11
   5  -4   9   54.06    2.28
   1  -5   9   55.65    2.17
  -1   5   9   57.56    2.25
  -1   5   9   55.70    2.21
   5  -4   9   57.56    2.14
   1  -5   9   55.61    2.25
  -4  -1   9   56.58    2.47
   4   1   9   52.05    2.39
  -4  -1   9   55.10    2.17
  -1   5  -9   54.59    2.48
   5  -4  -9   57.87    2.37
  -5   4  -9   60.02    2.22
   4   1  -9   56.71    2.34
  -4  -1  -9   53.81    2.20
  -5   4  -9   57.76    2.31
   1  -5  -9   54.07    2.50
   5  -4  -9   55.99    2.12
  -4  -1  -9   56.47    2.35
   2  -5   9  138.38    5.07
   2  -5   9  136.61    4.83
   5  -3   9  135.31    5.19
   3   2   9  139.36    5.24
  -3  -2   9  137.78    4.83
  -3  -2   9  135.93    5.27
  -5   3   9  141.86    5.25
  -5   3   9  144.17    4.80
   5  -3   9  142.13    4.77
  -2   5   9  144.29    4.94
  -2   5   9  144.23    5.10
  -5   3  -9  142.23    5.19
   5  -3  -9  141.09    5.24
  -3  -2  -9  140.54    5.33
   3   2  -9  138.62    5.30
   2  -5  -9  134.15    5.40
  -3  -2  -9  140.35    4.94
   5  -3  -9  139.51    4.80
  -2   5  -9  138.17    5.40
  -5   3  -9  145.51    4.94
   3  -5   9  118.78    4.15
   5  -2   9  119.93    4.02
  -5   2   9  118.65    4.55
  -2  -3   9  116.73    4.14
  -3   5   9  117.20    4.20
  -2  -3   9  117.68    4.50
   5  -2   9  118.74    4.51
  -3   5   9  121.78    4.37
   2   3   9  116.94    4.46
   3  -5   9  114.67    4.31
   5  -2  -9  118.71    4.12
  -5   2  -9  120.13    4.43
   3  -5  -9  118.39    4.64
  -3   5  -9  117.50    4.60
   5  -2  -9  120.64    4.47
  -2  -3  -9  116.18    4.23
   2   3  -9  117.98    4.59
  -3   5  -9  121.94    4.14
  -2  -3  -9  115.08    4.60
  -5   2  -9  115.89    4.23
   5  -1   9   47.44    2.13
   1   4   9   46.72    2.01
  -1  -4   9   50.14    2.07
  -4   5   9   48.61    1.91
  -4   5   9   49.08    2.00
   4  -5   9   45.81    1.93
   4  -5   9   46.44    1.89
  -5   1   9   46.84    2.16
  -1  -4   9   45.99    1.89
  -1  -4  -9   45.31    1.92
  -4   5  -9   47.20    2.08
   5  -1  -9   44.51    1.87
   4  -5  -9   45.29    2.13
   5  -1  -9   49.61    2.02
  -1  -4  -9   50.11    2.22
  -4   5  -9   50.91    1.91
  -5   1  -9   47.57    1.94
   1   4  -9   48.50    2.19
  -5   1  -9   45.58    1.97
   4  -5  -9   48.20    1.79
   0  -5   9  113.95    4.22
   0   5   9  125.37    4.47
   5  -5   9  117.10    4.43
   5  -5   9  119.81    4.23
   0   5   9  122.61    4.35
  -5   5   9  121.66    4.27
   5   0   9  118.04    4.68
  -5   0   9  120.85    4.73
   0  -5   9  123.99    4.51
  -5   5   9  122.12    4.52
   5   0  -9  117.41    4.53
  -5   5  -9  120.33    4.31
   5   0  -9  121.74    4.25
   5  -5  -9  119.72    4.15
  -5   0  -9  117.43    4.32
   0   5  -9  113.82    4.76
  -5   0  -9  124.69    4.56
   0  -5  -9  119.09    4.82
   5  -5  -9  115.82    4.65
  -5   5  -9  123.23    4.60
  -1   6   9   59.71    2.45
   1  -6   9   64.38    2.49
   6  -5   9   62.00    2.40
  -6   5   9   61.04    2.60
   6  -5   9   61.43    2.51
  -5  -1   9   62.01    2.78
   1  -6   9   62.63    2.43
  -6   5   9   60.76    2.37
  -1   6   9   63.63    2.47
   5   1   9   59.44    2.72
   5   1  -9   60.86    2.55
   1  -6  -9   62.77    2.85
   6  -5  -9   59.73    2.60
  -6   5  -9   63.81    2.53
  -6   5  -9   60.93    2.45
  -5  -1  -9   65.29    2.62
   6  -5  -9   60.86    2.35
   5   1  -9   60.69    2.40
  -5  -1  -9   57.43    2.43
  -1   6  -9   61.76    2.83
  -4  -2   9   69.72    2.71
  -2   6   9   72.08    2.78
  -4  -2   9   72.66    3.07
  -6   4   9   73.24    2.65
   2  -6   9   69.66    2.71
   4   2   9   68.95    2.97
  -6   4   9   69.98    2.97
   6  -4   9   72.49    2.67
   6  -4   9   68.76    2.87
  -2   6   9   70.22    2.76
   2  -6   9   71.92    2.77
   2  -6  -9   71.13    3.16
  -4  -2  -9   69.99    2.75
  -2   6  -9   73.63    3.15
  -6   4  -9   73.41    2.83
   6  -4  -9   69.64    2.67
   6  -4  -9   74.72    2.91
  -4  -2  -9   72.49    2.99
  -6   4  -9   73.50    2.79
   4   2  -9   69.94    2.93
  -3   6   9    1.20    0.20
   6  -3   9    0.75    0.19
  -3   6   9    0.95    0.21
   6  -3   9    1.23    0.17
   3   3   9    0.82    0.21
  -3  -3   9    1.23    0.24
  -3  -3   9    0.94    0.25
  -6   3   9    0.90    0.24
   3  -6   9    0.70    0.12
   3  -6   9    0.96    0.21
  -3   6  -9    0.98    0.25
  -6   3  -9    0.74    0.17
   3  -6  -9    0.77    0.24
  -6   3  -9    1.22    0.19
   6  -3  -9    0.93    0.17
  -3  -3  -9    1.22    0.24
   6  -3  -9    0.97    0.19
  -3  -3  -9    1.13    0.25
   3   3  -9    0.83    0.21
  -6   2   9   97.99    4.01
  -2  -4   9   99.23    3.92
   4  -6   9   99.64    3.68
  -2  -4   9   99.17    3.59
   2   4   9   98.20    3.83
   4  -6   9  100.79    3.61
  -4   6   9  103.23    3.75
   6  -2   9  101.46    3.98
  -4   6   9   94.65    3.62
  -2  -4  -9   99.89    4.08
   6  -2  -9   94.51    3.56
   6  -2  -9   99.63    3.80
  -2  -4  -9   98.01    3.66
   2   4  -9   96.56    4.00
  -6   2  -9   97.87    3.67
   4  -6  -9   95.95    4.04
  -6   2  -9   98.40    3.76
  -4   6  -9  104.85    3.63
  -4   6  -9  100.24    3.99
  -1  -5   9  108.94    3.96
  -6   1   9  106.22    4.43
  -5   6   9  109.91    4.00
   5  -6   9  110.11    4.07
  -1  -5   9  112.26    4.27
   1   5   9  110.18    4.17
   5  -6   9  106.07    3.96
   6  -1   9  109.32    4.42
  -5   6   9  116.02    4.19
  -1  -5  -9  108.38    4.04
   6  -1  -9  115.69    4.21
  -1  -5  -9  114.03    4.55
  -5   6  -9  111.50    4.03
   5  -6  -9  105.92    4.39
  -5   6  -9  110.63    4.32
   5  -6  -9  108.90    3.83
   1   5  -9  108.52    4.47
  -6   1  -9  110.03    4.06
   6  -1  -9  109.30    3.96
   0   6   9    0.05    0.09
   6   0   9    0.18    0.10
  -6   0   9    0.11    0.09
   6  -6   9    0.31    0.10
  -6   6   9    0.25    0.06
   0  -6   9    0.21    0.11
  -6   6   9    0.33    0.12
   0   6   9    0.06    0.05
   6  -6   9    0.21    0.08
   0  -6   9    0.37    0.08
  -6   6  -9    0.11    0.06
  -6   6  -9    0.01    0.06
   0   6  -9    1.42    0.36
   6  -6  -9    0.09    0.05
   6  -6  -9    0.52    0.17
   6   0  -9    0.20    0.09
   0  -6  -9    0.26    0.16
  -6   0  -9    0.36    0.14
   7  -6   9   57.81    2.34
  -1   7   9   56.40    2.38
  -7   6   9   58.94    2.53
   7  -6   9   56.68    2.37
  -6  -1   9   58.28    2.76
  -7   6   9   55.19    2.27
   1  -7   9   55.00    2.32
   6   1   9   57.14    2.69
  -7   6  -9   56.85    2.38
  -1   7  -9   60.22    2.81
   1  -7  -9   55.40    2.79
   6   1  -9   57.55    2.33
  -6  -1  -9   54.34    2.35
   7  -6  -9   58.19    2.52
   6   1  -9   57.38    2.40
   7  -6  -9   57.76    2.28
  -5  -2   9   40.77    2.07
  -7   5   9   39.37    1.92
   7  -5   9   38.10    1.80
   5   2   9   39.43    1.99
   2  -7   9   39.14    1.74
  -7   5   9   38.67    1.65
   7  -5   9   41.78    1.74
  -2   7   9   38.65    1.76
  -2   7  -9   40.87    2.10
   7  -5  -9   41.67    1.84
  -5  -2  -9   41.64    1.93
   7  -5  -9   38.99    1.70
  -7   5  -9   38.25    1.77
   2  -7  -9   40.25    2.12
   5   2  -9   39.92    1.82
  -5  -2  -9   37.02    1.73
  -4  -3   9   20.29    1.27
   7  -4   9   19.59    1.16
  -7   4   9   21.14    1.26
  -4  -3   9   19.46    1.05
   3  -7   9   21.04    1.09
   4   3   9   20.29    1.20
  -3   7   9   19.81    1.08
   7  -4   9   22.71    1.07
  -3   7  -9   22.72    1.35
   7  -4  -9   21.72    1.08
   4   3  -9   20.52    1.15
   3  -7  -9   20.02    1.32
   7  -4  -9   18.97    1.03
  -4  -3  -9   20.29    1.22
  -7   4  -9   21.64    1.13
  -4  -3  -9   22.02    1.11
  -4   7   9   44.41    1.97
  -7   3   9   45.91    2.24
  -3  -4   9   44.59    1.94
   7  -3   9   48.05    2.22
   4  -7   9   48.15    1.99
  -3  -4   9   49.36    2.23
   3   4   9   46.09    2.10
   4  -7  -9   48.57    2.32
  -4   7  -9   47.40    2.24
  -3  -4  -9   48.38    2.27
   7  -3  -9   45.65    1.93
  -7   3  -9   46.80    2.01
   3   4  -9   45.94    2.17
  -3  -4  -9   45.05    1.97
   5  -7   9   22.16    1.17
  -2  -5   9   21.70    1.26
  -5   7   9   23.70    1.14
  -2  -5   9   21.11    1.13
  -7   2   9   21.83    1.38
   2   5   9   21.45    1.18
   7  -2   9   23.58    1.39
  -5   7   9   23.20    1.16
   7  -2  -9   24.58    1.18
   5  -7  -9   22.15    1.35
   2   5  -9   22.98    1.35
  -2  -5  -9   24.94    1.46
  -5   7  -9   23.12    1.15
  -7   2  -9   23.05    1.20
  -2  -5  -9   22.18    1.17
  -5   7  -9   23.29    1.29
  -1  -6   9   33.93    1.60
  -7   1   9   33.24    1.91
   6  -7   9   35.90    1.63
   1   6   9   35.70    1.63
  -1  -6   9   37.04    1.74
   7  -1   9   35.96    1.92
  -6   7   9   35.22    1.60
   1   6   9   34.37    1.64
  -6   7   9   36.29    1.65
   7  -1  -9   36.12    1.63
  -7   1  -9   35.22    1.65
   6  -7  -9   35.20    1.51
  -1  -6  -9   35.27    1.98
  -6   7  -9   34.82    1.63
   6  -7  -9   37.32    1.87
  -6   7  -9   36.08    1.73
   1   6  -9   36.55    1.95
   7   0   9   27.22    1.60
   7  -7   9   25.81    1.30
  -7   7   9   27.05    1.28
  -7   7   9   24.91    1.31
   0  -7   9   23.54    1.25
  -7   0   9   28.96    1.67
   0   7   9   25.05    1.31
   7  -7  -9   24.67    1.20
  -7   7  -9   25.00    1.28
   0  -7  -9   24.59    1.61
   7   0  -9   23.97    1.26
  -7   0  -9   22.98    1.27
   0   7  -9   23.85    1.56
   7  -7  -9   25.91    1.41
  -7   7  -9   25.02    1.29
  -1   8   9   17.44    1.06
  -8   7   9   18.79    1.11
   8  -7   9   18.84    1.06
  -7  -1   9   17.33    1.29
   1  -8   9   17.49    1.03
   7   1   9   17.26    1.27
  -8   7   9   17.93    1.00
   1  -8  -9   18.28    1.37
   7   1  -9   17.69    1.04
  -7  -1  -9   18.23    1.07
  -1   8  -9   18.69    1.37
  -8   7  -9   18.48    1.07
   8  -7  -9   18.10    1.00
  -8   6   9   70.90    3.06
  -8   6   9   64.49    2.68
   6   2   9   70.07    3.17
   8  -6   9   70.63    2.79
  -2   8   9   70.15    2.84
   8  -6   9   68.81    2.87
  -6  -2   9   72.42    3.28
   2  -8   9   70.17    2.80
  -2   8  -9   70.47    3.33
   2  -8  -9   71.50    3.38
  -8   6  -9   67.99    2.84
   8  -6  -9   67.67    2.71
   6   2  -9   70.78    2.88
  -6  -2  -9   66.73    2.80
   6   2  -9   71.11    2.78
  -8   5   9   92.66    3.81
   8  -5   9   91.49    3.41
  -3   8   9   88.93    3.48
   8  -5   9   91.37    3.66
   5   3   9   88.68    3.77
   3  -8   9   88.55    3.43
  -5  -3   9   87.57    3.88
  -5  -3   9   90.73    3.42
  -8   5  -9   87.50    3.49
  -5  -3  -9   87.13    3.46
   3  -8  -9   87.89    4.02
  -3   8  -9   92.46    4.00
   5   3  -9   86.92    3.62
   8  -5  -9   90.94    3.39
  -5  -3  -9   91.17    3.83
   8  -4   9   17.94    1.15
  -4   8   9   18.55    1.06
   4   4   9   18.74    1.13
  -4  -4   9   20.63    1.28
  -4  -4   9   16.91    1.00
  -8   4   9   18.73    1.24
   4  -8   9   16.97    1.02
   4   4  -9   19.04    1.13
  -8   4  -9   17.49    1.04
  -4  -4  -9   18.83    1.06
  -4  -4  -9   19.38    1.24
  -4   8  -9   18.88    1.25
   4  -8  -9   19.80    1.34
   8  -4  -9   18.11    1.02
  -3  -5   9   96.16    3.64
   3   5   9   98.41    3.89
  -3  -5   9   97.86    4.06
  -8   3   9   98.86    4.18
  -5   8   9   98.16    3.73
   5  -8   9   99.15    3.71
   8  -3   9  100.04    4.12
   8  -3  -9   94.70    3.64
  -3  -5  -9   99.62    4.25
  -5   8  -9   95.93    4.10
   3   5  -9   97.65    4.06
   5  -8  -9   99.52    4.25
  -3  -5  -9   93.68    3.72
  -8   3  -9   98.37    3.76
  -6   8   9   72.78    2.98
  -2  -6   9   73.99    2.95
   2   6   9   75.38    3.06
  -8   2   9   76.82    3.47
  -2  -6   9   78.58    3.25
   8  -2   9   77.03    3.42
   6  -8   9   72.15    2.97
   2   6  -9   72.90    3.36
  -6   8  -9   76.73    3.02
  -6   8  -9   77.10    3.25
  -8   2  -9   79.84    3.06
   6  -8  -9   75.52    3.40
  -2  -6  -9   71.01    2.99
   8  -2  -9   72.63    2.94
  -2  -6  -9   75.43    3.51
   8  -1   9   17.56    1.26
  -1  -7   9   16.21    0.97
   7  -8   9   15.55    0.97
   1   7   9   14.80    0.96
  -7   8   9   14.81    0.93
  -8   1   9   15.10    1.19
  -7   8  -9   15.80    0.98
   7  -8  -9   15.78    1.08
  -7   8  -9   16.81    0.98
   1   7  -9   17.25    1.23
   7  -8  -9   15.76    0.87
  -8   1  -9   15.86    0.99
  -1  -7  -9   16.39    1.25
   8  -1  -9   15.69    0.96
   0  -8   9   52.72    2.29
  -8   0   9   55.43    2.81
   8   0   9   52.27    2.73
   0   8   9   49.15    2.30
  -8   8   9   50.23    2.23
   8  -8   9   54.94    2.32
   8  -8  -9   54.58    2.21
   0  -8  -9   54.79    2.88
   0   8  -9   53.98    2.79
  -8   0  -9   50.75    2.31
  -8   8  -9   52.69    2.33
   8   0  -9   51.96    2.28
   8   1   9   62.95    3.10
   1  -9   9   60.75    2.57
  -1   9   9   62.68    2.65
  -8  -1   9   61.49    3.14
  -9   8   9   58.25    2.50
   9  -8   9   62.15    2.60
  -9   8  -9   56.27    2.59
   8   1  -9   55.11    2.52
   9  -8  -9   61.30    2.50
   1  -9  -9   61.49    3.26
  -8  -1  -9   61.43    2.62
  -1   9  -9   60.87    3.18
  -9   7   9   39.19    1.77
   2  -9   9   40.04    1.87
  -7  -2   9   40.18    2.29
  -9   7   9   41.90    2.04
   7   2   9   41.88    2.23
   9  -7   9   39.68    1.85
  -2   9   9   36.73    1.85
   2  -9  -9   43.28    2.44
   9  -7  -9   39.07    1.80
  -2   9  -9   39.52    2.32
  -9   7  -9   37.89    1.88
   7   2  -9   41.37    1.87
  -7  -2  -9   36.11    1.83
  -3   9   9    0.65    0.19
   6   3   9    0.64    0.20
  -9   6   9    0.84    0.11
   9  -6   9    0.27    0.10
   3  -9   9    0.43    0.17
   9  -6   9    0.28    0.12
  -6  -3   9    0.58    0.20
   3  -9  -9    0.52    0.19
  -3   9  -9    0.76    0.24
   6   3  -9    0.61    0.17
  -6  -3  -9    0.82    0.21
  -9   6  -9    0.20    0.10
   9  -6  -9    0.77    0.16
   5   4   9   41.58    2.11
   4  -9   9   42.30    1.93
  -5  -4   9   41.91    1.90
  -5  -4   9   43.76    2.29
  -9   5   9   40.85    2.18
   9  -5   9   42.52    2.10
   9  -5   9   45.38    1.93
  -4   9   9   41.00    1.94
  -5  -4  -9   42.23    1.95
   4  -9  -9   42.10    2.37
   9  -5  -9   41.89    1.90
   5   4  -9   42.30    2.01
  -5  -4  -9   43.52    2.24
  -9   5  -9   40.94    1.96
  -4   9  -9   41.44    2.28
   9  -4   9   28.55    1.66
  -4  -5   9   29.34    1.46
  -9   4   9   28.06    1.72
  -4  -5   9   30.06    1.73
  -5   9   9   28.67    1.48
   4   5   9   29.16    1.55
   5  -9   9   28.91    1.48
   5  -9  -9   29.72    1.83
  -4  -5  -9   27.99    1.46
  -9   4  -9   28.23    1.49
  -5   9  -9   28.41    1.69
  -4  -5  -9   30.82    1.79
   9  -4  -9   28.44    1.45
   4   5  -9   29.11    1.58
  -6   9   9    0.37    0.13
  -3  -6   9    0.05    0.07
   9  -3   9    0.23    0.14
  -3  -6   9    0.00    0.12
   3   6   9    0.18    0.08
  -9   3   9    0.23    0.13
   6  -9   9    0.15    0.08
   3   6  -9    0.12    0.10
  -9   3  -9    0.48    0.14
  -3  -6  -9    0.63    0.17
  -6   9  -9    0.38    0.10
   6  -9  -9    0.16    0.10
  -3  -6  -9    0.28    0.11
   9  -3  -9    0.22    0.08
  -2  -7   9   34.89    1.67
   9  -2   9   35.16    2.05
  -9   2   9   36.15    2.10
  -7   9   9   34.34    1.69
   2   7   9   29.72    1.64
   7  -9   9   33.43    1.68
   7  -9  -9   34.19    1.93
  -7   9  -9   34.33    1.78
   9  -2  -9   35.41    1.69
  -2  -7  -9   34.88    2.12
   2   7  -9   35.98    2.00
  -9   2  -9   34.93    1.72
  -7   9  -9   36.81    1.72
   8  -9   9   56.21    2.50
  -8   9   9   57.52    2.48
  -9   1   9   61.90    3.08
  -1  -8   9   58.18    2.47
   9  -1   9   55.26    2.95
  -1  -8  -9   59.87    3.15
  -8   9  -9   59.32    2.54
  -9   1  -9   56.09    2.51
   9  -1  -9   55.29    2.46
   1   8  -9   58.16    2.96
   0  -9   9    1.36    0.26
   9  -9   9    1.52    0.23
  -9   9   9    1.41    0.27
   9   0   9    1.47    0.40
   0   9   9    1.62    0.30
  -9   0   9    1.76    0.38
   9  -9  -9    1.08    0.18
  -9   0  -9    0.87    0.22
   0   9  -9    1.57    0.38
   0  -9  -9    2.02    0.47
  -9   9  -9    1.25    0.21
   9   0  -9    1.27    0.27
  -2  10   9    8.93    0.74
  10  -8   9   10.26    0.74
   8   2   9    7.83    1.01
   2 -10   9    9.34    0.73
  -8  -2   9    9.19    1.12
   8   2  -9    8.94    0.72
 -10   8  -9   10.25    0.76
  -2  10  -9    7.59    1.05
  -8  -2  -9    9.64    0.75
   2 -10  -9    9.69    1.26
  10  -8  -9    9.50    0.70
  10  -7   9   26.15    1.37
   7   3   9   26.03    1.65
  -3  10   9   26.68    1.45
   3 -10   9   25.31    1.39
  -7  -3   9   27.59    1.79
   7   3  -9   23.97    1.35
  10  -7  -9   24.51    1.35
   3 -10  -9   25.61    1.85
  -7  -3  -9   24.33    1.38
 -10   7  -9   25.76    1.43
  -3  10  -9   24.80    1.75
   6   4   9   27.21    1.62
  10  -6   9   29.37    1.45
  -6  -4   9   28.84    1.79
   4 -10   9   26.48    1.45
  -4  10   9   25.83    1.46
  10  -6   9   28.63    1.54
 -10   6   9   28.48    1.66
   6   4  -9   23.61    1.37
 -10   6  -9   25.36    1.45
  -6  -4  -9   26.31    1.45
  10  -6  -9   26.33    1.41
  -4  10  -9   30.71    1.88
   4 -10  -9   28.91    1.94
  10  -5   9    5.18    0.68
 -10   5   9    5.53    0.70
  -5  -5   9    5.93    0.53
   5 -10   9    5.46    0.63
   5   5   9    5.68    0.53
  -5  10   9    6.08    0.67
  -5  -5   9    4.99    0.70
   5   5  -9    5.58    0.48
 -10   5  -9    4.37    0.57
  -5  10  -9    5.96    0.79
  -5  -5  -9    5.51    0.62
  10  -5  -9    5.67    0.52
   5 -10  -9    5.64    0.84
   4   6   9   27.06    1.43
  -6  10   9   23.53    1.38
   6 -10   9   26.95    1.44
 -10   4   9   25.99    1.71
  -4  -6   9   25.16    1.36
  10  -4   9   27.38    1.65
  -4  -6  -9   23.97    1.37
   4   6  -9   26.49    1.50
  10  -4  -9   24.71    1.37
 -10   4  -9   24.65    1.40
  -4  -6  -9   27.59    1.77
  -6  10  -9   28.13    1.64
   6 -10  -9   25.24    1.68
 -10   3   9   16.33    1.30
   7 -10   9   16.19    1.04
  -7  10   9   15.46    1.01
  -3  -7   9   15.76    0.99
  10  -3   9   16.03    1.25
  -3  -7  -9   19.11    1.40
   7 -10  -9   16.46    1.20
 -10   3  -9   13.78    0.98
  -7  10  -9   15.26    1.08
   3   7  -9   15.67    1.12
  10  -3  -9   15.92    1.02
   8 -10   9    9.75    0.76
  -8  10   9   10.23    0.76
  10  -2   9   10.02    0.98
   2   8   9    9.62    0.77
 -10   2   9   11.33    1.05
  -2  -8   9    9.19    0.73
  -8  10  -9   10.36    0.76
 -10   2  -9    9.65    0.78
  -2  -8  -9   12.06    1.08
  10  -2  -9   10.43    0.77
   2   8  -9   10.45    0.92
   0   0  10   58.45    2.00
   0   0  10   55.78    2.31
   0   0 -10   57.62    2.04
   0   0 -10   56.53    2.36
   0  -1  10   78.68    3.05
   0  -1  10   80.12    2.75
   1  -1  10   79.97    2.71
  -1   0  10   79.83    2.74
   1  -1  10   77.07    3.05
  -1   0  10   75.93    3.06
  -1   1  10   77.67    3.05
  -1   0  10   78.61    2.70
  -1   1  10   77.07    2.75
   1   0  10   83.00    2.66
   1   0  10   79.26    3.07
   0   1  10   82.10    3.08
   0   1 -10   74.19    3.11
  -1   1 -10   78.14    3.12
  -1   0 -10   80.32    2.80
   0  -1 -10   81.21    2.64
   1   0 -10   79.27    3.13
   0  -1 -10   78.08    3.12
   1  -1 -10   80.21    2.70
   0   1 -10   80.32    2.70
   0  -1 -10   79.35    2.80
  -1   0 -10   79.51    3.12
   1  -1 -10   77.41    3.12
  -1   1 -10   78.39    2.75
  -1   2  10    0.19    0.10
   2  -1  10    0.22    0.10
  -1  -1  10    0.20    0.07
   1  -2  10    0.31    0.08
   1   1  10    0.15    0.08
  -2   1  10    0.09    0.07
  -1   2  10    0.22    0.06
  -2   1  10    0.34    0.06
   1  -2  10    0.19    0.08
  -1  -1  10    0.32    0.12
   2  -1  10    0.67    0.10
   2  -1 -10    0.28    0.06
  -2   1 -10    0.42    0.08
  -2   1 -10    0.42    0.13
   1   1 -10    0.35    0.12
  -1   2 -10    0.24    0.04
  -1  -1 -10    0.46    0.10
   1  -2 -10    0.19    0.08
  -1   2 -10    0.35    0.13
   2  -1 -10    0.18    0.08
  -1  -1 -10    0.28    0.10
   1  -2 -10    0.21    0.04
  -2   2  10   54.17    1.98
  -2   0  10   53.08    2.25
   2   0  10   54.31    2.25
  -2   2  10   50.76    2.21
  -2   0  10   54.69    2.01
   2  -2  10   55.11    2.22
   0  -2  10   56.08    2.23
   0   2  10   51.86    2.21
   2  -2  10   54.40    1.96
   0  -2  10   54.81    2.01
   2  -2 -10   54.58    1.94
  -2   2 -10   54.59    2.28
  -2   0 -10   53.78    2.26
   2  -2 -10   55.50    2.30
  -2   0 -10   55.13    2.05
   0  -2 -10   53.55    2.30
   0   2 -10   57.16    2.33
   0  -2 -10   56.37    2.05
   2   0 -10   52.62    2.27
  -2   2 -10   54.18    1.99
  -3   2  10   90.86    3.60
   3  -2  10   93.20    3.59
  -2  -1  10   94.47    3.31
  -2  -1  10   92.44    3.63
   1  -3  10   93.31    3.29
   3  -2  10   93.49    3.20
   2   1  10   94.38    3.63
  -1   3  10   96.36    3.36
  -1   3  10   94.25    3.57
  -3   2  10   96.60    3.26
   1  -3  10   95.31    3.57
   3  -2 -10   95.22    3.67
   2   1 -10   91.94    3.68
  -2  -1 -10   90.97    3.66
   1  -3 -10   89.97    3.70
  -3   2 -10   94.72    3.64
  -1   3 -10   94.28    3.72
   3  -2 -10   93.50    3.25
  -2  -1 -10   96.14    3.38
  -3   2 -10   95.11    3.34
   3  -1  10   37.03    1.70
  -3   1  10   36.78    1.70
   1   2  10   36.41    1.67
  -2   3  10   36.72    1.65
   2  -3  10   37.42    1.64
   2  -3  10   38.37    1.49
  -2   3  10   37.86    1.50
  -1  -2  10   38.31    1.52
  -1  -2  10   38.27    1.69
  -1  -2 -10   35.97    1.71
  -3   1 -10   37.95    1.53
  -2   3 -10   37.95    1.72
  -2   3 -10   37.88    1.43
   2  -3 -10   38.36    1.74
  -1  -2 -10   38.55    1.54
   3  -1 -10   38.82    1.50
   2  -3 -10   38.37    1.38
   1   2 -10   39.32    1.75
   3  -1 -10   37.22    1.69
  -3   1 -10   38.40    1.67
   3  -3  10    8.11    0.47
   3  -3  10    8.17    0.56
   0  -3  10    8.24    0.51
  -3   0  10    7.70    0.59
   0   3  10    7.39    0.55
  -3   3  10    7.82    0.45
  -3   3  10    8.67    0.59
   0  -3  10    7.33    0.54
   3   0  10    7.69    0.59
   0  -3 -10    6.66    0.57
   3  -3 -10    7.23    0.57
   0   3 -10    7.45    0.60
   0  -3 -10    8.12    0.50
   3   0 -10    7.96    0.57
   3  -3 -10    8.00    0.44
  -3   3 -10    8.91    0.60
  -3   0 -10    7.69    0.50
  -3   3 -10    7.81    0.46
  -3   0 -10    7.76    0.55
   3   1  10   29.24    1.43
  -1   4  10   28.30    1.33
  -4   3  10   28.82    1.18
   1  -4  10   28.03    1.25
  -3  -1  10   28.23    1.25
  -4   3  10   27.88    1.38
  -3  -1  10   27.66    1.42
  -1   4  10   27.68    1.25
   4  -3  10   27.56    1.18
   4  -3  10   27.48    1.35
   1  -4  10   28.50    1.33
  -3  -1 -10   29.15    1.27
   3   1 -10   28.24    1.39
  -1   4 -10   28.46    1.45
   1  -4 -10   31.30    1.51
   4  -3 -10   28.27    1.19
  -4   3 -10   29.37    1.36
  -3  -1 -10   28.40    1.39
   4  -3 -10   29.29    1.40
  -4   3 -10   28.54    1.24
  -4   2  10    0.27    0.12
  -2  -2  10    0.24    0.11
   2   2  10    0.31    0.13
  -2   4  10    0.49    0.11
  -2   4  10    0.34    0.12
   2  -4  10    0.44    0.11
   2  -4  10    0.47    0.13
  -2  -2  10    0.10    0.10
   4  -2  10    0.39    0.05
   4  -2  10    0.04    0.06
  -2  -2 -10    0.39    0.15
  -4   2 -10    0.48    0.12
  -2  -2 -10    0.44    0.13
   2   2 -10    0.17    0.12
  -4   2 -10    0.72    0.14
   4  -2 -10    0.35    0.09
   4  -2 -10    0.43    0.14
  -2   4 -10    0.32    0.11
  -3   4  10   39.47    1.57
   3  -4  10   39.42    1.56
   1   3  10   41.19    1.75
   4  -1  10   36.37    1.76
  -3   4  10   37.11    1.68
   3  -4  10   38.73    1.67
  -1  -3  10   37.98    1.73
  -4   1  10   37.86    1.79
  -1  -3  10   38.40    1.58
  -3   4 -10   38.77    1.52
  -4   1 -10   38.49    1.61
   4  -1 -10   38.49    1.56
  -1  -3 -10   39.02    1.82
  -4   1 -10   37.73    1.68
   1   3 -10   37.80    1.80
  -1  -3 -10   39.07    1.61
   3  -4 -10   39.03    1.81
  -3   4 -10   38.27    1.77
   4  -1 -10   37.16    1.71
   0   4  10   40.70    1.76
  -4   0  10   39.14    1.87
   0  -4  10   42.81    1.80
   4   0  10   38.06    1.84
   0  -4  10   39.24    1.65
   4  -4  10   40.60    1.62
  -4   4  10   39.60    1.78
  -4   4  10   39.11    1.60
   4  -4  10   38.92    1.74
   4   0 -10   39.21    1.63
   4   0 -10   40.22    1.79
   0  -4 -10   39.60    1.92
   4  -4 -10   40.47    1.56
  -4   4 -10   39.83    1.62
  -4   0 -10   38.90    1.68
  -4   4 -10   40.24    1.80
   4  -4 -10   40.79    1.85
   0   4 -10   40.11    1.91
  -4   0 -10   40.53    1.78
   5  -4  10    0.12    0.07
   5  -4  10    0.17    0.08
  -5   4  10    0.39    0.09
  -4  -1  10    0.48    0.13
  -5   4  10    0.33    0.11
  -4  -1  10    0.31    0.14
  -1   5  10    0.28    0.08
   1  -5  10    0.28    0.08
   4   1  10   -0.01    0.08
  -1   5  10    0.20    0.10
   1  -5  10    0.58    0.15
  -5   4 -10    0.78    0.19
  -4  -1 -10    0.59    0.16
   5  -4 -10    0.51    0.12
   5  -4 -10    0.51    0.14
  -4  -1 -10    0.31    0.10
  -5   4 -10    0.28    0.09
   4   1 -10    0.48    0.14
   1  -5 -10    0.43    0.18
  -1   5 -10    0.55    0.17
  -3  -2  10   41.34    1.71
   5  -3  10   43.72    1.63
  -2   5  10   39.03    1.70
  -3  -2  10   45.04    1.97
   2  -5  10   40.76    1.70
  -5   3  10   41.12    1.90
   5  -3  10   41.66    1.86
   3   2  10   39.74    1.88
  -2   5  10   42.09    1.78
   2  -5  10   37.60    1.72
  -2   5 -10   41.56    1.97
   3   2 -10   39.22    1.86
   5  -3 -10   40.10    1.82
  -5   3 -10   41.20    1.78
  -3  -2 -10   42.22    1.74
  -3  -2 -10   42.33    1.91
   2  -5 -10   40.50    1.97
  -5   3 -10   40.15    1.71
   5  -3 -10   40.46    1.66
  -3   5  10   72.19    2.87
  -5   2  10   71.71    3.03
   2   3  10   74.62    2.97
  -2  -3  10   73.50    2.73
   5  -2  10   70.73    2.99
  -2  -3  10   70.84    2.98
  -3   5  10   72.62    2.75
   3  -5  10   72.34    2.83
   3  -5  10   71.55    2.71
   2   3 -10   69.90    3.03
  -2  -3 -10   73.63    2.78
  -5   2 -10   76.14    2.80
  -3   5 -10   73.50    3.05
   3  -5 -10   73.11    3.11
   5  -2 -10   74.39    2.71
   5  -2 -10   71.10    2.93
  -5   2 -10   73.24    2.90
  -2  -3 -10   76.37    3.10
  -5   1  10    5.74    0.54
   1   4  10    5.16    0.46
  -4   5  10    4.76    0.41
  -1  -4  10    5.75    0.48
  -1  -4  10    4.81    0.42
  -4   5  10    5.49    0.42
   4  -5  10    4.42    0.39
   4  -5  10    5.33    0.41
   5  -1  10    4.56    0.56
  -5   1 -10    5.36    0.43
   5  -1 -10    5.00    0.41
   5  -1 -10    5.39    0.43
  -1  -4 -10    4.80    0.42
   1   4 -10    5.71    0.54
  -5   1 -10    5.00    0.43
  -4   5 -10    5.25    0.48
   4  -5 -10    4.96    0.49
  -1  -4 -10    4.41    0.57
  -4   5 -10    5.23    0.38
   0   5  10   61.06    2.54
  -5   0  10   61.42    2.76
   0   5  10   64.48    2.50
  -5   5  10   63.85    2.60
   0  -5  10   63.06    2.58
   5   0  10   62.93    2.74
   5  -5  10   61.01    2.52
   0  -5  10   61.55    2.43
  -5   5  10   59.35    2.38
   5  -5  10   60.75    2.40
   0   5 -10   60.19    2.78
  -5   0 -10   60.51    2.58
   5  -5 -10   63.01    2.33
  -5   5 -10   66.49    2.47
   0  -5 -10   63.68    2.84
   5   0 -10   61.47    2.42
   5  -5 -10   61.47    2.68
   5   0 -10   63.04    2.59
  -5   5 -10   64.63    2.63
  -5   0 -10   61.42    2.48
  -6   5  10   53.56    2.11
   6  -5  10   55.81    2.17
  -5  -1  10   54.34    2.52
   5   1  10   51.21    2.44
  -6   5  10   52.09    2.34
   6  -5  10   54.54    2.28
   1  -6  10   51.93    2.22
  -1   6  10   54.03    2.21
  -1   6  10   53.00    2.21
   1  -6  10   53.06    2.17
  -6   5 -10   53.31    2.27
   6  -5 -10   53.66    2.35
  -6   5 -10   52.97    2.20
   6  -5 -10   53.53    2.10
  -5  -1 -10   51.13    2.19
   5   1 -10   52.70    2.16
  -5  -1 -10   53.58    2.33
   1  -6 -10   53.12    2.56
  -1   6 -10   50.49    2.51
   5   1 -10   54.64    2.31
  -4  -2  10   48.97    2.02
  -6   4  10   49.70    2.24
  -4  -2  10   50.02    2.32
   2  -6  10   47.46    2.03
   6  -4  10   47.92    2.15
   4   2  10   46.06    2.22
  -2   6  10   51.38    2.07
  -2   6  10   48.60    2.04
   2  -6  10   48.02    2.01
   6  -4  10   48.65    1.95
  -4  -2 -10   48.22    2.05
  -4  -2 -10   51.30    2.24
   4   2 -10   48.54    2.17
  -2   6 -10   51.91    2.39
  -6   4 -10   50.32    2.06
   2  -6 -10   48.95    2.38
  -6   4 -10   47.26    2.06
   6  -4 -10   50.22    2.16
   6  -4 -10   48.25    1.97
   6  -3  10    8.75    0.67
  -3  -3  10    8.76    0.70
  -3  -3  10    7.99    0.58
   3  -6  10    9.06    0.56
   3   3  10    8.17    0.66
  -3   6  10    8.16    0.56
  -6   3  10    7.59    0.66
   3  -6  10    8.69    0.60
  -3   6  10    8.49    0.59
  -6   3 -10    9.25    0.57
   6  -3 -10    8.96    0.58
   3   3 -10    8.27    0.66
  -3  -3 -10    8.73    0.69
  -3   6 -10    7.44    0.66
   3  -6 -10    7.77    0.70
  -6   3 -10    7.72    0.58
   6  -3 -10    8.96    0.60
  -3  -3 -10    8.87    0.61
  -6   2  10   69.52    3.05
   4  -6  10   69.65    2.75
   2   4  10   69.45    2.89
  -2  -4  10   70.96    2.98
  -2  -4  10   69.53    2.70
   6  -2  10   72.17    3.03
  -4   6  10   70.04    2.81
   4  -6  10   74.04    2.74
  -4   6  10   68.36    2.71
  -2  -4 -10   71.49    2.77
   4  -6 -10   68.90    3.07
  -6   2 -10   70.90    2.82
   6  -2 -10   71.32    2.86
   6  -2 -10   70.88    2.69
  -6   2 -10   71.02    2.77
  -4   6 -10   68.88    3.01
   2   4 -10   69.07    3.04
  -2  -4 -10   71.85    3.11
  -6   1  10   49.48    2.40
  -5   6  10   47.82    2.05
   6  -1  10   52.58    2.40
  -5   6  10   51.60    2.20
   5  -6  10   50.23    2.09
  -1  -5  10   50.80    2.09
   1   5  10   49.52    2.17
   5  -6  10   49.88    2.08
  -1  -5  10   51.46    2.26
   5  -6 -10   50.10    2.35
  -5   6 -10   52.22    2.10
   6  -1 -10   50.40    2.16
   6  -1 -10   52.25    2.10
  -5   6 -10   53.25    2.30
   1   5 -10   52.63    2.44
  -6   1 -10   50.54    2.14
  -1  -5 -10   51.79    2.47
  -1  -5 -10   50.73    2.14
  -6   6  10    8.03    0.57
   0  -6  10    7.45    0.59
   0  -6  10    8.00    0.60
   6  -6  10    8.42    0.57
   0   6  10    8.57    0.63
  -6   0  10    8.63    0.77
   0   6  10    8.50    0.59
   6   0  10    8.43    0.74
   6  -6  10   10.22    0.65
  -6   6  10    8.31    0.62
   6  -6 -10    8.53    0.54
   6   0 -10    8.24    0.60
   0   6 -10    7.84    0.74
   6  -6 -10    8.51    0.67
  -6   6 -10    8.06    0.60
   6   0 -10    7.26    0.54
  -6   0 -10    9.21    0.65
  -6   6 -10    8.31    0.60
   0  -6 -10    8.23    0.77
  -7   6  10   33.54    1.52
   6   1  10   34.20    1.88
   7  -6  10   32.97    1.60
  -1   7  10   34.67    1.64
  -6  -1  10   39.36    2.00
   1  -7  10   30.92    1.56
  -7   6  10   35.21    1.74
   7  -6  10   35.57    1.60
   7  -6 -10   35.34    1.72
  -7   6 -10   34.68    1.63
  -6  -1 -10   30.11    1.57
   6   1 -10   34.78    1.60
   1  -7 -10   35.25    1.98
   7  -6 -10   34.60    1.53
  -1   7 -10   35.43    1.97
   6   1 -10   35.04    1.62
   7  -5  10    0.59    0.13
   7  -5  10    0.57    0.09
  -7   5  10    0.24    0.12
   2  -7  10    1.20    0.26
  -5  -2  10    0.29    0.13
  -2   7  10    0.40    0.12
   5   2  10    0.21    0.11
   7  -5 -10    0.31    0.11
  -5  -2 -10    0.29    0.12
   2  -7 -10    0.41    0.21
  -2   7 -10    0.45    0.16
   7  -5 -10    0.25    0.06
  -7   5 -10    0.38    0.12
   5   2 -10    0.42    0.13
  -5  -2 -10    0.20    0.11
  -3   7  10   20.61    1.06
  -3   7  10   21.98    1.15
   3  -7  10   22.64    1.17
  -7   4  10   22.85    1.33
  -4  -3  10   19.07    1.28
   4   3  10   21.88    1.27
  -4  -3  10   21.07    1.12
   7  -4  10   21.63    1.23
   7  -4 -10   21.99    1.12
  -3   7 -10   22.52    1.37
   7  -4 -10   22.54    1.15
  -7   4 -10   20.51    1.14
   4   3 -10   22.56    1.24
  -4  -3 -10   24.21    1.34
   3  -7 -10   22.09    1.40
  -4  -3 -10   21.29    1.14
  -4   7  10   37.96    1.63
  -7   3  10   38.70    1.93
  -3  -4  10   35.43    1.62
   3   4  10   35.16    1.75
   7  -3  10   36.10    1.84
  -3  -4  10   36.81    1.86
  -4   7  10   35.34    1.63
   4  -7  10   36.71    1.64
   3   4 -10   34.44    1.80
  -7   3 -10   36.66    1.68
  -3  -4 -10   34.60    1.64
  -4   7 -10   34.85    1.85
   4  -7 -10   36.89    1.95
  -3  -4 -10   36.85    1.90
   7  -3 -10   33.73    1.58
  -2  -5  10    0.60    0.19
   5  -7  10    1.36    0.27
  -5   7  10    0.83    0.18
   2   5  10    0.30    0.07
  -5   7  10    0.57    0.12
   7  -2  10    0.38    0.14
  -7   2  10    0.25    0.13
  -2  -5  10    0.50    0.15
  -2  -5 -10    0.82    0.20
   2   5 -10    0.30    0.14
   5  -7 -10    0.47    0.15
   7  -2 -10    0.43    0.13
  -7   2 -10    0.42    0.13
  -2  -5 -10    0.30    0.13
  -5   7 -10    0.63    0.18
   6  -7  10   39.39    1.77
  -1  -6  10   37.42    1.73
  -6   7  10   39.62    1.80
  -1  -6  10   39.88    1.88
   7  -1  10   40.70    2.09
  -7   1  10   36.32    2.04
   1   6  10   36.38    1.76
  -6   7  10   38.05    1.72
   1   6  10   38.31    1.76
  -7   1 -10   36.19    1.76
  -6   7 -10   42.23    1.79
  -1  -6 -10   37.48    2.09
   7  -1 -10   39.07    1.75
   1   6 -10   38.04    2.04
  -6   7 -10   40.07    1.88
   6  -7 -10   39.06    1.99
  -7   0  10   33.29    1.91
   7  -7  10   33.45    1.57
   0  -7  10   32.06    1.56
   0   7  10   31.24    1.58
  -7   7  10   32.17    1.51
   7   0  10   32.80    1.88
  -7   7  10   32.37    1.62
  -7   0 -10   32.73    1.60
   0  -7 -10   32.17    1.93
  -7   7 -10   33.06    1.57
   0   7 -10   32.39    1.90
   7  -7 -10   31.76    1.70
   7  -7 -10   33.25    1.46
   7   0 -10   30.81    1.53
  -8   7  10   -0.18    0.07
   7   1  10    0.07    0.10
  -1   8  10    0.08    0.08
   1  -8  10    0.21    0.10
  -7  -1  10    0.15    0.12
  -8   7  10    0.14    0.09
   8  -7  10    0.36    0.10
  -7  -1 -10    0.16    0.08
  -8   7 -10    0.01    0.08
   7   1 -10    0.25    0.11
  -1   8 -10   -0.13    0.10
   8  -7 -10    0.10    0.07
  -8   6  10   26.56    1.47
   8  -6  10   26.84    1.36
  -6  -2  10   24.63    1.59
  -2   8  10   24.70    1.33
   6   2  10   24.78    1.55
   8  -6  10   25.01    1.29
   2  -8  10   23.21    1.30
  -8   6 -10   25.49    1.35
   6   2 -10   24.36    1.30
   6   2 -10   25.11    1.30
  -6  -2 -10   26.13    1.35
  -2   8 -10   26.10    1.67
   8  -6 -10   26.06    1.28
   2  -8 -10   25.29    1.68
   3  -8  10   39.98    1.85
  -8   5  10   39.92    2.05
   8  -5  10   42.80    1.83
  -3   8  10   38.89    1.86
  -5  -3  10   38.97    1.82
  -5  -3  10   43.36    2.22
   8  -5  10   41.19    1.97
   5   3  10   40.26    2.07
  -8   5 -10   41.11    1.90
   8  -5 -10   40.51    1.80
  -3   8 -10   41.68    2.24
   5   3 -10   38.89    1.92
  -5  -3 -10   44.51    2.12
  -5  -3 -10   39.97    1.86
   3  -8 -10   42.58    2.30
  -4  -4  10    0.21    0.10
  -4  -4  10    0.52    0.16
  -8   4  10    0.39    0.13
   4  -8  10    0.44    0.14
   4   4  10    0.42    0.15
   8  -4  10    0.36    0.12
  -4   8  10    0.45    0.12
  -8   4 -10    0.54    0.16
   4  -8 -10    0.32    0.16
  -4   8 -10    0.49    0.17
  -4  -4 -10    0.36    0.14
  -4  -4 -10    0.46    0.13
   4   4 -10    0.73    0.15
   8  -4 -10    0.49    0.10
   3   5  10   46.93    2.18
  -8   3  10   45.88    2.40
  -3  -5  10   49.56    2.36
  -5   8  10   48.50    2.10
   5  -8  10   48.16    2.10
  -3  -5  10   47.30    2.07
   8  -3  10   46.48    2.34
  -3  -5 -10   49.35    2.47
  -8   3 -10   47.20    2.12
   8  -3 -10   48.47    2.06
   3   5 -10   47.39    2.32
   5  -8 -10   49.86    2.48
  -3  -5 -10   45.00    2.07
  -5   8 -10   47.68    2.34
  -8   2  10   56.03    2.79
  -2  -6  10   58.53    2.62
  -6   8  10   56.03    2.38
   2   6  10   56.84    2.44
   6  -8  10   56.14    2.39
  -2  -6  10   55.01    2.36
   8  -2  10   57.63    2.78
   2   6 -10   57.15    2.74
  -2  -6 -10   55.03    2.41
   8  -2 -10   55.54    2.36
  -8   2 -10   56.90    2.44
   6  -8 -10   56.74    2.74
  -6   8 -10   54.03    2.57
  -2  -6 -10   56.49    2.84
   1   7  10    0.15    0.10
  -7   8  10    0.46    0.11
  -1  -7  10    0.21    0.08
   7  -8  10    0.23    0.10
  -8   1  10    0.14    0.14
   8  -1  10    0.30    0.13
  -8   1 -10    0.21    0.10
  -7   8 -10    0.25    0.09
  -1  -7 -10    0.11    0.11
   1   7 -10    0.14    0.11
   8  -1 -10    0.16    0.09
  -7   8 -10    0.47    0.08
   0   8  10   21.27    1.26
   8  -8  10   21.75    1.23
   8   0  10   20.94    1.51
  -8   0  10   23.45    1.58
   0  -8  10   22.27    1.25
  -8   8  10   22.47    1.20
  -8   8 -10   23.57    1.27
  -8   0 -10   23.18    1.29
   8  -8 -10   20.72    1.12
   0   8 -10   22.31    1.57
   0  -8 -10   22.87    1.61
   8   0 -10   22.84    1.26
   9  -8  10   44.63    2.05
  -1   9  10   43.47    2.08
   1  -9  10   41.72    2.02
  -9   8  10   44.90    1.98
   8   1  10   42.22    2.43
  -8  -1  10   45.25    2.54
  -8  -1 -10   45.46    2.10
  -1   9 -10   40.43    2.47
   8   1 -10   43.71    2.04
   9  -8 -10   44.93    1.97
  -9   8 -10   43.47    2.07
   1  -9 -10   46.04    2.65
   2  -9  10   27.49    1.47
  -2   9  10   28.69    1.51
  -9   7  10   27.68    1.56
  -7  -2  10   30.11    1.87
   9  -7  10   28.16    1.44
   7   2  10   29.25    1.79
   2  -9 -10   29.79    1.93
  -2   9 -10   26.32    1.80
  -7  -2 -10   28.01    1.48
   9  -7 -10   25.99    1.37
   7   2 -10   27.29    1.44
  -9   7 -10   27.70    1.48
   9  -6  10    7.21    0.55
  -3   9  10    7.99    0.65
   9  -6  10    7.35    0.61
   3  -9  10    6.88    0.60
  -9   6  10    7.78    0.66
  -6  -3  10    7.42    0.93
   6   3  10    5.95    0.78
   3  -9 -10    7.80    1.00
   9  -6 -10    7.28    0.58
   6   3 -10    7.03    0.59
  -9   6 -10    7.00    0.60
  -3   9 -10    6.37    0.89
  -6  -3 -10    7.40    0.62
   5   4  10   46.63    2.25
  -9   5  10   43.76    2.29
   9  -5  10   44.92    2.20
  -5  -4  10   44.72    2.02
   4  -9  10   44.27    2.04
  -4   9  10   47.02    2.09
  -5  -4  10   42.31    2.33
  -4   9 -10   44.79    2.41
  -5  -4 -10   43.53    2.04
  -5  -4 -10   44.46    2.32
  -9   5 -10   44.14    2.06
   4  -9 -10   44.24    2.48
   9  -5 -10   44.72    1.99
   5   4 -10   44.23    2.12
   9  -4  10   15.64    1.11
  -4  -5  10   15.03    0.96
  -5   9  10   14.19    0.96
  -4  -5  10   16.43    1.16
   5  -9  10   15.37    0.98
   4   5  10   16.23    1.04
  -9   4  10   14.35    1.13
   5  -9 -10   15.13    1.20
  -5   9 -10   15.39    1.13
   4   5 -10   16.00    1.05
  -4  -5 -10   14.30    0.96
  -9   4 -10   16.53    1.03
  -4  -5 -10   16.65    1.20
   9  -4 -10   16.76    1.00
   6  -9  10    3.08    0.45
   3   6  10    3.72    0.46
  -6   9  10    3.17    0.44
  -9   3  10    3.73    0.60
  -3  -6  10    3.93    0.51
   9  -3  10    3.74    0.61
   6  -9 -10    4.53    0.61
  -6   9 -10    3.28    0.49
  -3  -6 -10    2.99    0.53
  -9   3 -10    3.29    0.50
   3   6 -10    3.50    0.51
  -3  -6 -10    2.94    0.44
   9  -3 -10    3.73    0.48
  -7   9  10   27.35    1.43
   7  -9  10   28.68    1.49
  -2  -7  10   26.17    1.41
   9  -2  10   26.60    1.74
   2   7  10   26.06    1.44
  -9   2  10   27.09    1.77
   2   7 -10   26.44    1.68
   9  -2 -10   27.17    1.44
  -2  -7 -10   28.71    1.84
  -7   9 -10   25.64    1.51
   7  -9 -10   31.83    1.76
  -9   2 -10   28.26    1.50
  -8   9  10   20.12    1.17
   9  -1  10   19.82    1.48
   1   8  10   20.90    1.25
  -9   1  10   22.22    1.59
   8  -9  10   21.99    1.23
  -1  -8  10   20.92    1.21
   1   8 -10   21.47    1.51
  -9   1 -10   19.41    1.21
  -1  -8 -10   21.45    1.59
   9  -1 -10   19.90    1.19
  -8   9 -10   22.43    1.22
  -9   9  10    3.93    0.50
   9   0  10    3.32    0.58
   9  -9  10    3.61    0.45
   0  -9  10    4.06    0.52
  -9   0  10    2.57    0.54
   0   9  10    3.69    0.50
   0  -9 -10    4.33    0.70
  -9   9 -10    3.29    0.31
   0   9 -10    3.88    0.67
  -9   0 -10    3.00    0.46
   9   0 -10    3.64    0.50
   3 -10  10   24.45    1.35
  -3  10  10   20.09    1.26
  10  -7  10   24.25    1.27
   7   3  10   23.94    1.54
  -7  -3  10   23.04    1.62
  -3  10 -10   22.45    1.62
  10  -7 -10   19.87    1.19
  -7  -3 -10   19.54    1.23
   7   3 -10   20.40    1.24
 -10   7 -10   21.77    1.27
   3 -10 -10   22.74    1.71
   6   4  10   24.65    1.52
  -6  -4  10   24.61    1.69
  -4  10  10   26.28    1.45
  10  -6  10   25.88    1.48
 -10   6  10   25.92    1.56
   4 -10  10   26.00    1.43
   4 -10 -10   26.91    1.83
  10  -6 -10   26.30    1.38
  -4  10 -10   27.04    1.77
   6   4 -10   24.02    1.36
 -10   6 -10   25.11    1.43
  -6  -4 -10   24.82    1.41
  -5  -5  10    0.12    0.14
  10  -5  10    0.11    0.14
   5   5  10    0.33    0.10
 -10   5  10    0.31    0.13
  -5  10  10    0.22    0.10
   5 -10  10    0.40    0.12
  -5  -5  10    0.06    0.08
   5 -10 -10    0.09    0.14
  -5  -5 -10    0.13    0.09
 -10   5 -10    0.03    0.09
   5   5 -10    0.29    0.10
  10  -5 -10    0.22    0.09
  -5  10 -10    0.19    0.12
  -6  10  10   17.38    1.10
   6 -10  10   16.54    1.08
   4   6  10   17.46    1.09
  10  -4  10   17.77    1.28
 -10   4  10   20.42    1.40
  -4  -6  10   17.59    1.08
  -4  -6 -10   18.22    1.12
 -10   4 -10   18.33    1.14
   4   6 -10   18.45    1.19
  -6  10 -10   16.90    1.22
  10  -4 -10   15.79    1.04
   6 -10 -10   19.31    1.38
  -4  -6 -10   17.57    1.35
  -3  -7  10   17.80    1.11
  10  -3  10   18.94    1.39
 -10   3  10   19.64    1.44
   7 -10  10   19.36    1.16
  -7  10  10   18.63    1.12
   7 -10 -10   17.02    1.25
   3   7 -10   17.18    1.22
 -10   3 -10   17.44    1.13
  10  -3 -10   19.10    1.14
  -3  -7 -10   19.09    1.45
  -7  10 -10   18.19    1.22
   0   0  11    0.49    0.09
   0   0  11    0.37    0.13
   1  -1  11  139.82    5.14
  -1   0  11  143.27    4.66
  -1   1  11  137.61    4.71
   0   1  11  138.84    5.14
   1  -1  11  140.50    4.62
  -1   0  11  134.99    5.13
   0  -1  11  141.63    4.66
   1   0  11  138.20    5.14
   0  -1  11  135.03    5.12
  -1   1  11  130.92    5.11
   0   1 -11  133.88    5.24
   0  -1 -11  144.90    4.76
  -1   1 -11  139.11    5.24
   1  -1 -11  144.84    4.61
   0  -1 -11  137.15    5.24
  -1   1 -11  141.75    4.71
  -1   0 -11  141.91    5.25
  -1   0 -11  140.19    4.75
   1   0 -11  139.15    5.26
   1  -1 -11  133.26    5.24
  -1   2  11    4.21    0.40
  -1  -1  11    4.24    0.32
  -1  -1  11    3.56    0.44
   2  -1  11    4.26    0.40
   1   1  11    3.42    0.43
   1  -2  11    4.06    0.30
  -1   2  11    4.38    0.31
  -2   1  11    3.20    0.42
   1  -2  11    3.98    0.38
   2  -1 -11    3.27    0.42
  -2   1 -11    4.50    0.40
   1   1 -11    3.72    0.44
  -1   2 -11    3.07    0.42
  -1  -1 -11    4.11    0.40
  -2   1 -11    4.67    0.31
  -1  -1 -11    3.92    0.31
   1  -2 -11    3.72    0.45
   2  -1 -11    4.82    0.31
   2  -2  11   69.79    2.43
  -2   2  11   69.05    2.46
   0   2  11   67.06    2.75
  -2   0  11   67.44    2.78
  -2   2  11   66.83    2.75
   2  -2  11   68.36    2.75
  -2   0  11   70.45    2.49
   0  -2  11   66.68    2.74
   0  -2  11   69.17    2.49
   2   0  11   67.90    2.78
   0   2 -11   70.06    2.86
  -2   2 -11   67.62    2.81
  -2   0 -11   69.37    2.80
   0  -2 -11   67.45    2.52
   0  -2 -11   68.82    2.85
  -2   2 -11   70.01    2.47
   2   0 -11   67.33    2.80
   2  -2 -11   70.12    2.40
   2  -2 -11   65.49    2.81
  -2   0 -11   69.68    2.53
   3  -2  11   57.17    2.00
  -1   3  11   56.13    2.13
  -2  -1  11   54.94    2.10
  -1   3  11   54.19    2.30
   1  -3  11   56.82    2.31
   1  -3  11   56.45    2.10
  -3   2  11   55.67    2.35
   3  -2  11   55.58    2.34
   2   1  11   54.09    2.34
  -2  -1  11   55.13    2.36
   3  -2 -11   56.04    2.05
   2   1 -11   54.37    2.38
  -2  -1 -11   54.95    2.37
  -3   2 -11   55.51    2.34
   3  -2 -11   53.58    2.35
  -3   2 -11   55.63    2.10
   1  -3 -11   53.73    2.40
  -2  -1 -11   57.23    2.15
  -1   3 -11   54.68    2.40
  -1  -2  11   51.98    2.26
  -2   3  11   54.03    2.25
   2  -3  11   55.97    2.02
  -3   1  11   52.12    2.28
  -1  -2  11   53.04    2.03
   2  -3  11   51.56    2.22
   1   2  11   53.30    2.27
   3  -1  11   52.20    2.27
  -2   3  11   52.79    2.03
  -1  -2 -11   52.41    2.32
  -3   1 -11   56.42    2.08
  -2   3 -11   54.83    2.33
   3  -1 -11   52.65    2.28
   1   2 -11   52.21    2.33
  -3   1 -11   51.42    2.25
   2  -3 -11   54.21    2.34
  -1  -2 -11   57.66    2.10
   3  -1 -11   52.98    2.01
   0  -3  11    0.29    0.11
   3   0  11    0.54    0.16
   3  -3  11    0.44    0.14
  -3   0  11    0.51    0.17
   3  -3  11    0.74    0.13
   0   3  11    0.38    0.13
  -3   3  11    0.40    0.07
  -3   3  11    0.80    0.20
   0  -3  11    0.34    0.10
   3   0 -11    0.75    0.16
   3  -3 -11    0.74    0.20
   0  -3 -11    0.66    0.20
   0  -3 -11    0.44    0.11
  -3   0 -11    0.29    0.09
   3   0 -11    0.43    0.15
   0   3 -11    0.71    0.20
   3  -3 -11    0.68    0.10
  -3   0 -11    0.49    0.15
  -3   3 -11    0.97    0.23
  -4   3  11   67.96    2.88
  -3  -1  11   71.05    2.95
   1  -4  11   71.29    2.84
   4  -3  11   71.08    2.55
  -1   4  11   71.31    2.68
  -3  -1  11   72.63    2.65
   1  -4  11   71.40    2.64
  -1   4  11   72.24    2.85
   3   1  11   68.31    2.92
   4  -3  11   69.64    2.86
   1  -4 -11   73.22    3.03
   3   1 -11   70.66    2.93
  -4   3 -11   72.59    2.90
  -3  -1 -11   70.48    2.69
  -4   3 -11   68.39    2.64
   4  -3 -11   68.53    2.91
   4  -3 -11   71.80    2.57
  -1   4 -11   69.47    3.00
  -3  -1 -11   69.11    2.91
  -2   4  11    0.41    0.13
   2  -4  11    0.67    0.17
  -2   4  11    0.30    0.10
  -4   2  11    0.27    0.11
   2   2  11    0.59    0.19
  -2  -2  11    0.54    0.13
  -2  -2  11    0.52    0.17
   2  -4  11    0.40    0.11
   4  -2  11    0.61    0.17
   2  -4 -11    0.57    0.18
  -4   2 -11    0.38    0.10
   4  -2 -11    0.25    0.11
   2   2 -11    1.26    0.27
  -2  -2 -11    1.05    0.25
  -4   2 -11    0.64    0.15
   4  -2 -11    0.42    0.12
  -2  -2 -11    0.27    0.08
  -2   4 -11    0.46    0.14
  -1  -3  11   91.64    3.54
  -4   1  11   92.90    3.61
  -3   4  11   89.74    3.25
   1   3  11   88.22    3.51
  -1  -3  11   86.70    3.23
   4  -1  11   91.53    3.58
  -3   4  11   88.96    3.49
   3  -4  11   89.40    3.46
   3  -4  11   87.97    3.21
   3  -4 -11   89.13    3.64
  -3   4 -11   91.14    3.61
  -1  -3 -11   88.91    3.30
  -4   1 -11   88.01    3.29
   1   3 -11   86.17    3.64
  -4   1 -11   90.39    3.53
   4  -1 -11   88.53    3.21
   4  -1 -11   89.17    3.55
  -1  -3 -11   91.95    3.67
  -4   4  11   91.81    3.25
  -4   4  11   86.75    3.51
   0   4  11   89.84    3.50
   0  -4  11   86.78    3.26
   0  -4  11   91.34    3.52
  -4   0  11   90.08    3.64
   4  -4  11   91.27    3.22
   4   0  11   86.18    3.59
   4  -4  11   89.22    3.48
   0  -4 -11   90.26    3.72
  -4   0 -11   92.54    3.57
   4   0 -11   88.03    3.56
   4  -4 -11   90.84    3.15
   0   4 -11   83.56    3.66
  -4   0 -11   87.73    3.32
   4  -4 -11   86.86    3.62
  -4   4 -11   92.79    3.28
  -4   4 -11   91.91    3.60
   4   0 -11   91.09    3.26
  -1   5  11    0.36    0.12
   4   1  11    0.44    0.16
   1  -5  11    0.61    0.15
  -1   5  11    0.19    0.08
  -5   4  11    0.68    0.20
  -4  -1  11    0.12    0.09
   1  -5  11    0.40    0.13
   5  -4  11    0.12    0.08
   5  -4  11    0.16    0.07
   5  -4 -11    0.17    0.07
  -5   4 -11    0.33    0.08
   1  -5 -11    0.18    0.09
  -5   4 -11    0.16    0.08
   4   1 -11    0.30    0.11
  -4  -1 -11    0.42    0.15
   5  -4 -11    0.28    0.08
  -4  -1 -11    0.53    0.15
  -1   5 -11    0.23    0.10
   5  -3  11   47.37    2.11
   2  -5  11   47.02    2.01
   2  -5  11   46.81    1.92
   3   2  11   46.49    2.13
  -2   5  11   48.59    1.95
  -3  -2  11   47.31    2.18
  -5   3  11   46.47    2.14
  -2   5  11   46.44    2.02
  -3  -2  11   46.95    1.92
  -2   5 -11   46.76    2.22
   5  -3 -11   47.54    2.09
  -5   3 -11   45.61    1.93
   2  -5 -11   46.63    2.23
   5  -3 -11   47.72    1.88
  -3  -2 -11   47.58    2.15
  -5   3 -11   47.99    2.05
  -3  -2 -11   47.34    1.96
   3   2 -11   45.34    2.12
   2   3  11   99.13    3.91
   3  -5  11  100.75    3.79
  -2  -3  11   97.60    3.93
  -3   5  11   99.53    3.82
  -2  -3  11  100.14    3.61
   5  -2  11  101.66    3.96
  -5   2  11   97.89    3.97
   3  -5  11   98.34    3.59
  -3   5  11   99.15    3.64
   5  -2 -11   97.24    3.89
  -2  -3 -11   98.77    3.67
  -5   2 -11  100.20    3.68
   2   3 -11   99.34    4.02
   3  -5 -11   99.29    4.07
  -2  -3 -11  102.61    4.06
   5  -2 -11   98.43    3.56
  -5   2 -11  100.03    3.87
  -3   5 -11   99.18    4.03
  -5   1  11    0.78    0.21
   5  -1  11    0.90    0.24
  -4   5  11    1.02    0.19
   4  -5  11    0.98    0.20
  -1  -4  11    0.82    0.18
  -1  -4  11    1.00    0.22
   1   4  11    0.71    0.20
   4  -5  11    0.85    0.17
  -4   5  11    0.60    0.17
  -1  -4 -11    0.47    0.16
  -5   1 -11    0.84    0.19
  -5   1 -11    1.01    0.21
   4  -5 -11    1.08    0.26
  -4   5 -11    0.87    0.21
   5  -1 -11    0.74    0.18
   1   4 -11    0.81    0.24
   5  -1 -11    0.94    0.20
  -1  -4 -11    0.86    0.20
  -5   5  11   82.36    3.03
   5  -5  11   80.82    3.03
   0  -5  11   81.60    3.26
  -5   5  11   83.28    3.29
   5  -5  11   81.13    3.21
   5   0  11   79.77    3.40
   0  -5  11   80.47    3.06
  -5   0  11   77.94    3.43
   0   5  11   81.36    3.12
   0   5  11   81.58    3.23
   5   0 -11   79.27    3.04
   5  -5 -11   83.57    3.41
   0   5 -11   82.27    3.52
   0  -5 -11   83.48    3.53
   5   0 -11   79.49    3.27
  -5   5 -11   78.60    3.30
  -5   0 -11   81.03    3.13
  -5   5 -11   82.20    3.08
  -5   0 -11   79.45    3.28
   6  -5  11   51.31    2.31
  -5  -1  11   52.35    2.55
  -1   6  11   52.17    2.25
   5   1  11   58.22    2.57
   6  -5  11   54.86    2.19
   1  -6  11   55.45    2.32
   1  -6  11   52.98    2.23
  -1   6  11   53.81    2.29
  -6   5  11   53.10    2.41
  -6   5 -11   54.55    2.27
  -5  -1 -11   55.68    2.43
  -6   5 -11   54.90    2.35
   5   1 -11   56.18    2.39
  -1   6 -11   55.82    2.64
   1  -6 -11   53.94    2.63
  -5  -1 -11   53.13    2.27
   5   1 -11   53.95    2.22
   6  -5 -11   54.14    2.43
   6  -5 -11   56.63    2.16
   6  -4  11   45.91    2.12
   2  -6  11   47.26    1.99
  -6   4  11   46.62    2.19
  -4  -2  11   47.50    1.98
   2  -6  11   45.65    2.00
  -2   6  11   47.33    2.00
   4   2  11   49.10    2.24
  -4  -2  11   49.45    2.31
  -2   6  11   45.00    2.01
  -4  -2 -11   46.93    2.01
   6  -4 -11   47.26    1.93
  -4  -2 -11   48.40    2.20
   2  -6 -11   46.03    2.32
   6  -4 -11   44.87    2.10
  -6   4 -11   48.27    2.02
   4   2 -11   47.81    2.16
  -2   6 -11   46.17    2.30
  -6   4 -11   48.63    2.06
  -3  -3  11    0.46    0.15
   3  -6  11    0.64    0.14
   3   3  11    0.51    0.18
   6  -3  11    0.59    0.17
  -3  -3  11    1.27    0.28
   3  -6  11    0.66    0.16
  -3   6  11    0.62    0.16
  -3   6  11    0.74    0.15
  -6   3  11    0.73    0.20
   3   3 -11    0.41    0.14
   3  -6 -11    0.48    0.20
  -6   3 -11    0.66    0.15
  -6   3 -11    0.76    0.18
   6  -3 -11    0.51    0.13
  -3  -3 -11    0.79    0.20
   6  -3 -11    0.51    0.14
  -3  -3 -11    0.90    0.19
  -3   6 -11    1.11    0.27
  -2  -4  11  105.98    3.79
  -6   2  11   98.80    4.20
  -2  -4  11  105.47    4.15
   4  -6  11  102.41    3.78
  -4   6  11  106.77    4.00
   4  -6  11  101.46    3.90
   2   4  11  100.62    4.05
   6  -2  11  103.03    4.17
  -4   6  11  104.99    3.82
  -6   2 -11  103.99    4.02
   6  -2 -11  103.12    4.04
   2   4 -11  101.47    4.23
  -2  -4 -11  101.90    3.86
  -4   6 -11  104.41    4.21
   6  -2 -11  102.39    3.76
  -6   2 -11  105.81    3.88
   4  -6 -11  100.54    4.26
  -2  -4 -11  105.34    4.29
  -1  -5  11   82.57    3.28
  -5   6  11   78.21    3.18
   6  -1  11   75.97    3.36
  -1  -5  11   76.95    3.00
  -5   6  11   80.57    3.01
  -6   1  11   81.50    3.45
   5  -6  11   73.42    3.07
   1   5  11   79.17    3.18
   5  -6  11   82.04    3.03
  -1  -5 -11   76.48    3.06
  -1  -5 -11   81.51    3.50
   1   5 -11   75.32    3.42
   5  -6 -11   80.01    3.39
  -5   6 -11   77.99    3.29
   6  -1 -11   78.80    3.18
   6  -1 -11   80.95    3.02
  -6   1 -11   74.58    3.06
  -6   6  11    0.15    0.07
   6  -6  11    0.30    0.09
  -6   6  11    0.30    0.08
   6   0  11   -0.03    0.08
   0  -6  11    1.01    0.23
   6  -6  11    0.18    0.07
  -6   0  11   -0.10    0.09
   0   6  11    0.19    0.09
   0  -6  11    0.14    0.07
   0   6  11    0.15    0.06
  -6   0 -11    0.04    0.07
   0  -6 -11    0.16    0.11
   6   0 -11    0.09    0.07
   6   0 -11    0.34    0.06
  -6   6 -11    0.34    0.10
   6  -6 -11   -0.01    0.09
   0   6 -11    0.04    0.10
  -6   6 -11   -0.06    0.07
   7  -6  11   38.27    1.71
  -6  -1  11   37.49    2.07
  -1   7  11   36.70    1.76
  -7   6  11   39.13    1.89
   7  -6  11   37.04    1.76
   6   1  11   36.16    2.01
   1  -7  11   37.00    1.74
   6   1 -11   37.29    1.73
   7  -6 -11   39.73    1.89
   6   1 -11   37.56    1.77
  -7   6 -11   39.05    1.77
   7  -6 -11   38.05    1.65
  -6  -1 -11   35.27    1.75
   1  -7 -11   40.42    2.17
  -1   7 -11   38.95    2.13
  -7   5  11    0.57    0.19
  -2   7  11    0.26    0.10
   5   2  11    0.35    0.18
   7  -5  11    0.44    0.14
  -5  -2  11    0.72    0.17
   2  -7  11    0.54    0.14
  -2   7  11    0.78    0.12
  -5  -2 -11    0.33    0.12
  -5  -2 -11    1.00    0.19
  -7   5 -11    0.32    0.10
   2  -7 -11    0.72    0.26
  -2   7 -11    0.56    0.17
   5   2 -11    0.88    0.18
   5   2 -11    0.28    0.14
   7  -5 -11    0.21    0.08
  -3   7  11   59.29    2.49
  -4  -3  11   61.35    2.83
   7  -4  11   59.30    2.67
  -3   7  11   58.92    2.48
  -7   4  11   61.64    2.79
   3  -7  11   59.67    2.47
  -4  -3  11   59.59    2.45
   4   3  11   58.91    2.71
  -4  -3 -11   58.67    2.49
   7  -4 -11   61.15    2.43
  -3   7 -11   62.20    2.88
   3  -7 -11   64.32    2.94
   4   3 -11   58.14    2.66
  -4  -3 -11   64.12    2.81
   7  -4 -11   62.88    2.60
  -7   4 -11   61.15    2.52
  -3  -4  11   72.29    3.14
  -7   3  11   69.37    3.15
   7  -3  11   67.80    3.06
   3   4  11   69.09    3.00
   4  -7  11   72.52    2.81
  -3  -4  11   68.75    2.78
  -4   7  11   71.60    2.83
  -4   7  11   73.11    2.88
  -4   7 -11   68.05    3.14
  -7   3 -11   70.30    2.87
   7  -3 -11   73.98    2.78
  -3  -4 -11   74.27    3.22
  -3  -4 -11   68.39    2.83
   3   4 -11   71.10    3.11
   4  -7 -11   70.56    3.24
  -5   7  11    0.13    0.07
  -5   7  11    0.82    0.19
   2   5  11   -0.04    0.06
   5  -7  11   -0.03    0.07
  -2  -5  11   -0.01    0.07
  -2  -5  11    0.12    0.09
  -7   2  11    0.33    0.17
   7  -2  11   -0.07    0.07
  -7   2 -11    0.17    0.10
  -5   7 -11    0.16    0.07
  -2  -5 -11    0.29    0.08
   2   5 -11    0.30    0.14
   7  -2 -11    0.26    0.08
  -2  -5 -11    0.58    0.17
   5  -7 -11    0.26    0.11
  -6   7  11   56.20    2.34
  -6   7  11   56.92    2.45
   1   6  11   51.81    2.37
   1   6  11   57.14    2.43
   7  -1  11   57.48    2.75
  -7   1  11   53.95    2.71
   6  -7  11   57.52    2.38
  -1  -6  11   55.38    2.35
  -1  -6  11   57.58    2.54
   7  -1 -11   57.74    2.37
   1   6 -11   57.22    2.77
  -7   1 -11   57.88    2.43
  -6   7 -11   55.62    2.53
  -1  -6 -11   54.76    2.78
   6  -7 -11   58.82    2.69
  -7   7  11   50.43    2.16
   7   0  11   54.62    2.64
   0   7  11   50.67    2.27
   7  -7  11   51.15    2.21
   0  -7  11   53.02    2.25
  -7   7  11   53.57    2.36
  -7   0  11   52.96    2.67
   0  -7 -11   48.00    2.64
   0   7 -11   51.49    2.66
   7  -7 -11   53.87    2.48
  -7   7 -11   50.45    2.24
  -7   0 -11   49.44    2.26
   7   0 -11   50.18    2.20
  -7  -1  11    1.27    0.32
   8  -7  11    0.91    0.15
   7   1  11    1.11    0.30
  -1   8  11    0.54    0.17
  -8   7  11    1.05    0.12
   1  -8  11    0.87    0.22
  -1   8 -11    0.69    0.28
   7   1 -11    0.76    0.17
   1  -8 -11    0.65    0.25
  -8   7 -11    0.79    0.19
  -7  -1 -11    1.01    0.24
   8  -7 -11    0.85    0.16
  -8   6  11   44.96    2.21
  -2   8  11   45.55    2.05
   8  -6  11   45.61    1.97
   2  -8  11   46.68    2.05
   8  -6  11   44.44    2.07
   6   2  11   44.61    2.32
  -6  -2  11   43.87    2.38
  -2   8 -11   45.03    2.44
   2  -8 -11   43.13    2.44
  -6  -2 -11   42.23    2.02
   6   2 -11   42.30    2.03
   8  -6 -11   44.47    1.93
   6   2 -11   44.91    2.00
  -8   6 -11   44.62    2.04
   3  -8  11   41.76    1.88
  -5  -3  11   42.26    2.21
  -3   8  11   38.55    1.86
   5   3  11   38.44    2.05
  -5  -3  11   38.71    1.82
   8  -5  11   41.96    2.00
  -8   5  11   39.71    2.07
   8  -5 -11   42.37    1.82
  -5  -3 -11   40.35    1.88
  -3   8 -11   40.49    2.22
  -8   5 -11   38.60    1.87
   5   3 -11   40.31    1.94
   3  -8 -11   37.72    2.21
  -5  -3 -11   41.81    2.08
  -4   8  11    1.34    0.26
   4   4  11    1.40    0.28
  -8   4  11    1.46    0.34
   8  -4  11    1.00    0.25
  -4  -4  11    1.61    0.35
   4  -8  11    1.54    0.29
  -4  -4  11    1.23    0.27
  -4  -4 -11    1.57    0.29
   4  -8 -11    1.59    0.39
   4   4 -11    1.30    0.27
  -8   4 -11    1.66    0.28
  -4  -4 -11    1.13    0.24
   8  -4 -11    1.29    0.24
  -4   8 -11    2.31    0.43
  -8   3  11   39.69    2.16
  -3  -5  11   40.23    1.84
   8  -3  11   39.89    2.11
   5  -8  11   40.32    1.85
  -5   8  11   37.51    1.82
  -3  -5  11   39.85    2.08
   3   5  11   40.01    1.94
  -3  -5 -11   42.03    2.20
   3   5 -11   41.44    2.08
  -8   3 -11   41.27    1.91
   8  -3 -11   42.23    1.84
  -3  -5 -11   39.48    1.86
  -5   8 -11   39.73    2.09
   5  -8 -11   40.77    2.20
  -2  -6  11   38.54    1.85
  -6   8  11   42.61    1.90
  -8   2  11   40.16    2.24
   6  -8  11   42.63    1.92
   2   6  11   39.41    1.91
   8  -2  11   41.97    2.23
  -2  -6 -11   44.27    2.33
   6  -8 -11   41.23    2.18
  -8   2 -11   41.56    1.95
   2   6 -11   39.93    2.18
   8  -2 -11   40.01    1.86
  -6   8 -11   43.59    2.09
  -1  -7  11    0.36    0.10
   7  -8  11    0.33    0.08
  -8   1  11    0.43    0.16
   1   7  11    0.05    0.09
  -7   8  11    0.09    0.08
   8  -1  11    0.30    0.13
   1   7 -11    0.15    0.12
  -7   8 -11    0.35    0.09
  -1  -7 -11    0.10    0.12
   7  -8 -11    0.64    0.10
   8  -1 -11    0.18    0.09
  -8   1 -11    0.40    0.10
  -8   0  11   39.52    2.29
   0   8  11   38.00    1.90
  -8   8  11   41.52    1.84
   8  -8  11   40.64    1.88
   0  -8  11   37.48    1.85
   8   0  11   38.00    2.23
   0   8 -11   38.40    2.28
  -8   0 -11   41.68    1.95
  -8   8 -11   41.73    1.93
   0  -8 -11   40.40    2.36
   8   0 -11   36.94    1.85
   9  -8  11   43.17    1.99
   8   1  11   43.29    2.41
  -8  -1  11   39.75    2.38
   1  -9  11   38.83    1.94
  -1   9  11   40.04    1.98
   8   1 -11   40.21    1.95
  -9   8 -11   41.16    2.00
   1  -9 -11   44.54    2.56
  -1   9 -11   39.84    2.43
  -8  -1 -11   40.66    2.00
  -7  -2  11   58.24    2.94
   7   2  11   57.07    2.83
  -9   7  11   55.20    2.63
   9  -7  11   56.07    2.40
   2  -9  11   55.42    2.42
  -2   9  11   50.75    2.41
   7   2 -11   52.84    2.38
   2  -9 -11   56.46    3.01
  -9   7 -11   54.17    2.45
   9  -7 -11   53.55    2.32
  -2   9 -11   56.50    2.98
  -7  -2 -11   52.76    2.44
   9  -6  11   -0.08    0.09
   6   3  11   -0.18    0.09
   3  -9  11    0.14    0.09
  -3   9  11    0.32    0.11
  -9   6  11   -0.01    0.10
   9  -6 -11    0.13    0.09
  -3   9 -11   -0.10    0.12
  -6  -3 -11    0.10    0.09
  -9   6 -11   -0.09    0.09
   6   3 -11    0.07    0.10
   3  -9 -11   -0.01    0.13
   9  -5  11   46.27    2.25
  -5  -4  11   47.42    2.46
  -5  -4  11   43.14    2.05
  -4   9  11   45.61    2.10
   5   4  11   45.84    2.28
   4  -9  11   44.71    2.09
  -9   5  11   50.29    2.45
  -5  -4 -11   43.51    2.07
   4  -9 -11   50.35    2.64
  -9   5 -11   44.45    2.10
  -4   9 -11   42.87    2.42
   5   4 -11   45.21    2.18
   9  -5 -11   44.41    2.02
  -9   4  11   36.52    2.03
   4   5  11   32.63    1.76
  -5   9  11   34.50    1.70
   5  -9  11   34.29    1.70
  -4  -5  11   32.53    1.66
   9  -4  11   34.31    1.90
   5  -9 -11   37.41    2.13
  -4  -5 -11   36.20    2.04
  -9   4 -11   32.10    1.70
  -4  -5 -11   33.13    1.70
   9  -4 -11   37.41    1.71
   4   5 -11   33.50    1.81
  -5   9 -11   34.25    1.95
  -9   3  11   -0.29    0.12
   9  -3  11   -0.03    0.10
   3   6  11    0.22    0.09
   6  -9  11   -0.08    0.09
  -6   9  11    0.14    0.12
  -3  -6  11    0.00    0.08
  -3  -6 -11    0.17    0.10
  -9   3 -11    0.37    0.11
   9  -3 -11    0.13    0.08
   3   6 -11    0.10    0.10
  -3  -6 -11    0.49    0.12
   6  -9 -11    0.27    0.12
  -6   9 -11   -0.13    0.10
  -9   2  11   40.35    2.26
   9  -2  11   37.17    2.16
   7  -9  11   37.82    1.82
  -2  -7  11   33.19    1.74
  -7   9  11   37.69    1.80
  -9   2 -11   34.73    1.82
   7  -9 -11   40.97    2.14
   2   7 -11   36.26    2.10
   9  -2 -11   36.42    1.80
  -2  -7 -11   39.61    2.27
   8  -9  11   26.52    1.44
  -9   1  11   26.31    1.79
   1   8  11   25.89    1.46
  -8   9  11   25.80    1.39
  -1  -8  11   26.60    1.45
   9  -1  11   27.27    1.81
  -1  -8 -11   28.95    1.90
   1   8 -11   26.97    1.76
   9  -1 -11   25.41    1.42
  -9   1 -11   26.18    1.47
  -5  -5  11   -0.03    0.15
 -10   5  11    0.06    0.13
  -5  10  11    0.35    0.11
   5   5  11    0.23    0.10
  10  -5  11    0.40    0.12
   5 -10  11    0.28    0.10
  -5  -5  11    0.32    0.09
   5   5 -11    0.42    0.10
   5 -10 -11    0.01    0.14
 -10   5 -11    0.48    0.12
  -5  10 -11   -0.01    0.13
  10  -5 -11    0.16    0.09
  -5  -5 -11    0.22    0.09
   0   0  12   74.25    3.01
   0   0 -12   75.52    3.07
   0   1  12   24.78    1.27
  -1   0  12   24.75    1.27
   0  -1  12   25.64    1.05
   0  -1  12   24.86    1.27
  -1   0  12   25.48    1.05
   1   0  12   25.57    1.28
  -1   1  12   22.95    1.24
   1  -1  12   25.15    1.27
  -1   1 -12   24.16    1.28
   0  -1 -12   25.11    1.06
   1  -1 -12   24.78    1.29
   0  -1 -12   25.70    1.30
  -1   0 -12   24.88    1.28
   1   0 -12   23.33    1.27
  -1   0 -12   25.31    1.06
   0   1 -12   23.91    1.28
   2  -1  12   66.24    2.73
  -1   2  12   65.12    2.71
  -1  -1  12   67.78    2.43
  -1  -1  12   66.59    2.75
  -1   2  12   67.06    2.44
  -2   1  12   63.93    2.73
   1   1  12   65.60    2.73
   1  -2  12   67.44    2.72
   1  -2  12   68.74    2.41
   2  -1 -12   67.08    2.39
  -2   1 -12   67.81    2.44
   1  -2 -12   62.70    2.78
   1   1 -12   63.98    2.78
   2  -1 -12   67.26    2.79
  -1   2 -12   66.85    2.79
  -1  -1 -12   67.37    2.47
  -2   1 -12   64.65    2.75
  -1  -1 -12   64.97    2.78
  -2   0  12   15.91    0.97
  -2   2  12   16.12    0.95
   2  -2  12   17.52    0.97
   0  -2  12   15.88    0.79
   2  -2  12   17.42    0.76
   2   0  12   14.75    0.94
   0  -2  12   16.53    0.95
   0   2  12   15.74    0.95
  -2   2 -12   15.40    0.95
   0   2 -12   15.34    0.97
  -2   0 -12   17.32    0.82
  -2   0 -12   16.48    0.96
   0  -2 -12   15.58    0.97
   2   0 -12   16.58    0.98
   0  -2 -12   16.70    0.81
   2  -2 -12   17.44    1.00
   1  -3  12   45.43    1.82
  -3   2  12   44.71    2.06
   1  -3  12   48.94    2.06
  -1   3  12   46.34    2.04
  -1   3  12   48.69    1.86
   3  -2  12   48.49    2.08
  -2  -1  12   46.46    1.83
  -2  -1  12   47.36    2.11
   2   1  12   47.36    2.10
   3  -2 -12   45.98    1.77
  -3   2 -12   45.26    2.06
  -3   2 -12   46.46    1.82
   3  -2 -12   46.48    2.10
   2   1 -12   45.01    2.10
  -2  -1 -12   46.01    1.86
  -1   3 -12   45.21    2.12
  -2  -1 -12   46.34    2.10
   1  -3 -12   46.96    2.15
   2  -3  12   18.82    0.86
  -2   3  12   17.80    1.02
  -1  -2  12   16.86    1.01
   2  -3  12   17.52    0.99
  -3   1  12   16.93    1.03
   1   2  12   18.33    1.04
  -1  -2  12   17.45    0.87
  -2   3  12   18.16    0.86
   3  -1  12   18.11    1.05
  -1  -2 -12   17.71    0.89
   2  -3 -12   16.66    1.04
   1   2 -12   18.23    1.08
  -1  -2 -12   18.26    1.06
  -3   1 -12   18.01    1.01
  -2   3 -12   18.37    1.06
   3  -1 -12   17.74    1.03
  -3   1 -12   17.91    0.88
   3  -1 -12   17.30    0.85
   3  -3  12   97.28    3.31
   0  -3  12   91.86    3.37
  -3   0  12   93.45    3.76
   3  -3  12   94.84    3.68
   0  -3  12   93.18    3.68
   0   3  12   94.79    3.69
  -3   3  12   93.20    3.69
   3   0  12   93.21    3.73
   3   0 -12   90.99    3.74
   0  -3 -12   92.85    3.82
   0  -3 -12   95.84    3.45
  -3   3 -12   91.75    3.75
  -3   0 -12   94.29    3.76
   3  -3 -12   94.42    3.81
   3   0 -12   95.52    3.36
  -3   0 -12   95.22    3.43
   0   3 -12   93.85    3.84
   1  -4  12   13.29    0.74
   4  -3  12   13.08    0.85
   1  -4  12   13.26    0.82
  -1   4  12   12.64    0.82
  -4   3  12   12.68    0.86
  -3  -1  12   13.91    0.92
  -3  -1  12   11.97    0.72
  -1   4  12   13.47    0.76
   3   1  12   12.73    0.88
  -4   3 -12   12.30    0.80
  -4   3 -12   13.54    0.73
  -3  -1 -12   12.92    0.84
  -1   4 -12   13.53    0.92
  -3  -1 -12   14.15    0.78
   4  -3 -12   14.03    0.70
   3   1 -12   13.19    0.86
   1  -4 -12   12.52    0.90
   4  -3 -12   12.30    0.84
  -2   4  12   70.39    2.63
  -2  -2  12   68.90    2.91
   2  -4  12   67.83    2.59
   2   2  12   67.24    2.87
  -2   4  12   67.58    2.82
  -2  -2  12   66.47    2.59
   4  -2  12   69.17    2.88
  -4   2  12   67.87    2.90
   2  -4  12   69.97    2.81
  -2  -2 -12   66.98    2.92
   4  -2 -12   68.72    2.89
   2   2 -12   67.52    2.94
  -2   4 -12   71.05    2.97
  -2  -2 -12   69.23    2.66
   2  -4 -12   69.64    2.99
   4  -2 -12   72.72    2.58
  -4   2 -12   69.26    2.63
  -4   2 -12   70.75    2.86
  -1  -3  12   20.61    1.03
   3  -4  12   20.61    0.99
   4  -1  12   20.90    1.20
  -3   4  12   21.66    1.16
  -4   1  12   20.70    1.21
  -3   4  12   21.50    1.01
   1   3  12   21.60    1.18
   3  -4  12   20.18    1.10
  -1  -3  12   22.30    1.20
  -4   1 -12   20.27    1.12
   4  -1 -12   21.71    1.16
  -4   1 -12   20.27    1.03
  -1  -3 -12   22.29    1.06
   4  -1 -12   20.82    1.01
   3  -4 -12   19.99    1.20
  -1  -3 -12   21.14    1.23
  -3   4 -12   20.12    1.17
   1   3 -12   20.46    1.21
  -4   4  12   25.72    1.36
   4  -4  12   26.97    1.35
   0  -4  12   27.58    1.38
   0   4  12   26.23    1.26
   4  -4  12   27.15    1.19
   0   4  12   26.35    1.35
   4   0  12   26.86    1.45
   0  -4  12   26.97    1.25
  -4   0  12   26.86    1.46
   4   0 -12   26.45    1.23
  -4   0 -12   26.70    1.36
   4  -4 -12   26.93    1.43
   0   4 -12   25.75    1.46
   0  -4 -12   26.02    1.46
   4   0 -12   25.04    1.35
  -4   4 -12   26.56    1.39
  -4   0 -12   26.76    1.27
   5  -4  12   66.39    2.76
  -1   5  12   68.21    2.63
  -1   5  12   67.89    2.74
   4   1  12   62.63    2.85
  -4  -1  12   64.53    2.89
   1  -5  12   67.04    2.74
   1  -5  12   65.20    2.56
  -5   4  12   66.49    2.82
  -5   4 -12   65.29    2.77
   4   1 -12   64.94    2.81
   1  -5 -12   64.87    2.95
  -1   5 -12   64.70    2.95
   4   1 -12   66.42    2.56
  -4  -1 -12   63.23    2.60
   5  -4 -12   63.99    2.82
  -5   4 -12   65.98    2.57
   5  -4 -12   66.96    2.48
  -4  -1 -12   66.79    2.83
   3   2  12   16.97    1.09
   2  -5  12   18.03    0.96
  -3  -2  12   17.72    0.95
  -5   3  12   18.89    1.13
   2  -5  12   19.67    1.04
  -2   5  12   18.03    1.02
  -2   5  12   18.77    0.98
   5  -3  12   17.83    1.07
  -3  -2  12   18.18    1.13
  -5   3 -12   18.57    0.97
  -3  -2 -12   18.98    1.11
  -5   3 -12   18.26    1.03
   5  -3 -12   18.30    1.06
   5  -3 -12   18.86    0.93
   2  -5 -12   17.57    1.16
  -2   5 -12   17.99    1.15
   3   2 -12   17.61    1.09
  -3  -2 -12   17.22    0.96
   2   3  12   18.72    1.08
  -2  -3  12   17.38    1.08
  -5   2  12   17.90    1.11
  -3   5  12   18.48    0.94
   3  -5  12   17.85    0.93
   5  -2  12   17.79    1.09
   3  -5  12   16.72    0.97
  -2  -3  12   16.51    0.93
  -3   5  12   16.86    0.99
   5  -2 -12   18.72    1.04
   5  -2 -12   17.73    0.91
  -3   5 -12   15.83    1.06
  -5   2 -12   17.01    0.98
   2   3 -12   17.89    1.11
  -2  -3 -12   17.06    0.94
  -5   2 -12   18.60    0.97
  -2  -3 -12   18.04    1.12
   3  -5 -12   16.98    1.11
   4  -5  12   49.20    2.00
  -5   1  12   47.85    2.31
  -1  -4  12   48.30    2.03
   4  -5  12   50.65    2.15
   1   4  12   49.91    2.21
  -4   5  12   51.23    2.02
  -1  -4  12   50.93    2.25
   5  -1  12   47.74    2.28
  -4   5  12   49.80    2.18
  -5   1 -12   46.59    2.15
  -1  -4 -12   51.43    2.08
  -1  -4 -12   49.59    2.36
   1   4 -12   49.69    2.36
   5  -1 -12   48.47    2.01
   5  -1 -12   48.63    2.19
  -4   5 -12   51.61    2.29
  -5   1 -12   48.96    2.07
   4  -5 -12   47.55    2.30
   0  -5  12   12.87    0.84
   5  -5  12   12.08    0.79
  -5   5  12   13.16    0.87
  -5   0  12   11.77    0.92
   5   0  12   13.16    0.95
   0  -5  12   12.40    0.79
   0   5  12   12.54    0.82
   0   5  12   13.45    0.81
   5  -5  12   13.37    0.76
   0   5 -12   12.23    0.95
  -5   5 -12   13.70    0.87
   0  -5 -12   13.44    0.98
   5   0 -12   13.43    0.79
  -5   0 -12   11.38    0.76
  -5   0 -12   13.38    0.84
   5  -5 -12   12.27    0.88
   5   0 -12   12.70    0.82
  -6   5  12   11.74    0.82
   5   1  12   11.78    0.90
   1  -6  12   10.09    0.71
  -1   6  12   10.53    0.71
  -5  -1  12   10.83    0.90
  -1   6  12   10.67    0.73
   1  -6  12    9.09    0.68
   6  -5  12    9.95    0.72
   5   1 -12   10.16    0.73
  -1   6 -12   11.73    0.91
  -5  -1 -12   10.08    0.75
   6  -5 -12   12.49    0.83
  -5  -1 -12    9.97    0.71
  -6   5 -12    9.91    0.71
   5   1 -12    9.93    0.69
  -6   5 -12   12.44    0.74
   1  -6 -12   10.90    0.91
  -4  -2  12   25.92    1.30
   6  -4  12   26.21    1.40
  -4  -2  12   24.17    1.49
  -2   6  12   27.02    1.32
   4   2  12   25.03    1.46
  -2   6  12   26.84    1.33
  -6   4  12   25.85    1.46
   2  -6  12   27.04    1.32
   2  -6  12   27.36    1.32
  -4  -2 -12   25.11    1.30
   6  -4 -12   27.09    1.41
   6  -4 -12   26.55    1.24
  -4  -2 -12   30.11    1.51
  -6   4 -12   26.20    1.33
   4   2 -12   23.70    1.38
  -6   4 -12   25.31    1.29
  -2   6 -12   27.78    1.57
   2  -6 -12   26.58    1.57
   3  -6  12   50.72    2.09
  -3   6  12   50.56    2.18
   6  -3  12   50.67    2.32
   3  -6  12   50.08    2.14
  -3   6  12   51.39    2.11
  -3  -3  12   50.87    2.37
  -3  -3  12   50.79    2.10
  -6   3  12   48.91    2.35
   3   3  12   47.71    2.28
   6  -3 -12   47.78    2.21
  -6   3 -12   50.17    2.13
  -3  -3 -12   50.89    2.37
   6  -3 -12   51.69    2.06
  -6   3 -12   48.96    2.17
   3   3 -12   48.23    2.31
  -3   6 -12   49.79    2.40
  -3  -3 -12   50.42    2.12
   3  -6 -12   47.64    2.41
  -4   6  12   18.57    1.05
   4  -6  12   17.23    0.98
   2   4  12   18.42    1.11
  -6   2  12   19.31    1.23
  -4   6  12   18.46    0.99
  -2  -4  12   18.02    1.01
   4  -6  12   19.72    1.02
   6  -2  12   19.28    1.19
  -2  -4  12   19.93    1.18
  -4   6 -12   18.14    1.16
  -2  -4 -12   17.31    1.18
   2   4 -12   18.11    1.18
   6  -2 -12   17.86    0.98
  -6   2 -12   19.07    1.04
  -2  -4 -12   18.03    1.02
  -6   2 -12   18.94    1.04
   4  -6 -12   18.99    1.21
   6  -2 -12   18.65    1.05
  -1  -5  12   13.01    0.81
   6  -1  12   13.52    0.98
  -6   1  12   12.55    0.98
   5  -6  12   12.18    0.77
  -1  -5  12   12.46    0.86
   1   5  12   12.26    0.83
  -5   6  12   11.72    0.80
   5  -6  12   12.49    0.77
  -5   6  12   11.61    0.73
  -5   6 -12   12.64    0.87
  -1  -5 -12   14.48    1.04
   6  -1 -12   12.50    0.79
  -6   1 -12   12.59    0.81
   6  -1 -12   13.09    0.81
   5  -6 -12   11.90    0.90
   1   5 -12   12.71    0.97
  -6   0  12   39.55    2.16
  -6   6  12   41.37    1.97
   0  -6  12   42.29    1.87
   6  -6  12   41.09    1.89
   6   0  12   41.81    2.15
   0   6  12   42.38    1.90
   6  -6  12   41.05    1.83
   0   6  12   41.67    1.91
   0  -6 -12   43.23    2.25
   0   6 -12   40.46    2.19
   6  -6 -12   40.81    2.05
   6   0 -12   41.43    1.93
  -6   0 -12   43.67    1.92
  -6   6 -12   41.49    1.97
   6   0 -12   41.24    1.85
  -6  -1  12   20.29    1.38
  -7   6  12   20.18    1.21
  -1   7  12   20.46    1.16
   7  -6  12   18.34    1.10
   1  -7  12   20.20    1.14
   6   1  12   20.11    1.35
  -1   7 -12   22.13    1.47
  -7   6 -12   20.98    1.14
  -6  -1 -12   20.59    1.16
   7  -6 -12   20.64    1.20
   1  -7 -12   20.67    1.42
   6   1 -12   20.79    1.14
   6   1 -12   20.22    1.14
  -7   5  12   54.20    2.48
  -2   7  12   52.25    2.25
  -2   7  12   54.01    2.26
   7  -5  12   51.59    2.35
   5   2  12   50.68    2.50
  -5  -2  12   51.04    2.57
   2  -7  12   52.22    2.23
   7  -5 -12   51.91    2.14
   5   2 -12   51.24    2.20
  -2   7 -12   52.67    2.65
  -7   5 -12   54.51    2.28
   5   2 -12   51.16    2.37
  -5  -2 -12   53.47    2.45
   2  -7 -12   50.34    2.63
   7  -5 -12   49.61    2.34
  -5  -2 -12   51.59    2.26
  -4  -3  12   13.69    1.02
  -7   4  12   13.03    0.97
   7  -4  12   13.13    0.91
  -3   7  12   12.22    0.81
  -3   7  12   12.41    0.78
   4   3  12   11.42    0.89
   3  -7  12   13.44    0.84
  -4  -3  12   12.25    0.82
  -4  -3 -12   12.94    0.94
   3  -7 -12   12.76    1.03
   7  -4 -12   13.32    0.84
  -4  -3 -12   12.04    0.82
  -7   4 -12   13.40    0.84
   4   3 -12   12.82    0.88
  -3   7 -12   12.73    0.99
   7  -4 -12   12.05    0.77
   3   4  12   19.47    1.20
  -4   7  12   20.16    1.10
  -4   7  12   20.14    1.09
  -3  -4  12   21.14    1.13
  -7   3  12   19.12    1.29
   7  -3  12   19.02    1.25
   4  -7  12   22.15    1.15
  -3  -4  12   20.44    1.29
   4  -7 -12   21.40    1.38
  -3  -4 -12   19.87    1.12
   7  -3 -12   19.61    1.06
   3   4 -12   18.68    1.23
  -4   7 -12   20.02    1.29
  -7   3 -12   20.12    1.13
   7  -3 -12   21.25    1.13
  -3  -4 -12   21.28    1.33
  -5   7  12   31.01    1.49
   7  -2  12   30.02    1.74
   5  -7  12   31.53    1.52
  -2  -5  12   35.10    1.76
  -2  -5  12   29.18    1.50
  -7   2  12   32.55    1.83
   2   5  12   29.22    1.57
  -5   7  12   31.35    1.54
  -2  -5 -12   31.43    1.54
  -5   7 -12   33.36    1.73
   5  -7 -12   34.08    1.84
  -7   2 -12   31.35    1.56
   7  -2 -12   30.84    1.50
  -2  -5 -12   32.35    1.83
   2   5 -12   31.27    1.77
  -6   7  12   15.68    0.96
   1   6  12   14.82    0.96
  -1  -6  12   14.19    0.93
   6  -7  12   17.35    0.98
  -7   1  12   16.21    1.20
   1   6  12   15.54    0.95
  -6   7  12   15.94    0.93
   7  -1  12   15.68    1.16
   7  -1 -12   15.34    0.94
   6  -7 -12   16.74    1.12
   1   6 -12   17.32    1.22
  -7   1 -12   16.23    1.00
  -6   7 -12   15.32    1.01
  -1  -6 -12   15.10    1.16
   0   7  12   20.01    1.16
   0  -7  12   19.31    1.13
   7  -7  12   20.49    1.12
  -7   0  12   20.59    1.42
   7   0  12   20.70    1.40
  -7   7  12   20.11    1.16
   7   0 -12   19.71    1.13
  -7   0 -12   18.83    1.13
   7  -7 -12   18.62    1.21
   0   7 -12   19.35    1.40
   0  -7 -12   18.52    1.38
  -7  -1  12   46.16    2.45
  -1   8  12   42.58    2.02
  -8   7  12   44.71    2.15
   1  -8  12   43.13    2.01
   7   1  12   43.05    2.35
   1  -8 -12   41.54    2.44
  -1   8 -12   40.71    2.40
  -8   7 -12   42.23    2.00
  -7  -1 -12   41.04    2.00
   7   1 -12   42.09    1.97
  -6  -2  12   10.79    0.96
  -8   6  12   10.98    0.81
   2  -8  12    9.87    0.74
  -2   8  12   10.59    0.77
   8  -6  12    9.79    0.73
   6   2  12    9.87    0.88
   8  -6 -12   10.43    0.69
  -8   6 -12    9.95    0.72
  -6  -2 -12    9.13    0.72
   6   2 -12   10.09    0.70
  -2   8 -12    9.31    0.91
   2  -8 -12   11.35    1.03
   6   2 -12    9.03    0.71
   3  -8  12   12.22    0.84
  -5  -3  12   11.79    0.98
  -8   5  12   11.19    0.88
   8  -5  12   13.09    0.90
  -3   8  12   11.34    0.81
   5   3  12   10.92    0.90
  -5  -3 -12   11.92    0.90
  -3   8 -12   11.81    1.02
  -8   5 -12   11.50    0.80
   3  -8 -12   12.61    1.08
  -5  -3 -12   10.99    0.80
   8  -5 -12   11.71    0.76
   5   3 -12   11.71    0.83
   8  -4  12   53.54    2.52
  -4   8  12   51.63    2.27
  -8   4  12   53.01    2.60
   4  -8  12   51.10    2.26
  -4  -4  12   51.72    2.25
  -4  -4  12   51.17    2.57
   4   4  12   50.07    2.43
  -8   4 -12   51.31    2.30
   4  -8 -12   51.53    2.68
   8  -4 -12   52.85    2.23
  -4  -4 -12   52.04    2.58
   4   4 -12   52.01    2.46
  -4   8 -12   51.72    2.62
  -4  -4 -12   52.15    2.29
   3   5  12   15.01    0.99
  -8   3  12   15.32    1.14
   8  -3  12   12.98    1.04
  -5   8  12   14.78    0.93
  -3  -5  12   15.05    0.95
   5  -8  12   15.90    0.95
  -3  -5  12   14.20    1.03
   3   5 -12   15.02    1.06
   8  -3 -12   14.80    0.90
  -3  -5 -12   14.27    0.94
  -5   8 -12   14.31    1.05
  -8   3 -12   16.08    0.98
  -3  -5 -12   14.81    1.13
   5  -8 -12   14.97    1.14
   8  -2  12    8.70    0.83
  -8   2  12    9.37    0.88
   2   6  12    9.02    0.66
  -6   8  12    8.31    0.64
  -2  -6  12    9.36    0.69
   6  -8  12    8.65    0.65
   8  -2 -12    8.85    0.67
   6  -8 -12    8.39    0.75
  -8   2 -12    8.22    0.67
  -2  -6 -12    8.59    0.85
   2   6 -12    9.06    0.82
  -6   8 -12    8.11    0.70
   7  -8  12   43.47    1.99
  -8   1  12   41.84    2.37
   1   7  12   39.24    1.97
  -1  -7  12   41.32    1.96
  -7   8  12   44.40    1.96
   8  -1  12   42.73    2.36
   7  -8 -12   42.45    2.21
   8  -1 -12   42.91    1.97
   1   7 -12   43.79    2.39
  -1  -7 -12   42.39    2.42
  -8   1 -12   42.85    2.03
   0   8  12    4.39    0.60
   8   0  12    3.95    0.64
  -8   0  12    3.95    0.67
   8  -8  12    4.28    0.37
   0  -8  12    3.69    0.50
   0  -8 -12    4.32    0.75
  -8   0 -12    4.41    0.56
   8   0 -12    4.18    0.51
   0   8 -12    3.83    0.64
  -2   9  12   14.88    1.02
  -7  -2  12   18.56    1.38
   2  -9  12   15.67    1.02
   7   2  12   15.56    1.22
   7   2 -12   15.36    0.99
  -7  -2 -12   14.40    1.00
  -2   9 -12   16.50    1.33
  -9   7 -12   15.83    1.01
   2  -9 -12   15.88    1.32
  -3   9  12   33.80    1.73
   3  -9  12   35.50    1.74
   6   3  12   32.85    1.92
  -9   6  12   36.93    1.96
   9  -6  12   34.16    1.77
   9  -6 -12   33.21    1.63
  -6  -3 -12   32.95    1.71
   3  -9 -12   34.05    2.14
  -9   6 -12   33.93    1.72
  -3   9 -12   34.97    2.11
   6   3 -12   32.71    1.67
   9  -5  12   11.62    0.90
  -9   5  12   12.56    0.96
   4  -9  12   11.40    0.82
  -5  -4  12   11.02    0.81
  -4   9  12   11.43    0.81
   5   4  12   11.89    0.92
  -5  -4  12   11.29    0.99
   4  -9 -12   11.54    1.05
  -4   9 -12   12.10    1.01
   9  -5 -12    9.82    0.73
  -5  -4 -12   11.99    0.85
   5   4 -12   11.01    0.81
  -9   5 -12   11.32    0.81
  -4  -5  12    5.15    0.62
  -4  -5  12    6.60    0.83
   5  -9  12    6.76    0.57
  -5   9  12    6.67    0.58
   9  -4  12    6.78    0.66
   4   5  12    6.66    0.58
  -9   4  12    5.14    0.71
   4   5 -12    7.53    0.62
   5  -9 -12    7.46    0.93
  -4  -5 -12    7.11    0.62
  -5   9 -12    6.00    0.79
   9  -4 -12    6.82    0.58
  -4  -5 -12    7.04    0.69
  -9   4 -12    8.09    0.63
  -9   3  12   37.50    2.17
   9  -3  12   38.40    2.14
   3   6  12   35.90    1.85
   6  -9  12   37.86    1.82
  -3  -6  12   38.11    1.83
  -6   9  12   38.46    1.83
   9  -3 -12   37.57    1.80
  -6   9 -12   37.84    2.02
   6  -9 -12   38.20    2.15
  -9   3 -12   35.62    1.85
   3   6 -12   38.69    2.06
  -3  -6 -12   35.04    1.82
  -3  -6 -12   39.07    2.22
   2   7  12    8.38    0.70
  -7   9  12    8.52    0.67
   7  -9  12    7.98    0.63
   9  -2  12    8.43    0.82
  -9   2  12    8.49    1.03
  -2  -7  12    8.13    0.67
  -2  -7 -12    7.43    0.95
   7  -9 -12    8.29    0.75
   2   7 -12    9.10    0.82
  -9   2 -12    9.19    0.71
   9  -2 -12    8.09    0.67
   0   0  13    0.04    0.07
   0   0 -13    0.18    0.10
  -1   0  13   96.92    3.93
   1  -1  13  103.82    3.95
   1   0  13  101.76    3.95
   0  -1  13  100.06    3.94
   0   1  13   97.49    3.93
  -1   1  13   99.46    3.94
  -1   1 -13  100.84    4.02
  -1   0 -13  102.89    4.03
   1   0 -13  102.11    4.03
   0  -1 -13  101.87    4.03
   0   1 -13   97.54    4.01
   1  -1 -13  100.64    4.03
   1  -2  13   36.84    1.70
   2  -1  13   36.91    1.73
  -1  -1  13   37.25    1.47
  -1   2  13   34.65    1.69
  -2   1  13   35.70    1.72
   1   1  13   31.55    1.66
   1  -2  13   37.71    1.44
  -1  -1  13   36.60    1.73
   1  -2 -13   34.31    1.73
  -2   1 -13   36.75    1.72
   2  -1 -13   34.09    1.72
  -1  -1 -13   36.09    1.47
   1   1 -13   34.85    1.73
  -1  -1 -13   33.07    1.71
  -1   2 -13   34.84    1.74
   0  -2  13   80.22    2.86
   0  -2  13   78.14    3.20
   2   0  13   79.93    3.24
  -2   0  13   78.81    3.24
   2  -2  13   83.24    3.23
   0   2  13   78.52    3.21
  -2   2  13   76.15    3.19
   0  -2 -13   80.99    2.92
   2  -2 -13   78.57    3.29
   2   0 -13   78.33    3.28
   2   0 -13   76.78    2.84
   0  -2 -13   76.62    3.29
  -2   2 -13   79.24    3.27
  -2   0 -13   77.58    3.25
  -2   0 -13   81.52    2.91
   0   2 -13   75.34    3.27
   3  -2  13   68.63    2.92
   2   1  13   68.63    2.95
  -2  -1  13   70.61    2.97
   1  -3  13   70.49    2.91
  -2  -1  13   72.59    2.64
  -1   3  13   73.95    2.68
  -3   2  13   68.50    2.94
   1  -3  13   68.02    2.60
  -1   3  13   70.68    2.92
   3  -2 -13   69.59    2.99
  -2  -1 -13   69.13    2.99
  -1   3 -13   68.72    3.02
  -3   2 -13   71.08    2.97
   1  -3 -13   70.35    3.04
   2   1 -13   70.08    3.01
  -2  -1 -13   73.61    2.69
  -2   3  13   93.46    3.66
   1   2  13   91.75    3.68
  -1  -2  13   90.99    3.68
   2  -3  13   93.63    3.65
   2  -3  13   93.64    3.28
  -3   1  13   88.39    3.69
   3  -1  13   92.88    3.70
  -1  -2  13   87.52    3.30
  -3   1 -13   93.38    3.36
   3  -1 -13   92.57    3.74
   1   2 -13   89.23    3.77
  -1  -2 -13   93.31    3.38
   3  -1 -13   92.21    3.28
   2  -3 -13   88.99    3.76
  -3   1 -13   92.50    3.71
  -2   3 -13   95.44    3.78
  -1  -2 -13   89.41    3.75
  -3   0  13    2.49    0.42
   0   3  13    2.87    0.42
  -3   3  13    2.41    0.39
   3  -3  13    2.30    0.37
   0  -3  13    2.98    0.44
   3   0  13    3.12    0.47
   0  -3  13    2.81    0.34
   0   3  13    2.79    0.35
   3   0 -13    3.17    0.35
   0   3 -13    2.58    0.44
   3  -3 -13    2.74    0.43
  -3   0 -13    2.88    0.35
  -3   0 -13    3.41    0.45
   0  -3 -13    3.00    0.46
   3   0 -13    3.08    0.44
  -3   3 -13    2.26    0.37
  -1   4  13  104.06    3.63
  -4   3  13   97.00    3.91
   4  -3  13   97.79    3.87
   3   1  13   92.83    3.90
   1  -4  13   97.16    3.53
  -1   4  13   98.37    3.84
  -3  -1  13   94.00    3.93
  -3  -1  13   99.84    3.54
   1  -4  13   94.50    3.82
   4  -3 -13   94.38    3.94
   1  -4 -13   96.79    4.03
  -3  -1 -13   97.65    3.60
   3   1 -13   95.16    3.94
  -1   4 -13   97.14    4.03
  -4   3 -13   95.75    3.89
  -3  -1 -13   98.18    3.95
  -2   4  13   10.90    0.77
  -2   4  13   10.84    0.66
   2   2  13   10.53    0.79
  -4   2  13   11.91    0.84
   2  -4  13   11.23    0.76
   4  -2  13   10.56    0.78
   2  -4  13   10.46    0.64
  -2  -2  13   10.72    0.81
  -2  -2  13   11.37    0.69
  -4   2 -13   12.06    0.78
  -2  -2 -13   11.57    0.82
   4  -2 -13   11.25    0.79
   2   2 -13   11.51    0.83
  -2   4 -13   10.47    0.80
   2  -4 -13   10.45    0.82
   4  -2 -13   11.62    0.65
  -4   2 -13   11.64    0.67
  -2  -2 -13   10.81    0.67
   1   3  13   95.38    3.75
  -4   1  13   90.38    3.79
  -1  -3  13   93.17    3.76
   3  -4  13   97.05    3.70
  -1  -3  13   93.63    3.42
   4  -1  13   93.73    3.79
   3  -4  13   91.29    3.36
  -3   4  13   91.82    3.71
   3  -4 -13   91.47    3.85
  -1  -3 -13   94.08    3.47
  -3   4 -13   89.52    3.81
  -1  -3 -13   93.15    3.87
   4  -1 -13   97.74    3.41
  -4   1 -13   92.39    3.46
  -4   1 -13   94.23    3.77
   4  -1 -13   89.74    3.76
   1   3 -13   92.62    3.87
  -4   4  13   80.65    3.40
   4  -4  13   85.31    3.38
   4   0  13   83.95    3.49
   0  -4  13   84.66    3.13
   0  -4  13   81.14    3.39
  -4   0  13   80.56    3.49
   0   4  13   82.01    3.38
   0   4  13   85.29    3.19
  -4   0 -13   81.84    3.16
   4   0 -13   82.76    3.45
   0  -4 -13   83.70    3.58
   4   0 -13   86.63    3.13
  -4   4 -13   82.79    3.45
   4  -4 -13   83.78    3.51
   0   4 -13   80.62    3.55
  -4   0 -13   86.67    3.46
   1  -5  13   20.05    1.15
  -1   5  13   21.09    1.10
  -5   4  13   21.09    1.23
   4   1  13   19.81    1.26
   5  -4  13   19.99    1.17
   1  -5  13   20.58    1.08
  -1   5  13   19.18    1.13
  -4  -1  13   20.87    1.29
   4   1 -13   21.25    1.21
  -4  -1 -13   19.68    1.08
   1  -5 -13   22.57    1.35
  -4  -1 -13   21.41    1.22
   5  -4 -13   21.85    1.24
  -5   4 -13   20.39    1.16
   4   1 -13   21.76    1.09
  -1   5 -13   20.58    1.31
  -5   3  13   52.87    2.50
   5  -3  13   54.44    2.47
  -2   5  13   55.82    2.42
   2  -5  13   58.36    2.26
   3   2  13   55.53    2.52
   2  -5  13   59.71    2.43
  -2   5  13   58.11    2.28
  -3  -2  13   54.66    2.24
  -3  -2  13   53.28    2.53
  -3  -2 -13   54.54    2.52
  -5   3 -13   56.25    2.44
  -2   5 -13   53.58    2.58
   5  -3 -13   54.36    2.48
   2  -5 -13   54.60    2.62
  -3  -2 -13   55.15    2.29
   3   2 -13   50.57    2.48
  -5   3 -13   57.71    2.28
   5  -3 -13   58.42    2.20
   2   3  13   67.32    2.95
  -2  -3  13   69.57    2.69
  -2  -3  13   71.48    3.03
  -3   5  13   69.61    2.90
  -3   5  13   71.09    2.71
   3  -5  13   70.09    2.68
   5  -2  13   69.22    3.00
  -5   2  13   68.61    3.03
   3  -5  13   70.63    2.87
   5  -2 -13   72.43    2.67
  -5   2 -13   65.63    2.89
  -3   5 -13   68.90    3.06
   5  -2 -13   66.91    2.94
  -2  -3 -13   69.23    3.07
   3  -5 -13   68.03    3.09
   2   3 -13   68.06    3.05
  -5   2 -13   71.30    2.75
  -2  -3 -13   69.88    2.75
   4  -5  13   18.24    1.06
  -1  -4  13   19.61    1.03
  -4   5  13   17.39    1.08
  -1  -4  13   20.95    1.19
   5  -1  13   20.47    1.24
   1   4  13   20.44    1.16
   4  -5  13   19.35    0.99
  -5   1  13   18.14    1.21
   5  -1 -13   20.01    1.13
  -5   1 -13   19.23    1.11
  -1  -4 -13   18.74    1.22
  -4   5 -13   18.96    1.16
   1   4 -13   18.82    1.23
  -5   1 -13   20.47    1.07
  -1  -4 -13   19.31    1.04
   4  -5 -13   19.02    1.21
   5  -1 -13   19.70    1.03
   0   5  13   49.22    2.06
   0   5  13   46.14    2.13
   0  -5  13   48.65    2.18
  -5   5  13   47.66    2.19
   0  -5  13   47.30    2.01
  -5   0  13   44.51    2.29
   5   0  13   46.22    2.28
   5  -5  13   47.78    2.12
  -5   5 -13   47.10    2.19
   0   5 -13   47.90    2.37
  -5   0 -13   45.67    2.03
   0  -5 -13   45.69    2.34
   5  -5 -13   46.59    2.26
   5   0 -13   46.25    2.15
   5   0 -13   45.95    1.97
  -5   0 -13   47.19    2.17
  -5  -1  13   56.82    2.68
  -6   5  13   53.62    2.48
   5   1  13   50.31    2.54
   6  -5  13   52.35    2.40
   1  -6  13   54.21    2.28
  -1   6  13   54.84    2.38
  -1   6  13   52.14    2.29
   6  -5 -13   52.90    2.49
  -1   6 -13   54.32    2.68
   1  -6 -13   55.70    2.71
   5   1 -13   53.70    2.45
   5   1 -13   56.43    2.28
  -5  -1 -13   54.23    2.32
  -5  -1 -13   54.68    2.49
  -6   5 -13   55.22    2.43
  -6   4  13   68.06    3.05
   2  -6  13   70.79    2.77
   4   2  13   68.38    3.08
   6  -4  13   66.98    2.97
  -2   6  13   69.70    2.90
  -4  -2  13   67.29    3.12
  -2   6  13   72.23    2.81
  -4  -2  13   66.79    2.73
   4   2 -13   66.97    3.02
  -4  -2 -13   71.07    2.82
  -4  -2 -13   72.72    3.10
   6  -4 -13   69.88    3.01
   2  -6 -13   71.47    3.24
  -2   6 -13   69.84    3.20
  -6   4 -13   70.35    2.79
   3  -6  13    0.37    0.08
  -3   6  13    0.14    0.07
   3  -6  13   -0.09    0.07
   6  -3  13    0.30    0.11
  -6   3  13    0.12    0.09
  -3  -3  13    0.30    0.14
  -3   6  13    0.30    0.06
  -3  -3  13    0.11    0.07
   3   3  13   -0.04    0.09
   3   3 -13    0.20    0.09
   6  -3 -13    0.21    0.07
  -3   6 -13    0.30    0.09
  -3  -3 -13    0.26    0.09
  -6   3 -13    0.46    0.09
  -3  -3 -13    0.11    0.08
   3  -6 -13    0.09    0.11
  -6   3 -13   -0.06    0.07
   6  -3 -13    0.30    0.09
   6  -2  13   78.67    3.42
  -2  -4  13   76.51    3.37
  -2  -4  13   78.70    3.07
  -4   6  13   79.28    3.25
   2   4  13   75.23    3.29
  -4   6  13   82.50    3.09
   4  -6  13   80.51    3.06
  -6   2  13   77.95    3.46
   4  -6  13   80.63    3.20
  -2  -4 -13   78.82    3.50
  -2  -4 -13   77.96    3.11
   6  -2 -13   81.51    3.04
   2   4 -13   78.81    3.47
  -4   6 -13   77.78    3.43
   4  -6 -13   77.04    3.48
  -6   2 -13   79.93    3.13
   6  -2 -13   81.11    3.31
   1   5  13   62.36    2.55
  -5   6  13   58.21    2.62
   5  -6  13   60.93    2.45
   5  -6  13   59.99    2.56
  -6   1  13   57.08    2.83
   6  -1  13   61.30    2.83
   1   5  13   58.82    2.62
  -1  -5  13   60.58    2.70
  -1  -5  13   59.66    2.48
  -6   1 -13   59.77    2.53
  -1  -5 -13   61.04    2.90
   6  -1 -13   60.80    2.64
   1   5 -13   60.49    2.88
   5  -6 -13   60.84    2.81
  -5   6 -13   61.13    2.73
   6  -1 -13   61.18    2.47
   0  -6  13    1.00    0.22
   6  -6  13    0.45    0.13
   0   6  13    2.30    0.38
  -6   6  13    0.40    0.09
  -6   0  13    0.06    0.10
   6   0  13    0.29    0.12
   0   6  13    0.44    0.10
  -6   6 -13    0.17    0.09
   6   0 -13    1.64    0.28
   6  -6 -13    0.32    0.09
   0  -6 -13    0.31    0.14
  -6   0 -13    1.14    0.22
   6   0 -13    0.19    0.08
   0   6 -13    0.25    0.13
  -7   6  13   72.39    3.10
   1  -7  13   74.38    2.89
   7  -6  13   68.87    2.95
  -1   7  13   70.35    2.89
   6   1  13   66.43    3.21
  -6  -1  13   70.24    3.30
   7  -6 -13   70.48    3.10
   6   1 -13   66.35    2.80
  -6  -1 -13   68.14    2.88
   6   1 -13   69.92    2.98
  -1   7 -13   65.21    3.28
   1  -7 -13   66.54    3.31
  -2   7  13   33.90    1.62
  -5  -2  13   34.92    1.94
   5   2  13   31.86    1.81
  -7   5  13   33.01    1.78
   2  -7  13   34.88    1.63
   7  -5  13   31.90    1.68
   5   2 -13   34.17    1.60
  -5  -2 -13   32.69    1.75
   5   2 -13   32.23    1.68
   7  -5 -13   32.40    1.68
  -2   7 -13   32.26    1.91
   2  -7 -13   32.28    1.93
  -5  -2 -13   30.96    1.59
  -7   5 -13   31.16    1.57
  -4  -3  13   84.93    3.41
  -4  -3  13   92.73    3.91
  -7   4  13   87.99    3.83
  -3   7  13   89.01    3.56
   3  -7  13   88.65    3.45
  -3   7  13   91.19    3.49
   4   3  13   85.63    3.76
   7  -4  13   86.49    3.72
   4   3 -13   89.97    3.77
  -4  -3 -13   87.92    3.49
   7  -4 -13   89.21    3.38
  -7   4 -13   87.46    3.49
   3  -7 -13   91.40    4.02
  -3   7 -13   88.69    3.94
  -4  -3 -13   88.75    3.85
   7  -4 -13   91.64    3.70
  -7   3  13   72.08    3.35
   3   4  13   69.69    3.17
   4  -7  13   73.27    2.96
   7  -3  13   70.74    3.26
  -3  -4  13   72.69    3.32
  -3  -4  13   73.96    2.97
  -4   7  13   74.41    2.98
  -4   7  13   76.74    3.10
  -3  -4 -13   77.92    3.05
  -3  -4 -13   76.43    3.41
  -7   3 -13   77.54    3.06
   4  -7 -13   74.81    3.46
   7  -3 -13   75.27    2.93
   3   4 -13   74.77    3.33
  -4   7 -13   75.50    3.39
  -5   7  13   17.52    1.01
   7  -2  13   16.36    1.16
   5  -7  13   17.48    0.98
  -2  -5  13   15.23    0.97
  -5   7  13   16.39    0.95
  -7   2  13   16.26    1.19
   2   5  13   15.79    1.01
  -2  -5 -13   17.60    1.23
  -2  -5 -13   15.69    0.99
   5  -7 -13   16.37    1.17
  -7   2 -13   15.48    0.97
   7  -2 -13   17.00    0.98
  -5   7 -13   16.53    1.10
   2   5 -13   15.71    1.15
   1   6  13   68.08    2.85
   6  -7  13   67.72    2.77
  -6   7  13   69.78    2.96
  -7   1  13   66.03    3.23
   7  -1  13   68.37    3.23
   1   6  13   68.60    2.92
  -1  -6  13   68.65    2.81
  -7   1 -13   70.03    2.89
  -6   7 -13   68.66    3.04
   6  -7 -13   68.73    3.17
   1   6 -13   68.16    3.27
   7  -1 -13   69.56    2.79
  -1  -6 -13   67.06    3.27
   0   7  13   76.28    3.12
   0  -7  13   75.73    3.07
  -7   7  13   76.20    3.26
  -7   0  13   75.24    3.56
   7   0  13   75.10    3.52
   0  -7 -13   74.01    3.62
   7  -7 -13   72.45    3.36
   0   7 -13   75.23    3.59
   7   0 -13   73.29    3.03
  -7   0 -13   76.36    3.14
  -1   8  13    8.38    0.68
   1  -8  13    9.73    0.73
  -7  -1  13    6.81    0.90
  -8   7  13    8.99    0.69
   7   1  13    9.32    0.88
  -1   8 -13    9.81    0.92
   1  -8 -13    9.13    1.10
   7   1 -13    7.94    0.66
  -7  -1 -13    7.28    0.63
  -6  -2  13   41.67    2.33
   2  -8  13   44.21    1.99
   6   2  13   39.05    2.22
  -2   8  13   41.85    1.98
  -8   6  13   42.88    2.16
  -8   6 -13   42.65    1.97
   2  -8 -13   41.32    2.38
  -6  -2 -13   41.21    1.98
  -2   8 -13   41.46    2.37
   6   2 -13   41.30    1.93
   6   2 -13   39.82    1.98
   5   3  13   26.89    1.61
  -5  -3  13   25.20    1.64
  -3   8  13   27.12    1.43
   3  -8  13   25.45    1.39
   8  -5  13   26.61    1.51
  -8   5  13   27.17    1.61
  -8   5 -13   27.38    1.42
  -5  -3 -13   27.27    1.60
  -5  -3 -13   26.52    1.44
   5   3 -13   27.64    1.49
   5   3 -13   25.58    1.39
  -3   8 -13   27.46    1.72
   3  -8 -13   27.73    1.77
   8  -5 -13   26.24    1.34
   4  -8  13   12.96    0.85
   8  -4  13   11.69    0.91
  -8   4  13   11.34    0.96
   4   4  13   13.41    0.96
  -4  -4  13   13.16    1.03
  -4   8  13   12.51    0.85
  -4  -4  13   12.23    0.85
   4  -8 -13   12.78    1.06
   8  -4 -13   12.39    0.81
  -4   8 -13   13.82    1.05
  -4  -4 -13   12.29    0.98
  -4  -4 -13   12.53    0.86
  -8   4 -13   12.82    0.84
   4   4 -13   12.93    0.92
   3   5  13   27.53    1.52
  -3  -5  13   29.54    1.48
   8  -3  13   25.85    1.63
  -8   3  13   28.80    1.75
   5  -8  13   29.14    1.47
  -3  -5  13   27.49    1.64
  -5   8  13   27.20    1.43
   5  -8 -13   29.54    1.76
  -5   8 -13   28.79    1.67
   3   5 -13   27.29    1.63
  -3  -5 -13   27.06    1.70
   8  -3 -13   27.96    1.42
  -8   3 -13   27.61    1.46
  -3  -5 -13   26.22    1.45
  -6   8  13   41.46    1.93
   2   6  13   41.54    2.02
   2   6  13   44.46    2.05
   6  -8  13   44.26    1.98
  -2  -6  13   41.36    1.96
   8  -2  13   40.42    2.27
  -8   2  13   41.48    2.33
  -6   8 -13   41.82    2.15
  -8   2 -13   43.21    2.03
  -2  -6 -13   45.28    2.41
   8  -2 -13   42.56    1.95
   6  -8 -13   40.51    2.24
   2   6 -13   42.39    2.30
   7  -8  13    2.79    0.33
   1   7  13    2.43    0.39
   8  -1  13    2.23    0.47
  -8   1  13    2.31    0.46
  -1  -7  13    2.80    0.40
  -8   1 -13    3.01    0.43
   1   7 -13    2.29    0.47
   8  -1 -13    2.42    0.37
  -1  -7 -13    2.35    0.50
   7  -8 -13    2.53    0.33
   0   0  14    0.76    0.21
   0   0 -14    0.88    0.22
  -1   0  14    9.47    0.74
   1   0  14   11.15    0.79
   0   1  14   10.00    0.75
  -1   1  14   10.24    0.76
   0  -1  14   10.35    0.76
   1  -1  14   10.29    0.76
  -1   0 -14   10.34    0.76
   0   1 -14   10.45    0.77
   0  -1 -14    9.74    0.75
  -1   1 -14   10.53    0.77
   1   0 -14   10.09    0.76
   1  -1 -14   10.13    0.77
  -1  -1  14   56.38    2.46
   2  -1  14   55.91    2.46
   1   1  14   54.62    2.45
   1  -2  14   56.16    2.45
  -2   1  14   52.14    2.43
  -1   2  14   53.96    2.43
  -1  -1 -14   55.72    2.51
   1  -2 -14   54.93    2.50
  -1   2 -14   54.23    2.49
   1   1 -14   54.62    2.49
   2  -1 -14   56.48    2.51
  -2   1 -14   57.57    2.49
   0  -2  14   24.79    1.32
   0   2  14   22.88    1.28
   2  -2  14   24.10    1.30
  -2   2  14   21.80    1.27
   0  -2  14   23.30    1.06
   2   0  14   22.73    1.29
  -2   0  14   23.68    1.32
   0  -2 -14   24.67    1.36
   2   0 -14   23.77    1.32
  -2   2 -14   22.00    1.28
  -2   0 -14   24.27    1.32
   0   2 -14   21.64    1.30
   2  -2 -14   20.60    1.28
  -3   2  14    9.69    0.76
   3  -2  14   10.06    0.77
   1  -3  14   10.43    0.76
   2   1  14    9.98    0.77
  -1   3  14   10.07    0.75
  -2  -1  14   10.88    0.63
   1  -3  14   10.52    0.61
  -2  -1  14    9.94    0.78
  -1   3 -14   10.79    0.81
  -2  -1 -14   10.35    0.78
  -3   2 -14   10.90    0.78
  -2  -1 -14    9.77    0.61
   3  -2 -14   11.55    0.82
   1  -3 -14   10.85    0.83
   2   1 -14   10.18    0.78
  -3   1  14   22.49    1.33
  -1  -2  14   24.46    1.13
   3  -1  14   24.57    1.35
   2  -3  14   24.81    1.32
  -1  -2  14   23.91    1.34
   1   2  14   23.39    1.33
  -2   3  14   23.99    1.32
  -1  -2 -14   23.88    1.13
  -2   3 -14   24.33    1.37
   1   2 -14   23.17    1.36
   2  -3 -14   23.56    1.37
  -1  -2 -14   25.05    1.38
  -3   1 -14   24.82    1.34
   3  -1 -14   22.04    1.31
  -3   3  14    4.51    0.56
   3   0  14    3.49    0.51
   0   3  14    3.99    0.37
  -3   0  14    4.26    0.56
   0  -3  14    4.16    0.35
   0  -3  14    5.54    0.51
   0   3  14    4.46    0.56
   3  -3  14    4.64    0.56
   3  -3 -14    4.06    0.56
   3   0 -14    4.68    0.56
  -3   3 -14    4.73    0.56
   0   3 -14    3.65    0.54
   3   0 -14    4.54    0.37
   0  -3 -14    5.16    0.62
  -3   0 -14    4.62    0.55
  -3   0 -14    4.05    0.34
   4  -3  14   24.02    1.34
   1  -4  14   24.88    1.33
  -4   3  14   24.28    1.38
   1  -4  14   26.18    1.19
  -3  -1  14   22.70    1.38
   3   1  14   23.74    1.39
  -1   4  14   24.16    1.33
  -1   4  14   24.91    1.20
  -3  -1 -14   24.97    1.38
   3   1 -14   24.59    1.38
  -3  -1 -14   24.63    1.20
   4  -3 -14   23.38    1.37
  -4   3 -14   24.48    1.34
   1  -4 -14   22.56    1.40
  -1   4 -14   23.65    1.42
   4  -2  14   53.71    2.50
  -2  -2  14   58.57    2.25
  -4   2  14   55.39    2.55
   2   2  14   57.23    2.54
  -2  -2  14   56.87    2.56
   2  -4  14   56.99    2.46
   2  -4  14   56.47    2.21
  -2   4  14   54.38    2.46
  -2  -2 -14   56.40    2.27
  -2   4 -14   54.22    2.58
   2  -4 -14   53.61    2.59
  -2  -2 -14   56.70    2.57
   2   2 -14   56.81    2.58
  -4   2 -14   57.16    2.50
   4  -2 -14   52.93    2.51
  -1  -3  14   23.85    1.15
   4  -1  14   23.87    1.36
  -1  -3  14   22.41    1.31
  -3   4  14   22.08    1.28
  -4   1  14   22.15    1.34
   1   3  14   23.21    1.31
   3  -4  14   22.19    1.25
   4  -1 -14   24.02    1.33
  -1  -3 -14   23.16    1.15
  -3   4 -14   21.62    1.31
   1   3 -14   24.04    1.40
  -4   1 -14   23.02    1.29
  -1  -3 -14   23.66    1.38
  -4   1 -14   24.49    1.16
   4  -1 -14   24.67    1.14
   3  -4 -14   21.35    1.33
  -4   4  14   12.01    0.85
  -4   0  14   12.40    0.93
   0   4  14   12.12    0.75
   4  -4  14   12.54    0.85
   0  -4  14   11.81    0.84
   4   0  14   11.60    0.88
   0  -4  14   12.48    0.75
   0   4  14   11.66    0.84
   4   0 -14   10.92    0.81
   4   0 -14   13.08    0.75
   0  -4 -14   11.94    0.92
  -4   4 -14   12.57    0.87
   0   4 -14   10.96    0.89
  -4   0 -14   10.82    0.80
  -4   0 -14   11.90    0.73
   4  -4 -14   12.28    0.90
  -1   5  14   56.45    2.33
   1  -5  14   54.92    2.46
   1  -5  14   53.76    2.26
  -5   4  14   55.29    2.54
  -4  -1  14   54.01    2.62
  -1   5  14   55.71    2.46
   4   1  14   53.19    2.58
   5  -4  14   56.82    2.50
   1  -5 -14   54.65    2.67
  -5   4 -14   54.88    2.49
  -4  -1 -14   57.03    2.33
  -4  -1 -14   55.42    2.54
   4   1 -14   56.73    2.28
  -1   5 -14   55.53    2.67
   5  -4 -14   57.04    2.58
   4   1 -14   55.45    2.53
   5  -3  14   17.11    1.11
  -5   3  14   17.21    1.13
   3   2  14   16.51    1.11
  -2   5  14   17.99    1.07
  -3  -2  14   19.44    1.00
  -3  -2  14   18.35    1.18
   2  -5  14   17.73    0.95
   2  -5  14   17.57    1.05
  -2   5  14   17.48    0.96
   5  -3 -14   18.51    1.11
   3   2 -14   17.27    1.12
  -5   3 -14   17.80    1.06
  -2   5 -14   15.38    1.12
  -3  -2 -14   16.77    1.11
  -3  -2 -14   16.80    0.96
   2  -5 -14   18.09    1.22
   2   3  14   10.84    0.84
  -5   2  14   12.16    0.92
  -2  -3  14   11.54    0.89
  -2  -3  14   12.34    0.76
  -3   5  14   12.07    0.83
   5  -2  14   11.17    0.87
   3  -5  14   13.10    0.75
   3  -5  14   12.31    0.82
  -5   2 -14   12.02    0.82
  -2  -3 -14   12.08    0.76
  -3   5 -14   11.46    0.89
   5  -2 -14   12.69    0.73
  -2  -3 -14   12.40    0.92
  -5   2 -14   12.10    0.74
   5  -2 -14   11.66    0.84
   2   3 -14   11.86    0.91
   3  -5 -14   11.88    0.93
  -4   5  14   37.98    1.82
  -1  -4  14   36.45    1.85
   1   4  14   37.38    1.83
  -5   1  14   35.51    1.92
   4  -5  14   37.98    1.78
  -1  -4  14   35.74    1.64
   5  -1  14   36.42    1.91
  -5   1 -14   36.53    1.67
   1   4 -14   35.77    1.94
  -4   5 -14   35.73    1.87
   5  -1 -14   37.00    1.64
   5  -1 -14   36.28    1.81
   4  -5 -14   36.20    1.92
  -5   1 -14   35.36    1.79
  -1  -4 -14   35.45    1.93
   5   0  14    6.28    0.76
   0   5  14    6.64    0.57
   0  -5  14    8.17    0.65
   0   5  14    6.74    0.55
   5  -5  14    6.40    0.57
  -5   5  14    7.49    0.62
  -5   0  14    7.44    0.84
   0  -5  14    7.64    0.57
  -5   5 -14    6.77    0.61
  -5   0 -14    7.01    0.54
   0  -5 -14    7.32    0.72
   0   5 -14    6.49    0.79
   5  -5 -14    7.46    0.65
   5   0 -14    7.76    0.56
   5   0 -14    7.46    0.61
  -5   0 -14    7.71    0.63
  -5  -1  14   12.41    1.01
   6  -5  14   12.38    0.86
  -1   6  14   12.74    0.83
  -6   5  14   12.27    0.89
   5   1  14   12.34    0.99
   1  -6  14   12.13    0.79
  -1   6  14   13.16    0.85
   5   1 -14   11.01    0.77
  -5  -1 -14   13.30    0.92
   6  -5 -14   13.88    0.95
  -6   5 -14   13.12    0.88
   1  -6 -14   13.32    1.06
  -1   6 -14   12.77    1.02
  -5  -1 -14   13.22    0.84
   5   1 -14   12.77    0.87
  -2   6  14   19.18    1.11
  -4  -2  14   18.49    1.27
   4   2  14   19.54    1.25
   6  -4  14   18.95    1.18
  -6   4  14   19.21    1.22
  -2   6  14   19.29    1.07
   2  -6  14   19.49    1.05
  -4  -2 -14   17.37    1.17
   4   2 -14   19.47    1.19
   2  -6 -14   18.66    1.30
  -2   6 -14   18.36    1.28
   6  -4 -14   17.85    1.13
  -4  -2 -14   19.29    1.08
  -6   4 -14   18.01    1.09
  -3  -3  14    1.17    0.28
   6  -3  14    0.68    0.18
  -3   6  14    0.73    0.14
   3   3  14    0.90    0.20
   3  -6  14    0.99    0.16
  -6   3  14    1.10    0.26
  -3  -3  14    0.97    0.16
  -3   6  14    1.29    0.21
  -6   3 -14    1.13    0.15
  -3  -3 -14    1.50    0.24
  -3   6 -14    0.89    0.24
  -6   3 -14    0.86    0.17
   3   3 -14    0.66    0.22
   6  -3 -14    1.31    0.21
  -3  -3 -14    1.37    0.28
   3  -6 -14    0.49    0.19
   4  -6  14    4.11    0.35
  -6   2  14    4.32    0.63
   6  -2  14    3.84    0.58
  -4   6  14    4.11    0.50
  -2  -4  14    4.38    0.60
   2   4  14    3.90    0.54
  -2  -4  14    3.62    0.44
  -6   2 -14    4.66    0.40
  -2  -4 -14    4.46    0.40
  -2  -4 -14    4.14    0.61
   2   4 -14    3.51    0.55
   6  -2 -14    4.56    0.43
  -4   6 -14    3.98    0.58
   4  -6 -14    4.57    0.64
   6  -2 -14    3.95    0.46
  -1  -5  14   11.44    0.76
  -1  -5  14   11.44    0.84
   1   5  14   11.78    0.82
  -5   6  14   12.64    0.84
   6  -1  14   12.48    0.97
  -6   1  14   10.79    0.93
   1   5  14   10.02    0.73
   1   5 -14   11.11    0.93
   5  -6 -14   11.14    0.89
  -1  -5 -14   11.66    0.95
  -5   6 -14   11.08    0.85
   6  -1 -14   11.50    0.79
   6  -1 -14   11.23    0.75
  -6   1 -14   10.30    0.73
  -6   0  14    1.21    0.29
   0  -6  14    1.65    0.26
   0   6  14    1.34    0.20
  -6   6  14    2.20    0.33
   0   6  14    1.33    0.24
   6   0  14    1.48    0.30
   6   0 -14    1.58    0.25
   6  -6 -14    1.44    0.21
  -6   0 -14    1.90    0.28
   0   6 -14    1.44    0.32
   6   0 -14    1.43    0.21
   0  -6 -14    0.89    0.27
  -6   6 -14    1.73    0.30
   1  -7  14    4.55    0.53
  -6  -1  14    4.79    0.71
  -7   6  14    4.20    0.42
  -1   7  14    5.61    0.52
   6   1  14    4.90    0.72
   1  -7 -14    4.78    0.71
  -6  -1 -14    6.43    0.51
   6   1 -14    5.52    0.49
   7  -6 -14    5.28    0.48
  -1   7 -14    5.05    0.73
   6   1 -14    6.08    0.50
  -2   7  14   44.00    1.99
   2  -7  14   42.48    1.95
  -5  -2  14   42.35    2.31
  -7   5  14   43.21    2.19
   5   2  14   42.58    2.25
   7  -5  14   42.43    2.10
   7  -5 -14   43.59    2.12
   5   2 -14   44.33    1.96
  -2   7 -14   40.53    2.31
   2  -7 -14   42.51    2.38
  -5  -2 -14   45.69    2.21
   5   2 -14   43.12    2.10
  -5  -2 -14   40.76    1.96
  -7   4  14   23.99    1.49
  -4  -3  14   23.53    1.26
  -3   7  14   22.87    1.25
   4   3  14   22.85    1.43
   3  -7  14   24.48    1.26
  -3   7  14   24.32    1.29
  -4  -3  14   24.51    1.53
   7  -4  14   21.54    1.36
  -3   7 -14   24.42    1.55
  -4  -3 -14   21.95    1.24
  -4  -3 -14   25.02    1.49
   3  -7 -14   23.33    1.56
   7  -4 -14   23.28    1.31
  -7   4 -14   25.11    1.30
   4   3 -14   23.22    1.38
  -3  -4  14   11.88    0.94
  -4   7  14   11.74    0.77
  -4   7  14   10.82    0.74
  -3  -4  14    9.84    0.71
   4  -7  14   10.80    0.73
   3   4  14   11.37    0.85
   7  -3  14   11.85    0.92
  -7   3  14   11.23    0.94
   7  -3 -14   10.26    0.71
  -4   7 -14   10.32    0.88
   3   4 -14   11.04    0.88
  -3  -4 -14   11.81    0.94
  -7   3 -14    9.81    0.72
  -3  -4 -14   11.78    0.78
   4  -7 -14   11.32    0.96
   5  -7  14   24.81    1.30
   7  -2  14   23.15    1.52
  -2  -5  14   25.02    1.51
  -2  -5  14   23.91    1.30
   2   5  14   25.32    1.42
  -5   7  14   26.07    1.38
  -7   2  14   26.12    1.63
  -5   7 -14   25.66    1.52
  -2  -5 -14   25.32    1.61
  -2  -5 -14   23.10    1.31
   7  -2 -14   26.29    1.32
   5  -7 -14   24.93    1.55
   2   5 -14   26.12    1.59
  -7   2 -14   25.98    1.36
  -6   7  14   20.48    1.21
  -1  -6  14   21.09    1.17
   1   6  14   19.77    1.17
   7  -1  14   19.78    1.39
  -7   1  14   20.52    1.44
   1   6  14   20.67    1.20
   6  -7 -14   21.11    1.34
   7  -1 -14   20.62    1.14
  -7   1 -14   22.24    1.20
  -1  -6 -14   19.06    1.40
   1   6 -14   19.84    1.42
  -6   7 -14   19.59    1.25
  -7   0  14   13.13    1.09
   0  -7  14   12.51    0.84
   7   0  14   10.92    0.99
  -7   7  14   12.52    0.86
   0   7  14   11.97    0.85
   7  -7 -14   12.63    0.92
   0   7 -14   13.13    1.09
   7   0 -14   12.33    0.84
  -7   0 -14   11.29    0.81
   0  -7 -14   11.74    1.04
  -5  -3  14    7.24    0.91
  -8   5  14    6.59    0.60
   5   3  14    6.75    0.66
   3  -8  14    7.09    0.56
   8  -5  14    6.58    0.61
  -3   8  14    7.72    0.63
   3  -8 -14    7.34    0.93
  -8   5 -14    8.34    0.62
  -5  -3 -14    8.12    0.63
   5   3 -14    7.05    0.60
  -3   8 -14    5.99    0.82
   5   3 -14    6.30    0.56
  -4   8  14   43.25    2.01
  -4  -4  14   41.88    2.28
  -8   4  14   41.10    2.28
   4  -8  14   46.28    2.03
  -4  -4  14   42.83    1.99
   8  -4  14   41.12    2.19
   4   4  14   40.72    2.15
  -4   8 -14   42.23    2.33
  -8   4 -14   42.84    2.03
  -4  -4 -14   43.61    2.32
   4  -8 -14   46.13    2.45
   8  -4 -14   41.61    1.92
  -4  -4 -14   42.22    2.02
   4   4 -14   42.80    2.19
  -8   3  14   11.22    0.94
   3   5  14    9.91    0.75
   8  -3  14   10.04    0.87
  -5   8  14   11.00    0.75
  -3  -5  14    9.17    0.84
  -3  -5  14   10.06    0.74
   5  -8  14   10.91    0.73
  -3  -5 -14   10.29    0.75
   5  -8 -14   10.43    0.91
   8  -3 -14    9.82    0.71
  -5   8 -14    9.58    0.82
  -8   3 -14    9.46    0.71
   3   5 -14    9.54    0.79
  -3  -5 -14    9.93    0.87
   0   0  15    0.11    0.10
   0   0 -15    0.43    0.13
   1   0  15   53.67    2.39
   1  -1  15   52.03    2.37
   0  -1  15   51.49    2.36
  -1   0  15   50.58    2.37
  -1   1  15   52.32    2.38
   0   1  15   50.77    2.36
  -1   1 -15   48.64    2.37
   1  -1 -15   51.70    2.42
   0   1 -15   54.19    2.44
  -1   0 -15   51.00    2.39
   1   0 -15   52.88    2.43
   0  -1 -15   52.56    2.43
   1   1  15    0.23    0.10
   1  -2  15    0.08    0.09
  -2   1  15    0.12    0.08
  -1   2  15    0.68    0.22
  -1  -1  15    0.10    0.10
   2  -1  15    0.18    0.09
   2  -1 -15    0.39    0.14
  -1  -1 -15    0.11    0.09
  -1   2 -15    0.20    0.11
   1  -2 -15    0.21    0.11
   1   1 -15    0.25    0.12
  -2   1 -15    0.43    0.13
   0  -2  15   47.39    2.24
   0   2  15   49.71    2.26
   2   0  15   47.98    2.26
  -2   0  15   47.93    2.27
   2  -2  15   47.99    2.24
  -2   2  15   49.50    2.27
  -2   0 -15   47.39    2.27
  -2   2 -15   46.80    2.26
   0   2 -15   46.35    2.28
   0  -2 -15   47.28    2.30
   2  -2 -15   48.13    2.31
   2   0 -15   49.11    2.30
   3  -2  15   72.01    3.14
  -2  -1  15   73.87    3.19
  -3   2  15   74.36    3.17
   2   1  15   74.23    3.17
   1  -3  15   74.98    3.13
  -1   3  15   72.49    3.12
   1  -3 -15   73.33    3.25
  -2  -1 -15   73.72    3.21
   2   1 -15   74.19    3.23
  -1   3 -15   73.29    3.24
  -3   2 -15   70.92    3.15
   3  -2 -15   73.29    3.22
  -2   3  15   52.06    2.39
   3  -1  15   49.75    2.39
   1   2  15   51.73    2.41
   2  -3  15   53.99    2.39
  -1  -2  15   52.64    2.42
  -3   1  15   49.72    2.41
  -3   1 -15   51.85    2.40
  -2   3 -15   51.80    2.45
   3  -1 -15   51.34    2.44
  -1  -2 -15   52.70    2.47
   1   2 -15   53.04    2.49
   2  -3 -15   54.56    2.50
   0  -3  15    0.12    0.06
  -3   0  15    0.63    0.19
   0   3  15    0.46    0.16
   3  -3  15    0.35    0.13
  -3   3  15    0.14    0.09
   3   0  15    0.09    0.08
   0  -3  15    0.13    0.12
   3  -3 -15    0.23    0.08
  -3   3 -15    0.31    0.11
   0   3 -15    0.73    0.21
  -3   0 -15    0.25    0.09
   3   0 -15    0.16    0.08
   0  -3 -15    0.19    0.10
  -1   4  15   37.20    1.87
  -4   3  15   34.25    1.88
   1  -4  15   37.29    1.64
  -3  -1  15   38.02    1.97
   3   1  15   37.14    1.94
   1  -4  15   39.51    1.89
   4  -3  15   37.43    1.89
   3   1 -15   38.12    1.94
   3   1 -15   39.75    1.67
  -3  -1 -15   36.79    1.91
  -1   4 -15   36.04    1.97
   4  -3 -15   39.02    1.96
  -3  -1 -15   39.38    1.70
   1  -4 -15   36.85    1.99
  -4   3 -15   38.95    1.91
  -2   4  15    1.58    0.31
  -4   2  15    1.05    0.23
  -2  -2  15    3.54    0.52
   2  -4  15    1.50    0.29
   4  -2  15    1.54    0.32
   2   2  15    1.42    0.30
  -2  -2  15    1.56    0.21
   2   2 -15    0.96    0.26
  -2   4 -15    1.18    0.27
  -4   2 -15    1.32    0.26
  -2  -2 -15    1.53    0.31
   2  -4 -15    1.57    0.34
  -2  -2 -15    1.81    0.24
   4  -2 -15    1.26    0.29
  -1  -3  15   52.15    2.20
   1   3  15   54.57    2.52
   4  -1  15   57.11    2.59
   3  -4  15   57.68    2.49
  -4   1  15   54.60    2.58
  -1  -3  15   56.26    2.55
  -3   4  15   56.02    2.50
   1   3 -15   54.61    2.62
   4  -1 -15   53.52    2.53
  -3   4 -15   53.73    2.56
  -4   1 -15   54.32    2.51
   3  -4 -15   55.69    2.62
  -1  -3 -15   53.11    2.59
  -1  -3 -15   53.53    2.25
   0  -4  15   59.12    2.69
   4   0  15   60.48    2.78
   0   4  15   62.06    2.71
   0   4  15   61.65    2.46
   0  -4  15   58.36    2.39
   4  -4  15   58.29    2.65
  -4   4  15   61.98    2.73
  -4   0  15   57.00    2.76
  -4   0 -15   57.61    2.43
   4   0 -15   61.66    2.41
  -4   0 -15   60.81    2.72
   0  -4 -15   60.65    2.84
   4   0 -15   61.12    2.73
   0   4 -15   59.03    2.84
   4  -4 -15   59.39    2.77
  -4   4 -15   57.75    2.70
   1  -5  15    1.32    0.16
  -4  -1  15    0.83    0.24
  -5   4  15    2.01    0.37
   1  -5  15    1.13    0.19
   4   1  15    1.99    0.39
   5  -4  15    1.33    0.24
  -1   5  15    1.36    0.24
  -1   5  15    1.01    0.17
   5  -4 -15    1.38    0.24
  -4  -1 -15    1.42    0.17
   1  -5 -15    1.37    0.33
  -1   5 -15    1.58    0.33
  -4  -1 -15    1.08    0.22
   4   1 -15    0.94    0.18
  -5   4 -15    0.94    0.21
   4   1 -15    1.67    0.30
   2  -5  15   57.05    2.32
  -3  -2  15   57.15    2.33
   2  -5  15   56.00    2.52
  -2   5  15   55.49    2.53
  -5   3  15   56.15    2.65
   3   2  15   57.86    2.67
  -3  -2  15   57.46    2.69
   5  -3  15   56.55    2.62
  -3  -2 -15   56.18    2.66
   3   2 -15   58.41    2.68
  -5   3 -15   57.26    2.58
  -3  -2 -15   54.61    2.34
  -2   5 -15   57.17    2.74
   5  -3 -15   56.05    2.62
   2  -5 -15   55.78    2.75
   3  -5  15   40.11    1.96
   2   3  15   41.89    2.07
  -5   2  15   40.77    2.12
  -3   5  15   40.76    2.00
  -2  -3  15   42.90    2.12
  -2  -3  15   42.66    1.83
   5  -2  15   41.35    2.11
  -2  -3 -15   41.69    2.14
  -2  -3 -15   40.61    1.83
  -5   2 -15   40.75    2.01
   2   3 -15   41.11    2.13
   5  -2 -15   40.10    2.03
  -3   5 -15   41.77    2.13
   3  -5 -15   41.99    2.18
   1   4  15    0.54    0.14
  -5   1  15    0.41    0.15
  -4   5  15    0.61    0.11
  -1  -4  15    0.86    0.21
   4  -5  15    0.60    0.15
  -1  -4  15    1.00    0.15
   1   4  15    0.78    0.22
   5  -1  15    0.87    0.23
   4  -5 -15    1.05    0.25
  -1  -4 -15    0.71    0.21
  -5   1 -15    0.41    0.08
   1   4 -15    0.44    0.20
   5  -1 -15    0.89    0.16
   5  -1 -15    0.89    0.16
  -5   1 -15    0.85    0.19
  -4   5 -15    0.72    0.18
  -5   5  15   52.04    2.38
   5  -5  15   46.62    2.25
  -5   0  15   45.97    2.44
   0  -5  15   52.56    2.36
   0   5  15   49.20    2.30
   5   0  15   46.95    2.42
   0   5  15   48.96    2.16
   0  -5  15   48.81    2.11
   5   0 -15   51.64    2.13
   0   5 -15   49.56    2.52
  -5   0 -15   51.05    2.17
  -5   5 -15   49.61    2.36
   5   0 -15   46.96    2.30
   0  -5 -15   48.13    2.50
   5  -5 -15   48.03    2.40
  -5   0 -15   48.03    2.32
  -5  -1  15   35.91    2.00
  -1   6  15   34.82    1.73
   6  -5  15   34.05    1.76
  -6   5  15   34.10    1.82
  -1   6  15   31.89    1.63
   1  -6  15   33.66    1.62
   5   1  15   32.32    1.89
  -1   6 -15   37.60    2.05
   6  -5 -15   35.22    1.84
   5   1 -15   33.25    1.76
   1  -6 -15   31.75    1.94
   5   1 -15   33.62    1.62
  -5  -1 -15   34.44    1.82
  -6   5 -15   33.53    1.76
  -5  -1 -15   34.28    1.65
  -2   6  15   58.58    2.49
  -6   4  15   62.59    2.84
   2  -6  15   59.23    2.47
  -4  -2  15   61.22    2.90
  -2   6  15   62.92    2.68
   4   2  15   60.43    2.83
   6  -4  15   58.08    2.72
   2  -6 -15   58.29    2.92
   4   2 -15   59.12    2.47
   4   2 -15   61.69    2.78
  -4  -2 -15   58.98    2.80
  -4  -2 -15   56.74    2.49
   6  -4 -15   60.28    2.74
  -2   6 -15   55.56    2.87
  -6   4 -15   59.69    2.67
  -3  -3  15    0.22    0.08
   3   3  15    0.38    0.16
   6  -3  15    0.51    0.14
  -6   3  15    0.15    0.12
   3  -6  15    0.16    0.08
  -3   6  15    0.24    0.08
  -3  -3  15    0.38    0.11
  -3  -3 -15    1.03    0.18
   3   3 -15    1.17    0.28
   6  -3 -15    0.21    0.09
  -3  -3 -15    0.55    0.10
   3  -6 -15    0.34    0.14
  -3   6 -15    0.39    0.10
   2   4  15   28.36    1.61
  -6   2  15   28.33    1.72
  -2  -4  15   28.96    1.44
  -2  -4  15   29.93    1.68
  -4   6  15   29.89    1.57
   6  -2  15   29.36    1.70
  -6   2 -15   31.81    1.50
  -2  -4 -15   30.94    1.77
  -4   6 -15   30.08    1.71
   4  -6 -15   29.02    1.74
  -2  -4 -15   30.77    1.50
   6  -2 -15   27.96    1.55
   2   4 -15   28.87    1.72
   1   5  15   38.83    1.85
  -5   6  15   40.10    1.98
  -6   1  15   40.38    2.19
   6  -1  15   36.54    2.09
  -1  -5  15   39.44    1.81
   1   5  15   37.08    1.93
  -1  -5  15   40.55    2.05
   5  -6 -15   40.51    2.13
   6  -1 -15   41.00    1.98
  -5   6 -15   40.55    2.06
  -6   1 -15   40.99    1.87
   6  -1 -15   40.77    1.82
  -1  -5 -15   38.11    2.15
   1   5 -15   39.29    2.18
  -6   6  15    0.32    0.10
  -6   0  15    0.08    0.11
   0   6  15    0.09    0.09
   0   6  15    0.16    0.09
   0  -6  15    0.17    0.09
   6   0  15    0.16    0.10
   0   6 -15    0.07    0.11
   6   0 -15    0.12    0.08
   6   0 -15    0.24    0.09
  -6   0 -15    0.30    0.09
   6  -6 -15    0.08    0.10
  -6   6 -15    0.08    0.09
   0  -6 -15    0.08    0.10
  -7   4  15   28.91    1.73
   4   3  15   27.21    1.67
   3  -7  15   31.38    1.53
   7  -4  15   29.53    1.68
  -4  -3  15   33.28    1.87
  -3   7  15   32.24    1.56
   7  -4 -15   30.67    1.62
  -4  -3 -15   29.12    1.51
   3  -7 -15   29.47    1.85
  -4  -3 -15   31.49    1.77
   4   3 -15   29.40    1.66
  -3   7 -15   27.76    1.77
   7  -3  15   26.59    1.65
  -3  -4  15   28.73    1.45
  -3  -4  15   27.16    1.68
  -7   3  15   29.06    1.75
   4  -7  15   30.72    1.49
   3   4  15   26.85    1.60
   3   4 -15   30.82    1.73
   4  -7 -15   28.03    1.76
  -7   3 -15   31.22    1.53
  -3  -4 -15   28.88    1.75
  -4   7 -15   28.80    1.73
  -3  -4 -15   29.08    1.49
   0   0  16   16.06    1.09
   0   0 -16   16.90    1.11
   0   1  16   26.76    1.50
   0  -1  16   25.29    1.46
  -1   0  16   25.24    1.48
  -1   1  16   24.47    1.45
   1  -1  16   26.63    1.49
   1   0  16   27.28    1.50
   0   1 -16   27.17    1.52
  -1   1 -16   25.19    1.48
   0  -1 -16   26.07    1.51
   1  -1 -16   26.03    1.51
  -1   0 -16   26.29    1.49
   1   0 -16   27.37    1.53
   2  -1  16    9.71    0.79
  -1   2  16    9.70    0.79
   1  -2  16   10.84    0.81
  -2   1  16    9.19    0.77
   1   1  16    9.66    0.79
  -1  -1  16    9.41    0.78
  -1   2 -16    9.30    0.78
  -1  -1 -16    9.45    0.78
   1   1 -16    8.90    0.78
   1  -2 -16    9.01    0.79
   2  -1 -16    9.58    0.79
  -2   1 -16    9.72    0.79
   2   0  16   36.97    1.89
  -2   0  16   32.25    1.81
   0   2  16   37.40    1.88
   2  -2  16   36.71    1.86
  -2   2  16   35.48    1.86
   0  -2  16   35.40    1.84
   2   0 -16   35.27    1.88
   0   2 -16   35.68    1.90
   0  -2 -16   37.04    1.92
   2  -2 -16   36.82    1.91
  -2   2 -16   35.72    1.87
  -2   0 -16   35.51    1.87
  -1   3  16   43.62    2.15
   1  -3  16   43.81    2.14
  -2  -1  16   43.26    2.20
  -3   2  16   44.26    2.19
   2   1  16   42.76    2.18
   3  -2  16   41.42    2.13
   2   1 -16   45.25    2.23
   3  -2 -16   45.59    2.24
  -2  -1 -16   44.48    2.21
  -1   3 -16   45.32    2.25
  -3   2 -16   45.10    2.19
   1  -3 -16   45.79    2.27
  -1  -2  16   35.02    1.85
  -2   3  16   34.52    1.82
   1   2  16   34.37    1.84
  -3   1  16   33.92    1.86
   2  -3  16   35.28    1.81
   3  -1  16   35.59    1.87
  -1  -2 -16   36.22    1.91
   2  -3 -16   36.16    1.91
  -3   1 -16   36.45    1.86
  -2   3 -16   36.39    1.88
   3  -1 -16   33.82    1.83
   1   2 -16   34.13    1.87
   3  -3  16    0.44    0.12
  -3   0  16    0.20    0.10
   0  -3  16    0.46    0.13
   0   3  16    1.07    0.25
   3   0  16    0.37    0.12
  -3   3  16    0.36    0.10
   0   3 -16    0.34    0.14
   3   0 -16    0.04    0.10
  -3   3 -16    0.50    0.16
   0  -3 -16    0.82    0.23
  -3   0 -16    0.45    0.11
   3  -3 -16    0.46    0.16
  -4   3  16   31.37    1.73
   1  -4  16   31.30    1.68
  -3  -1  16   31.09    1.76
  -1   4  16   31.99    1.69
   3   1  16   28.95    1.70
   4  -3  16   33.72    1.74
   4  -3 -16   30.36    1.72
   3   1 -16   31.25    1.73
   1  -4 -16   33.44    1.83
  -1   4 -16   30.20    1.76
  -4   3 -16   32.69    1.71
  -3  -1 -16   30.41    1.70
   2   2  16    5.67    0.70
   2  -4  16    5.45    0.53
  -2   4  16    6.36    0.59
  -4   2  16    6.49    0.76
  -2  -2  16    6.18    0.74
   4  -2  16    5.41    0.68
   2  -4 -16    5.55    0.72
  -4   2 -16    6.15    0.56
  -2  -2 -16    5.40    0.69
   2   2 -16    5.18    0.67
   4  -2 -16    6.71    0.63
  -2   4 -16    5.53    0.70
   4  -1  16   28.30    1.62
   1   3  16   27.71    1.58
   3  -4  16   27.06    1.53
  -3   4  16   28.62    1.58
  -4   1  16   26.91    1.62
  -1  -3  16   29.96    1.63
  -3   4 -16   29.93    1.65
  -1  -3 -16   26.51    1.62
   1   3 -16   27.49    1.65
  -4   1 -16   30.42    1.61
   3  -4 -16   28.49    1.66
   4  -1 -16   29.39    1.61
   0  -4  16   22.67    1.17
   0   4  16   23.44    1.38
   4   0  16   23.77    1.46
   4  -4  16   24.30    1.39
  -4   0  16   23.08    1.46
   0  -4  16   24.59    1.42
  -4   4  16   22.83    1.39
   0  -4 -16   24.60    1.51
  -4   0 -16   21.80    1.36
   0   4 -16   21.67    1.46
   4   0 -16   24.10    1.40
   4  -4 -16   25.04    1.48
  -4   4 -16   23.97    1.41
   1  -5  16    7.78    0.54
  -4  -1  16    7.32    0.85
  -5   4  16    7.15    0.65
   4   1  16    6.17    0.77
   5  -4  16    6.72    0.61
  -1   5  16    6.84    0.59
   1  -5  16    6.91    0.62
   4   1 -16    6.38    0.59
  -1   5 -16    6.36    0.81
  -4  -1 -16    6.79    0.52
   5  -4 -16    6.62    0.62
  -4  -1 -16    6.89    0.63
   1  -5 -16    6.35    0.81
   4   1 -16    7.83    0.57
  -5   4 -16    6.86    0.61
   3   2  16   27.44    1.60
   5  -3  16   26.97    1.55
  -5   3  16   27.73    1.61
  -2   5  16   27.78    1.50
  -3  -2  16   26.39    1.60
   2  -5  16   27.10    1.49
  -2   5 -16   27.47    1.66
   5  -3 -16   28.13    1.56
   3   2 -16   27.04    1.58
  -3  -2 -16   25.92    1.34
  -3  -2 -16   27.02    1.59
   2  -5 -16   26.74    1.66
  -5   3 -16   27.02    1.51
   5  -2  16   26.74    1.59
  -2  -3  16   28.14    1.61
  -3   5  16   26.67    1.49
  -5   2  16   26.51    1.61
   2   3  16   26.50    1.55
   3  -5  16   26.15    1.47
  -2  -3  16   27.95    1.34
  -5   2 -16   28.25    1.55
  -2  -3 -16   27.88    1.36
   3  -5 -16   27.39    1.66
  -2  -3 -16   24.89    1.57
   2   3 -16   27.28    1.62
  -3   5 -16   27.94    1.62
   5  -2 -16   27.56    1.54
  -5   1  16   20.45    1.37
   4  -5  16   19.97    1.22
   1   4  16   21.21    1.29
  -1  -4  16   21.43    1.11
  -1  -4  16   20.13    1.28
  -4   5  16   21.70    1.28
   1   4  16   21.51    1.16
   5  -1  16   20.30    1.35
   1   4 -16   20.84    1.40
   5  -1 -16   20.36    1.24
  -4   5 -16   19.36    1.28
   4  -5 -16   21.29    1.37
  -1  -4 -16   19.43    1.35
  -5   1 -16   19.50    1.23
   5  -5  16   25.72    1.46
   0   5  16   25.49    1.35
   0   5  16   26.71    1.48
  -5   5  16   24.86    1.46
   5   0  16   25.73    1.60
   0  -5  16   27.80    1.54
   0  -5  16   27.49    1.35
  -5   0  16   24.21    1.59
   5   0 -16   26.66    1.49
  -5   0 -16   27.37    1.54
   0   5 -16   25.72    1.65
   5  -5 -16   26.27    1.54
   0  -5 -16   25.08    1.62
   5   0 -16   26.92    1.34
  -5   0 -16   26.72    1.36
  -5   5 -16   24.60    1.48
  -4  -2  16   39.33    2.11
   2  -6  16   38.12    1.73
  -6   4  16   36.54    2.00
   4   2  16   37.68    2.05
  -2   6  16   37.55    1.87
   6  -4  16   33.73    1.89
   6  -4 -16   36.51    1.92
   4   2 -16   36.80    1.74
   2  -6 -16   37.66    2.13
   4   2 -16   36.63    1.93
  -4  -2 -16   36.92    1.75
  -6   4 -16   35.27    1.86
  -2   6 -16   37.28    2.10
  -4  -2 -16   38.07    2.03
  -6   3  16    2.20    0.37
   3   3  16    2.12    0.36
   6  -3  16    2.15    0.36
  -3  -3  16    1.93    0.26
  -3   6  16    2.71    0.35
  -3  -3  16    1.99    0.38
  -3  -3 -16    2.79    0.45
   6  -3 -16    2.21    0.33
  -3  -3 -16    2.28    0.30
   3  -6 -16    1.55    0.32
  -3   6 -16    1.85    0.34
   3   3 -16    3.02    0.46
  -4   6  16   15.84    1.05
  -2  -4  16   17.49    1.20
   6  -2  16   16.88    1.19
  -2  -4  16   15.77    0.96
  -6   2  16   16.45    1.20
   2   4  16   16.00    1.10
   4  -6 -16   15.04    1.15
   2   4 -16   15.73    1.17
   6  -2 -16   17.86    1.11
  -4   6 -16   18.53    1.23
  -2  -4 -16   16.88    1.21
   0   0  17    0.03    0.08
   0   0 -17    0.21    0.11
  -1   0  17   38.46    2.00
   1  -1  17   40.41    2.03
   1   0  17   38.33    1.99
   0  -1  17   42.09    2.05
  -1   1  17   36.39    1.97
   0   1  17   37.38    1.99
  -1   0 -17   40.19    2.05
   1   0 -17   39.07    2.05
   0   1 -17   37.83    2.02
  -1   1 -17   36.07    1.99
   1  -1 -17   39.00    2.05
   0  -1 -17   38.44    2.03
   2  -1  17    7.78    0.71
  -2   1  17    7.79    0.72
  -1  -1  17    8.84    0.76
   1  -2  17    8.40    0.72
  -1   2  17    8.44    0.74
   1   1  17    7.82    0.72
   1  -2 -17    6.56    0.79
  -1  -1 -17    6.44    0.65
  -2   1 -17    7.49    0.70
  -1   2 -17    8.33    0.74
   2  -1 -17    8.24    0.75
   1   1 -17    7.05    0.69
  -2   2  17   53.80    2.55
   2  -2  17   50.63    2.50
  -2   0  17   53.09    2.57
   2   0  17   54.37    2.57
   0  -2  17   53.24    2.53
   0   2  17   53.73    2.56
   0   2 -17   55.12    2.63
  -2   0 -17   55.51    2.61
  -2   2 -17   54.10    2.58
   2  -2 -17   52.28    2.60
   0  -2 -17   53.76    2.61
   2   0 -17   52.40    2.58
   1  -3  17   54.28    2.46
  -2  -1  17   49.00    2.45
   2   1  17   49.94    2.45
  -1   3  17   50.12    2.41
  -3   2  17   51.18    2.46
   3  -2  17   47.23    2.39
  -3   2 -17   50.66    2.44
   2   1 -17   47.65    2.44
  -2  -1 -17   48.39    2.44
   3  -2 -17   49.13    2.45
   1  -3 -17   51.13    2.51
  -1   3 -17   48.13    2.46
  -1  -2  17   54.77    2.57
  -2   3  17   50.86    2.50
   3  -1  17   52.01    2.54
  -3   1  17   53.50    2.58
   2  -3  17   52.54    2.49
   1   2  17   51.32    2.52
  -1  -2 -17   53.01    2.59
  -3   1 -17   53.22    2.54
   2  -3 -17   51.56    2.59
  -2   3 -17   52.71    2.58
   3  -1 -17   51.97    2.55
   1   2 -17   53.90    2.61
   3   0  17    0.87    0.22
  -3   0  17    1.78    0.35
   0  -3  17    1.03    0.26
   3  -3  17    0.80    0.16
  -3   3  17    0.99    0.22
   0   3  17    0.84    0.19
   3   0 -17    1.12    0.25
  -3   0 -17    0.88    0.19
   0   3 -17    0.74    0.22
   0  -3 -17    0.92    0.24
  -3   3 -17    0.94    0.20
   3  -3 -17    0.78    0.21
   4  -3  17   34.06    1.90
   3   1  17   36.77    1.99
   1  -4  17   35.84    1.91
  -4   3  17   36.89    1.98
  -1   4  17   37.67    1.94
  -3  -1  17   36.71    2.01
  -4   3 -17   36.62    1.93
  -3  -1 -17   37.44    1.98
   3   1 -17   37.98    2.00
   4  -3 -17   39.95    2.03
  -1   4 -17   34.19    1.99
   1  -4 -17   36.72    2.04
  -2   4  17    0.29    0.10
   2   2  17    0.55    0.19
  -2  -2  17    0.97    0.21
   2  -4  17    0.51    0.16
   4  -2  17    0.67    0.13
  -4   2  17    0.57    0.15
   2  -4 -17    0.68    0.19
   4  -2 -17    0.54    0.13
   2   2 -17    1.10    0.26
  -2  -2 -17    0.92    0.22
  -2   4 -17    0.51    0.15
  -4   2 -17    1.18    0.23
  -1  -3  17   36.59    1.94
   4  -1  17   35.31    1.93
  -4   1  17   33.34    1.92
   3  -4  17   35.22    1.86
  -3   4  17   32.47    1.83
   1   3  17   34.61    1.89
   1   3 -17   38.51    2.03
  -4   1 -17   34.93    1.87
  -3   4 -17   35.50    1.93
   4  -1 -17   36.34    1.91
   3  -4 -17   34.82    1.96
  -1  -3 -17   35.85    1.98
   0   4  17   29.15    1.63
  -4   4  17   30.93    1.71
   0  -4  17   32.36    1.71
   4   0  17   28.16    1.70
  -4   0  17   27.78    1.72
   4  -4  17   28.17    1.60
   4  -4 -17   29.30    1.71
   4   0 -17   29.11    1.65
   0  -4 -17   30.69    1.79
  -4   0 -17   27.43    1.63
  -4   4 -17   29.71    1.68
   0   4 -17   30.61    1.80
   0   0  18  156.05    6.14
   0   0 -18  155.72    6.28
  -1   1  18    5.77    0.73
   1   0  18    5.84    0.73
   0  -1  18    6.58    0.77
   1  -1  18    6.06    0.74
  -1   0  18    6.09    0.74
   0   1  18    5.20    0.69
   1   0 -18    5.84    0.73
  -1   0 -18    5.15    0.69
   0  -1 -18    5.98    0.74
  -1   1 -18    5.11    0.68
   1  -1 -18    5.86    0.74
   0   1 -18    5.50    0.71
   1  -2  18   31.39    1.75
  -2   1  18   30.40    1.76
   1   1  18   31.44    1.77
  -1  -1  18   32.55    1.79
   2  -1  18   31.89    1.77
  -1   2  18   30.78    1.75
   1   1 -18   31.14    1.79
  -2   1 -18   29.57    1.74
   1  -2 -18   30.82    1.80
  -1  -1 -18   29.63    1.75
   2  -1 -18   30.62    1.79
  -1   2 -18   31.18    1.79
   2   0  18    2.04    0.39
   0  -2  18    2.25    0.39
   0   2  18    1.59    0.33
  -2   2  18    1.74    0.34
   2  -2  18    3.08    0.47
  -2   0  18    1.89    0.36
  -2   2 -18    2.49    0.42
   2   0 -18    2.75    0.47
   0  -2 -18    2.00    0.37
   2  -2 -18    2.17    0.36
  -2   0 -18    1.57    0.29
   0   2 -18    1.94    0.34
   0   0   0    0.00    0.00
;
_shelx_hkl_checksum              60084
_shelx_shelxl_version_number     2014/7
_olex2_submission_special_instructions 'No special instructions were received'
loop_
_space_group_symop_operation_xyz
'x, y, z'
'-y, x-y, z'
'-x+y, -x, z'
'-x, -y, z+1/2'
'y, -x+y, z+1/2'
'x-y, x, z+1/2'
'-x, -y, -z'
'y, -x+y, -z'
'x-y, x, -z'
'x, y, -z-1/2'
'-y, x-y, -z-1/2'
'-x+y, -x, -z-1/2'
loop_
_atom_site_label
_atom_site_type_symbol
_atom_site_fract_x
_atom_site_fract_y
_atom_site_fract_z
_atom_site_U_iso_or_equiv
_atom_site_adp_type
_atom_site_occupancy
_atom_site_site_symmetry_order
_atom_site_calc_flag
_atom_site_refinement_flags_posn
_atom_site_refinement_flags_adp
_atom_site_refinement_flags_occupancy
_atom_site_disorder_assembly
_atom_site_disorder_group
Yb1 Yb 0.0000 0.0000 0.2500 0.00694(9) Uani 1 6 d S T P . .
Yb2 Yb 0.6667 0.3333 -0.01841(2) 0.00761(9) Uani 1 3 d S T P . .
Si1 Si 0.34703(10) 0.01870(10) 0.14069(6) 0.00790(16) Uani 1 1 d . . . . .
Na1 Na 0.0000 0.0000 0.0000 0.0202(7) Uani 1 6 d S T P . .
Na2 Na 0.6667 0.3333 -0.2500 0.0141(6) Uani 1 6 d S T P . .
Na3 Na 0.6667 0.3333 0.2500 0.0500(16) Uani 1 6 d S T P . .
Na4 Na 1.01495(16) 0.68374(16) 0.08950(11) 0.0180(3) Uani 1 1 d . . . . .
O1 O 0.4427(3) 0.1719(3) 0.06573(17) 0.0160(5) Uani 1 1 d . . . . .
O2 O 0.1514(3) -0.0460(3) 0.14043(16) 0.0131(4) Uani 1 1 d . . . . .
O3 O 0.3876(3) -0.1264(3) 0.11920(16) 0.0140(4) Uani 1 1 d . . . . .
O4 O 0.4219(4) 0.0987(4) 0.2500 0.0125(6) Uani 1 2 d S T P . .
loop_
_atom_site_aniso_label
_atom_site_aniso_U_11
_atom_site_aniso_U_22
_atom_site_aniso_U_33
_atom_site_aniso_U_23
_atom_site_aniso_U_13
_atom_site_aniso_U_12
Yb1 0.00662(10) 0.00662(10) 0.00758(15) 0.000 0.000 0.00331(5)
Yb2 0.00738(9) 0.00738(9) 0.00806(13) 0.000 0.000 0.00369(5)
Si1 0.0083(3) 0.0073(3) 0.0083(4) 0.0003(3) 0.0011(3) 0.0040(3)
Na1 0.0209(10) 0.0209(10) 0.0190(16) 0.000 0.000 0.0104(5)
Na2 0.0147(9) 0.0147(9) 0.0129(14) 0.000 0.000 0.0073(5)
Na3 0.0064(10) 0.0064(10) 0.137(5) 0.000 0.000 0.0032(5)
Na4 0.0146(6) 0.0163(6) 0.0239(7) -0.0025(5) -0.0004(5) 0.0084(5)
O1 0.0172(11) 0.0160(11) 0.0146(11) 0.0052(9) 0.0049(9) 0.0081(9)
O2 0.0089(9) 0.0172(10) 0.0139(10) -0.0022(8) -0.0006(8) 0.0071(8)
O3 0.0151(10) 0.0126(10) 0.0165(11) -0.0026(8) -0.0003(9) 0.0087(9)
O4 0.0129(14) 0.0122(14) 0.0090(14) 0.000 0.000 0.0037(12)
loop_
_atom_type_symbol
_atom_type_description
_atom_type_scat_dispersion_real
_atom_type_scat_dispersion_imag
_atom_type_scat_source
O O 0.0106 0.0060 'International Tables Vol C Tables 4.2.6.8 and 6.1.1.4'
Na Na 0.0362 0.0249 'International Tables Vol C Tables 4.2.6.8 and 6.1.1.4'
Si Si 0.0817 0.0704 'International Tables Vol C Tables 4.2.6.8 and 6.1.1.4'
Yb Yb -0.3850 5.5486 'International Tables Vol C Tables 4.2.6.8 and 6.1.1.4'
loop_
_geom_angle_atom_site_label_1
_geom_angle_atom_site_label_2
_geom_angle_atom_site_label_3
_geom_angle
_geom_angle_site_symmetry_1
_geom_angle_site_symmetry_3
Si1 Yb1 Si1 126.259(6) 3 11_556
Si1 Yb1 Si1 126.259(6) 3 10_556
Si1 Yb1 Si1 50.63(3) . 10_556
Si1 Yb1 Si1 126.258(6) . 11_556
Si1 Yb1 Si1 103.044(15) 10_556 11_556
Si1 Yb1 Si1 103.045(15) . 3
Na1 Yb1 Si1 64.684(13) . .
Na1 Yb1 Si1 64.683(13) 4 11_556
Na1 Yb1 Si1 64.683(13) 4 10_556
Na1 Yb1 Si1 115.316(13) 4 .
Na1 Yb1 Si1 115.317(13) . 10_556
Na1 Yb1 Si1 115.317(13) 4 3
Na1 Yb1 Si1 115.317(13) . 11_556
Na1 Yb1 Si1 64.683(13) . 3
Na1 Yb1 Na1 180.0 . 4
O2 Yb1 Si1 116.92(6) 11_556 .
O2 Yb1 Si1 68.72(6) 10_556 .
O2 Yb1 Si1 101.28(6) 12_556 10_556
O2 Yb1 Si1 83.22(6) 2 .
O2 Yb1 Si1 101.28(6) 2 3
O2 Yb1 Si1 116.92(6) 3 11_556
O2 Yb1 Si1 116.92(6) 2 10_556
O2 Yb1 Si1 101.28(6) 10_556 11_556
O2 Yb1 Si1 116.92(6) 10_556 3
O2 Yb1 Si1 68.72(6) 2 11_556
O2 Yb1 Si1 20.98(6) 3 3
O2 Yb1 Si1 140.03(6) . 11_556
O2 Yb1 Si1 140.03(6) 11_556 3
O2 Yb1 Si1 20.98(6) 11_556 11_556
O2 Yb1 Si1 20.98(6) . .
O2 Yb1 Si1 83.21(6) 12_556 11_556
O2 Yb1 Si1 101.28(6) 3 .
O2 Yb1 Si1 68.72(6) 12_556 3
O2 Yb1 Si1 140.03(6) 3 10_556
O2 Yb1 Si1 140.03(6) 12_556 .
O2 Yb1 Si1 83.21(6) 11_556 10_556
O2 Yb1 Si1 83.22(6) . 3
O2 Yb1 Si1 68.72(6) . 10_556
O2 Yb1 Si1 20.98(6) 10_556 10_556
O2 Yb1 Na1 48.13(6) . .
O2 Yb1 Na1 48.13(6) 11_556 4
O2 Yb1 Na1 131.87(6) . 4
O2 Yb1 Na1 48.13(6) 3 .
O2 Yb1 Na1 131.87(6) 2 4
O2 Yb1 Na1 131.87(6) 11_556 .
O2 Yb1 Na1 131.87(6) 3 4
O2 Yb1 Na1 131.87(6) 10_556 .
O2 Yb1 Na1 48.13(6) 12_556 4
O2 Yb1 Na1 131.87(6) 12_556 .
O2 Yb1 Na1 48.13(6) 2 .
O2 Yb1 Na1 48.13(6) 10_556 4
O2 Yb1 O2 80.31(8) 3 2
O2 Yb1 O2 136.28(4) . 12_556
O2 Yb1 O2 80.31(8) . 2
O2 Yb1 O2 83.75(11) 11_556 2
O2 Yb1 O2 80.31(8) 11_556 12_556
O2 Yb1 O2 136.28(4) 10_556 2
O2 Yb1 O2 136.28(4) 3 10_556
O2 Yb1 O2 80.31(8) . 3
O2 Yb1 O2 83.75(11) 3 12_556
O2 Yb1 O2 136.28(4) . 11_556
O2 Yb1 O2 80.31(8) 10_556 12_556
O2 Yb1 O2 136.28(4) 3 11_556
O2 Yb1 O2 136.28(4) 12_556 2
O2 Yb1 O2 83.74(11) . 10_556
O2 Yb1 O2 80.31(8) 11_556 10_556
Na2 Yb2 Na4 72.37(3) . 7_765
Na2 Yb2 Na4 72.37(3) . 8_565
Na2 Yb2 Na4 114.32(2) . .
Na2 Yb2 Na4 72.37(3) . 9_545
Na2 Yb2 Na4 114.32(2) . 3_665
Na4 Yb2 Na4 69.70(4) 8_565 .
Na4 Yb2 Na4 172.788(19) 9_545 .
Na4 Yb2 Na4 74.28(4) 7_765 .
Na4 Yb2 Na4 69.70(4) 7_765 3_665
Na4 Yb2 Na4 172.788(19) 8_565 3_665
Na4 Yb2 Na4 111.25(2) 7_765 9_545
Na4 Yb2 Na4 111.25(2) 7_765 8_565
Na4 Yb2 Na4 74.28(4) 9_545 3_665
Na4 Yb2 Na4 104.22(3) . 3_665
Na4 Yb2 Na4 111.25(2) 9_545 8_565
O1 Yb2 Na2 121.60(6) 3_665 .
O1 Yb2 Na2 121.60(6) 2_655 .
O1 Yb2 Na2 121.60(6) . .
O1 Yb2 Na4 39.27(6) 3_665 .
O1 Yb2 Na4 66.20(6) . 3_665
O1 Yb2 Na4 50.81(7) . 9_545
O1 Yb2 Na4 122.03(7) . .
O1 Yb2 Na4 50.81(7) 2_655 7_765
O1 Yb2 Na4 113.23(6) 3_665 7_765
O1 Yb2 Na4 122.03(7) 3_665 3_665
O1 Yb2 Na4 135.52(6) . 7_765
O1 Yb2 Na4 113.23(6) . 8_565
O1 Yb2 Na4 135.52(6) 2_655 8_565
O1 Yb2 Na4 113.24(6) 2_655 9_545
O1 Yb2 Na4 50.81(7) 3_665 8_565
O1 Yb2 Na4 66.20(6) 2_655 .
O1 Yb2 Na4 39.27(6) 2_655 3_665
O1 Yb2 Na4 135.52(6) 3_665 9_545
O1 Yb2 O1 95.06(8) 2_655 3_665
O1 Yb2 O1 95.06(8) 2_655 .
O1 Yb2 O1 95.06(8) 3_665 .
O1 Yb2 O3 173.11(8) 2_655 9
O1 Yb2 O3 173.11(8) . 8_665
O1 Yb2 O3 173.11(8) 3_665 7_655
O1 Yb2 O3 90.15(8) 3_665 9
O1 Yb2 O3 88.94(8) 2_655 7_655
O1 Yb2 O3 90.15(8) . 7_655
O1 Yb2 O3 88.94(8) . 9
O1 Yb2 O3 90.15(8) 2_655 8_665
O1 Yb2 O3 88.94(8) 3_665 8_665
O3 Yb2 Na2 51.57(6) 9 .
O3 Yb2 Na2 51.57(6) 8_665 .
O3 Yb2 Na2 51.57(6) 7_655 .
O3 Yb2 Na4 46.49(6) 9 8_565
O3 Yb2 Na4 139.50(6) 9 3_665
O3 Yb2 Na4 122.81(6) 9 7_765
O3 Yb2 Na4 122.81(6) 7_655 8_565
O3 Yb2 Na4 46.49(6) 8_665 7_765
O3 Yb2 Na4 65.28(6) 8_665 8_565
O3 Yb2 Na4 64.30(6) 7_655 3_665
O3 Yb2 Na4 65.28(6) 9 9_545
O3 Yb2 Na4 122.81(6) 8_665 9_545
O3 Yb2 Na4 65.28(6) 7_655 7_765
O3 Yb2 Na4 139.50(6) 7_655 .
O3 Yb2 Na4 46.49(6) 7_655 9_545
O3 Yb2 Na4 64.30(6) 8_665 .
O3 Yb2 Na4 116.18(6) 9 .
O3 Yb2 Na4 116.18(6) 8_665 3_665
O3 Yb2 O3 85.44(9) 7_655 8_665
O3 Yb2 O3 85.44(9) 8_665 9
O3 Yb2 O3 85.44(9) 7_655 9
Na3 Si1 Yb1 104.67(2) . .
Na4 Si1 Yb1 67.80(3) 1_445 .
Na4 Si1 Yb1 165.22(4) 3_665 .
Na4 Si1 Yb1 112.92(3) 9_545 .
Na4 Si1 Yb1 68.23(3) 2_655 .
Na4 Si1 Na3 73.53(3) 3_665 .
Na4 Si1 Na3 74.81(3) 2_655 .
Na4 Si1 Na3 165.85(4) 1_445 .
Na4 Si1 Na3 118.43(3) 9_545 .
Na4 Si1 Na4 123.97(5) 2_655 3_665
Na4 Si1 Na4 79.89(4) 9_545 3_665
Na4 Si1 Na4 111.42(5) 2_655 1_445
Na4 Si1 Na4 76.29(4) 9_545 2_655
Na4 Si1 Na4 75.70(4) 9_545 1_445
Na4 Si1 Na4 110.50(5) 1_445 3_665
O1 Si1 Yb1 113.79(9) . .
O1 Si1 Na3 69.33(9) . .
O1 Si1 Na4 51.64(9) . 9_545
O1 Si1 Na4 124.37(10) . 1_445
O1 Si1 Na4 79.67(9) . 3_665
O1 Si1 Na4 46.05(9) . 2_655
O1 Si1 O4 104.43(14) . .
O2 Si1 Yb1 29.87(8) . .
O2 Si1 Na3 133.01(9) . .
O2 Si1 Na4 153.22(9) . 3_665
O2 Si1 Na4 43.01(8) . 1_445
O2 Si1 Na4 87.45(9) . 9_545
O2 Si1 Na4 74.65(9) . 2_655
O2 Si1 O1 110.57(12) . .
O2 Si1 O4 108.31(14) . .
O3 Si1 Yb1 129.84(9) . .
O3 Si1 Na3 110.00(9) . .
O3 Si1 Na4 155.53(9) . 2_655
O3 Si1 Na4 69.93(9) . 1_445
O3 Si1 Na4 42.21(8) . 3_665
O3 Si1 Na4 80.65(9) . 9_545
O3 Si1 O1 111.81(12) . .
O3 Si1 O2 112.64(12) . .
O3 Si1 O4 108.67(14) . .
O4 Si1 Yb1 79.02(11) . .
O4 Si1 Na3 37.45(10) . .
O4 Si1 Na4 128.50(10) . 1_445
O4 Si1 Na4 89.76(12) . 2_655
O4 Si1 Na4 92.02(12) . 3_665
O4 Si1 Na4 155.61(11) . 9_545
Na4 Na1 Na4 180.00(5) 9_545 3_565
Na4 Na1 Na4 180.00(7) 1_445 7_665
Na4 Na1 Na4 73.18(3) 9_545 1_445
Na4 Na1 Na4 73.18(3) 9_545 2_655
Na4 Na1 Na4 180.00(7) 2_655 8_455
Na4 Na1 Na4 106.82(3) 9_545 7_665
Na4 Na1 Na4 106.82(3) 3_565 1_445
Na4 Na1 Na4 73.18(3) 2_655 7_665
Na4 Na1 Na4 73.18(3) 8_455 1_445
Na4 Na1 Na4 73.18(3) 3_565 7_665
Na4 Na1 Na4 106.82(3) 3_565 2_655
Na4 Na1 Na4 106.82(3) 8_455 7_665
Na4 Na1 Na4 106.82(3) 9_545 8_455
Na4 Na1 Na4 73.18(3) 3_565 8_455
Na4 Na1 Na4 106.82(3) 2_655 1_445
O2 Na1 Na4 63.99(6) 8 9_545
O2 Na1 Na4 44.42(6) 7 7_665
O2 Na1 Na4 72.25(5) 8 1_445
O2 Na1 Na4 116.01(6) 2 9_545
O2 Na1 Na4 63.99(6) 7 8_455
O2 Na1 Na4 107.75(5) 7 9_545
O2 Na1 Na4 63.99(6) 3 1_445
O2 Na1 Na4 44.42(6) 9 9_545
O2 Na1 Na4 44.42(6) 8 8_455
O2 Na1 Na4 135.58(6) 3 9_545
O2 Na1 Na4 72.25(5) 3 8_455
O2 Na1 Na4 72.25(5) . 9_545
O2 Na1 Na4 135.58(6) 7 1_445
O2 Na1 Na4 116.01(6) 8 3_565
O2 Na1 Na4 107.75(5) 8 7_665
O2 Na1 Na4 63.99(6) 2 3_565
O2 Na1 Na4 116.01(6) 3 7_665
O2 Na1 Na4 72.25(5) 7 3_565
O2 Na1 Na4 135.58(6) 2 8_455
O2 Na1 Na4 135.58(6) 9 3_565
O2 Na1 Na4 107.75(5) 9 8_455
O2 Na1 Na4 44.42(6) 3 3_565
O2 Na1 Na4 116.01(6) . 8_455
O2 Na1 Na4 107.75(5) . 3_565
O2 Na1 Na4 107.75(5) 2 1_445
O2 Na1 Na4 135.58(6) 8 2_655
O2 Na1 Na4 116.01(6) 9 1_445
O2 Na1 Na4 44.42(6) 2 2_655
O2 Na1 Na4 44.42(6) . 1_445
O2 Na1 Na4 116.01(6) 7 2_655
O2 Na1 Na4 72.25(5) 2 7_665
O2 Na1 Na4 72.25(5) 9 2_655
O2 Na1 Na4 63.99(6) 9 7_665
O2 Na1 Na4 107.75(5) 3 2_655
O2 Na1 Na4 63.99(6) . 2_655
O2 Na1 Na4 135.58(6) . 7_665
O2 Na1 O2 110.69(8) 8 3
O2 Na1 O2 180.00(19) 9 3
O2 Na1 O2 69.31(8) 3 .
O2 Na1 O2 69.31(8) 2 3
O2 Na1 O2 69.31(8) 2 .
O2 Na1 O2 110.69(8) 7 3
O2 Na1 O2 110.69(8) 2 9
O2 Na1 O2 180.00(12) 8 2
O2 Na1 O2 110.69(8) 8 .
O2 Na1 O2 69.31(8) 8 7
O2 Na1 O2 110.69(8) 9 .
O2 Na1 O2 110.69(8) 2 7
O2 Na1 O2 69.31(8) 7 9
O2 Na1 O2 69.31(8) 8 9
O2 Na1 O2 180.0 7 .
Yb2 Na2 Yb2 180.0 . 10
Yb2 Na2 Na4 125.66(2) 10 7_765
Yb2 Na2 Na4 54.34(2) . 9_545
Yb2 Na2 Na4 54.34(2) 10 6_544
Yb2 Na2 Na4 125.66(2) . 4_764
Yb2 Na2 Na4 54.34(2) 10 4_764
Yb2 Na2 Na4 125.66(2) 10 9_545
Yb2 Na2 Na4 125.66(2) . 6_544
Yb2 Na2 Na4 54.34(2) . 7_765
Na4 Na2 Na4 71.32(4) 7_765 4_764
Na4 Na2 Na4 89.44(3) 7_765 9_545
Na4 Na2 Na4 89.44(3) 4_764 6_544
Na4 Na2 Na4 132.063(14) 4_764 9_545
Na4 Na2 Na4 132.063(14) 7_765 6_544
Na4 Na2 Na4 71.32(4) 6_544 9_545
O3 Na2 Yb2 44.16(5) 7_655 .
O3 Na2 Yb2 44.16(5) 9 .
O3 Na2 Yb2 135.84(5) 4_654 .
O3 Na2 Yb2 44.16(5) 8_665 .
O3 Na2 Yb2 135.84(5) 7_655 10
O3 Na2 Yb2 135.84(5) 8_665 10
O3 Na2 Yb2 44.16(5) 5_664 10
O3 Na2 Yb2 135.84(5) 5_664 .
O3 Na2 Yb2 44.16(5) 4_654 10
O3 Na2 Yb2 135.84(5) 6_554 .
O3 Na2 Yb2 135.84(5) 9 10
O3 Na2 Yb2 44.16(5) 6_554 10
O3 Na2 Na4 104.12(5) 7_655 4_764
O3 Na2 Na4 53.67(6) 4_654 4_764
O3 Na2 Na4 37.11(5) 7_655 9_545
O3 Na2 Na4 92.23(6) 8_665 4_764
O3 Na2 Na4 53.67(6) 7_655 7_765
O3 Na2 Na4 53.67(6) 9 9_545
O3 Na2 Na4 166.35(5) 5_664 9_545
O3 Na2 Na4 166.35(5) 6_554 7_765
O3 Na2 Na4 104.12(5) 4_654 7_765
O3 Na2 Na4 92.23(5) 5_664 7_765
O3 Na2 Na4 97.78(5) 9 7_765
O3 Na2 Na4 53.67(6) 6_554 6_544
O3 Na2 Na4 97.78(5) 8_665 9_545
O3 Na2 Na4 104.12(5) 9 6_544
O3 Na2 Na4 104.12(5) 6_554 9_545
O3 Na2 Na4 97.78(5) 6_554 4_764
O3 Na2 Na4 166.35(5) 9 4_764
O3 Na2 Na4 37.11(5) 5_664 4_764
O3 Na2 Na4 37.11(5) 8_665 7_765
O3 Na2 Na4 166.35(5) 8_665 6_544
O3 Na2 Na4 97.78(5) 5_664 6_544
O3 Na2 Na4 37.11(5) 4_654 6_544
O3 Na2 Na4 92.23(5) 7_655 6_544
O3 Na2 Na4 92.23(6) 4_654 9_545
O3 Na2 O3 139.23(4) 7_655 5_664
O3 Na2 O3 74.22(8) 4_654 5_664
O3 Na2 O3 139.23(4) 4_654 8_665
O3 Na2 O3 91.67(10) 8_665 5_664
O3 Na2 O3 91.67(10) 6_554 9
O3 Na2 O3 74.22(8) 4_654 6_554
O3 Na2 O3 74.22(8) 7_655 9
O3 Na2 O3 139.23(4) 7_655 6_554
O3 Na2 O3 139.23(4) 5_664 9
O3 Na2 O3 139.23(4) 8_665 6_554
O3 Na2 O3 91.67(10) 4_654 7_655
O3 Na2 O3 74.22(8) 5_664 6_554
O3 Na2 O3 74.22(8) 7_655 8_665
O3 Na2 O3 139.23(4) 4_654 9
O3 Na2 O3 74.22(8) 8_665 9
Yb2 Na3 Yb2 180.0 10_556 .
Yb2 Na3 Na4 56.09(2) . 3_665
Yb2 Na3 Na4 123.91(2) 10_556 3_665
Si1 Na3 Yb2 116.758(13) 2_655 10_556
Si1 Na3 Yb2 116.759(13) 10_556 .
Si1 Na3 Yb2 63.241(13) 2_655 .
Si1 Na3 Yb2 116.758(13) . 10_556
Si1 Na3 Yb2 63.241(13) 3_665 .
Si1 Na3 Yb2 63.241(13) 10_556 10_556
Si1 Na3 Yb2 63.242(13) . .
Si1 Na3 Yb2 63.242(13) 12_666 10_556
Si1 Na3 Yb2 116.759(13) 12_666 .
Si1 Na3 Yb2 116.759(13) 3_665 10_556
Si1 Na3 Yb2 116.759(13) 11_656 .
Si1 Na3 Yb2 63.241(13) 11_656 10_556
Si1 Na3 Si1 53.52(3) 11_656 2_655
Si1 Na3 Si1 126.967(7) 11_656 3_665
Si1 Na3 Si1 53.52(3) 12_666 3_665
Si1 Na3 Si1 101.299(16) 11_656 10_556
Si1 Na3 Si1 101.300(16) . 3_665
Si1 Na3 Si1 126.967(7) 2_655 10_556
Si1 Na3 Si1 101.299(16) 10_556 12_666
Si1 Na3 Si1 53.52(3) . 10_556
Si1 Na3 Si1 101.299(16) 2_655 3_665
Si1 Na3 Si1 126.967(7) 11_656 .
Si1 Na3 Si1 126.967(7) 10_556 3_665
Si1 Na3 Si1 101.300(16) 2_655 .
Si1 Na3 Si1 126.967(7) . 12_666
Si1 Na3 Si1 101.299(16) 11_656 12_666
Si1 Na3 Si1 126.967(7) 2_655 12_666
Si1 Na3 Na4 172.79(2) 12_666 3_665
Si1 Na3 Na4 82.45(2) 11_656 3_665
Si1 Na3 Na4 83.85(2) 10_556 3_665
Si1 Na3 Na4 50.67(2) 2_655 3_665
Si1 Na3 Na4 52.45(2) . 3_665
Si1 Na3 Na4 119.33(2) 3_665 3_665
O4 Na3 Yb2 90.0 2_655 10_556
O4 Na3 Yb2 90.0 . 10_556
O4 Na3 Yb2 90.0 3_665 10_556
O4 Na3 Yb2 90.0 3_665 .
O4 Na3 Yb2 90.0 2_655 .
O4 Na3 Yb2 90.0 . .
O4 Na3 Si1 117.65(7) . 2_655
O4 Na3 Si1 115.38(7) 3_665 11_656
O4 Na3 Si1 115.38(7) 3_665 2_655
O4 Na3 Si1 26.788(14) 2_655 2_655
O4 Na3 Si1 26.788(14) 3_665 12_666
O4 Na3 Si1 26.788(14) . 10_556
O4 Na3 Si1 26.788(14) 3_665 3_665
O4 Na3 Si1 117.65(7) 3_665 .
O4 Na3 Si1 115.38(7) . 12_666
O4 Na3 Si1 117.65(7) . 11_656
O4 Na3 Si1 115.38(7) 2_655 .
O4 Na3 Si1 117.65(7) 2_655 3_665
O4 Na3 Si1 115.38(7) . 3_665
O4 Na3 Si1 26.788(14) 2_655 11_656
O4 Na3 Si1 115.38(7) 2_655 10_556
O4 Na3 Si1 117.65(7) 2_655 12_666
O4 Na3 Si1 26.787(14) . .
O4 Na3 Si1 117.65(7) 3_665 10_556
O4 Na3 Na4 146.02(2) 3_665 3_665
O4 Na3 Na4 67.38(7) . 3_665
O4 Na3 Na4 63.60(7) 2_655 3_665
O4 Na3 O4 120.0 . 3_665
O4 Na3 O4 120.0 2_655 3_665
O4 Na3 O4 120.0 2_655 .
Yb2 Na4 Yb1 128.25(4) 7_765 1_665
Yb2 Na4 Yb1 126.03(4) . 1_665
Yb2 Na4 Yb2 105.72(4) 7_765 .
Yb2 Na4 Si1 68.47(3) 7_765 2_655
Yb2 Na4 Na1 113.07(4) 7_765 1_665
Si1 Na4 Yb1 128.32(4) 8_665 1_665
Si1 Na4 Yb1 59.92(3) 1_665 1_665
Si1 Na4 Yb1 60.23(3) 3_665 1_665
Si1 Na4 Yb1 131.16(5) 2_655 1_665
Si1 Na4 Yb2 171.53(5) 3_665 7_765
Si1 Na4 Yb2 70.64(3) 8_665 7_765
Si1 Na4 Yb2 168.34(5) 1_665 .
Si1 Na4 Yb2 69.17(3) 1_665 7_765
Si1 Na4 Yb2 65.80(3) 3_665 .
Si1 Na4 Yb2 64.87(3) 2_655 .
Si1 Na4 Yb2 64.98(3) 8_665 .
Si1 Na4 Si1 120.27(5) 1_665 2_655
Si1 Na4 Si1 104.33(5) 8_665 3_665
Si1 Na4 Si1 100.11(4) 8_665 2_655
Si1 Na4 Si1 103.37(5) 8_665 1_665
Si1 Na4 Si1 119.10(5) 3_665 1_665
Si1 Na4 Si1 106.54(5) 3_665 2_655
Si1 Na4 Na1 168.21(5) 2_655 1_665
Si1 Na4 Na1 70.35(3) 3_665 1_665
Si1 Na4 Na1 69.85(3) 1_665 1_665
Si1 Na4 Na1 70.39(3) 8_665 1_665
Na1 Na4 Yb1 57.94(2) 1_665 1_665
Na1 Na4 Yb2 104.03(4) 1_665 .
O1 Na4 Yb1 128.05(7) 8_665 1_665
O1 Na4 Yb1 89.80(7) 3_665 1_665
O1 Na4 Yb2 43.05(5) 8_665 7_765
O1 Na4 Yb2 141.72(8) 3_665 7_765
O1 Na4 Yb2 89.63(6) 8_665 .
O1 Na4 Yb2 36.43(6) 3_665 .
O1 Na4 Si1 133.62(7) 8_665 3_665
O1 Na4 Si1 79.57(6) 8_665 1_665
O1 Na4 Si1 30.61(5) 8_665 8_665
O1 Na4 Si1 90.62(7) 3_665 2_655
O1 Na4 Si1 29.87(6) 3_665 3_665
O1 Na4 Si1 96.05(7) 8_665 2_655
O1 Na4 Si1 146.04(8) 3_665 1_665
O1 Na4 Si1 82.73(7) 3_665 8_665
O1 Na4 Na1 81.42(7) 3_665 1_665
O1 Na4 Na1 79.32(6) 8_665 1_665
O1 Na4 O1 113.18(7) 3_665 8_665
O2 Na4 Yb1 34.11(6) 1_665 1_665
O2 Na4 Yb2 97.35(7) 1_665 7_765
O2 Na4 Yb2 151.82(7) 1_665 .
O2 Na4 Si1 90.74(7) 1_665 3_665
O2 Na4 Si1 109.42(8) 1_665 8_665
O2 Na4 Si1 28.65(6) 1_665 1_665
O2 Na4 Si1 140.84(8) 1_665 2_655
O2 Na4 Na1 50.90(6) 1_665 1_665
O2 Na4 O1 96.60(9) 1_665 8_665
O2 Na4 O1 117.61(9) 1_665 3_665
O2 Na4 O3 120.36(9) 1_665 2_655
O3 Na4 Yb1 129.98(8) 2_655 1_665
O3 Na4 Yb2 43.70(6) 2_655 7_765
O3 Na4 Yb2 87.74(7) 2_655 .
O3 Na4 Si1 94.77(7) 2_655 1_665
O3 Na4 Si1 27.64(6) 2_655 2_655
O3 Na4 Si1 97.65(7) 2_655 8_665
O3 Na4 Si1 132.89(8) 2_655 3_665
O3 Na4 Na1 156.68(8) 2_655 1_665
O3 Na4 O1 80.73(9) 2_655 8_665
O3 Na4 O1 117.80(9) 2_655 3_665
Yb2 O1 Na4 86.14(8) . 9_545
Yb2 O1 Na4 104.29(10) . 2_655
Si1 O1 Yb2 148.72(14) . .
Si1 O1 Na4 97.75(11) . 9_545
Si1 O1 Na4 104.09(11) . 2_655
Na4 O1 Na4 107.28(10) 2_655 9_545
Yb1 O2 Na1 90.83(7) . .
Yb1 O2 Na4 110.90(10) . 1_445
Si1 O2 Yb1 129.16(12) . .
Si1 O2 Na1 124.04(12) . .
Si1 O2 Na4 108.34(12) . 1_445
Na4 O2 Na1 84.68(8) 1_445 .
Yb2 O3 Na2 84.27(7) 7_655 7_655
Yb2 O3 Na4 89.81(8) 7_655 3_665
Si1 O3 Yb2 143.31(13) . 7_655
Si1 O3 Na2 118.75(12) . 7_655
Si1 O3 Na4 110.14(12) . 3_665
Na4 O3 Na2 102.63(9) 3_665 7_655
Si1 O4 Si1 128.2(2) . 10_556
Si1 O4 Na3 115.76(10) . .
Si1 O4 Na3 115.76(10) 10_556 .
loop_
_geom_bond_atom_site_label_1
_geom_bond_atom_site_label_2
_geom_bond_distance
_geom_bond_site_symmetry_2
Yb1 Si1 3.5068(8) .
Yb1 Si1 3.5069(8) 11_556
Yb1 Si1 3.5069(8) 3
Yb1 Si1 3.5069(8) 10_556
Yb1 Na1 3.42967(10) .
Yb1 Na1 3.42967(10) 4
Yb1 O2 2.252(2) 3
Yb1 O2 2.252(2) .
Yb1 O2 2.252(2) 11_556
Yb1 O2 2.252(2) 12_556
Yb1 O2 2.252(2) 10_556
Yb1 O2 2.252(2) 2
Yb2 Na2 3.1771(2) .
Yb2 Na4 3.2199(13) 7_765
Yb2 Na4 3.2199(13) 8_565
Yb2 Na4 3.5949(13) 3_665
Yb2 Na4 3.2199(13) 9_545
Yb2 Na4 3.5948(13) .
Yb2 O1 2.203(2) 3_665
Yb2 O1 2.203(2) .
Yb2 O1 2.203(2) 2_655
Yb2 O3 2.225(2) 8_665
Yb2 O3 2.225(2) 9
Yb2 O3 2.225(2) 7_655
Si1 Na3 3.3307(8) .
Si1 Na4 3.2053(15) 1_445
Si1 Na4 3.2632(15) 3_665
Si1 Na4 3.1637(15) 2_655
Si1 Na4 3.1608(16) 9_545
Si1 O1 1.624(2) .
Si1 O2 1.619(2) .
Si1 O3 1.613(2) .
Si1 O4 1.6668(16) .
Na1 Na4 3.2768(13) 1_445
Na1 Na4 3.2768(13) 8_455
Na1 Na4 3.2768(13) 7_665
Na1 Na4 3.2768(13) 9_545
Na1 Na4 3.2768(13) 3_565
Na1 Na4 3.2768(13) 2_655
Na1 O2 2.554(2) 8
Na1 O2 2.554(2) 3
Na1 O2 2.554(2) 9
Na1 O2 2.554(2) 2
Na1 O2 2.554(2) 7
Na1 O2 2.554(2) .
Na2 Yb2 3.1771(2) 10
Na2 Na4 3.7769(13) 9_545
Na2 Na4 3.7769(13) 6_544
Na2 Na4 3.7768(13) 7_765
Na2 Na4 3.7768(13) 4_764
Na2 O3 2.501(2) 5_664
Na2 O3 2.501(2) 6_554
Na2 O3 2.501(2) 7_655
Na2 O3 2.501(2) 4_654
Na2 O3 2.501(2) 8_665
Na2 O3 2.501(2) 9
Na3 Yb2 3.6823(2) 10_556
Na3 Si1 3.3308(8) 3_665
Na3 Si1 3.3308(8) 2_655
Na3 Si1 3.3308(8) 11_656
Na3 Si1 3.3308(8) 12_666
Na3 Si1 3.3308(8) 10_556
Na3 Na4 3.9471(14) 3_665
Na3 O4 2.249(3) 2_655
Na3 O4 2.249(3) .
Na3 O4 2.249(3) 3_665
Na4 Yb1 3.7521(13) 1_665
Na4 Yb2 3.2199(13) 7_765
Na4 Si1 3.2631(15) 2_655
Na4 Si1 3.1607(16) 8_665
Na4 Si1 3.1638(15) 3_665
Na4 Si1 3.2053(15) 1_665
Na4 Na1 3.2768(13) 1_665
Na4 O1 2.348(3) 3_665
Na4 O1 2.501(3) 8_665
Na4 O2 2.303(3) 1_665
Na4 O3 2.335(3) 2_655
O1 Na4 2.501(3) 9_545
O1 Na4 2.348(3) 2_655
O2 Na4 2.303(3) 1_445
O3 Yb2 2.225(2) 7_655
O3 Na2 2.501(2) 7_655
O3 Na4 2.335(3) 3_665
O4 Si1 1.6668(16) 10_556
