#------------------------------------------------------------------------------
#$Date: 2021-03-18 12:14:30 +0200 (Thu, 18 Mar 2021) $
#$Revision: 263115 $
#$URL: file:///home/coder/svn-repositories/cod/cif/1/56/11/1561108.cif $
#------------------------------------------------------------------------------
#
# This file is available in the Crystallography Open Database (COD),
# http://www.crystallography.net/
#
# All data on this site have been placed in the public domain by the
# contributors.
#
data_1561108
loop_
_publ_author_name
'Gro\'n, T.'
'Tomaszewicz, E.'
'Berkowski, M.'
'G\/lowacki, M.'
'Oboz, M.'
'Kusz, J.'
'Sawicki, B.'
'Kuku\/la, Z.'
'Duda, H.'
_publ_section_title
;
 Yb3+-doped cadmium molybdato-tungstate single crystal -- Its structural,
 optical, magnetic and transport properties
;
_journal_name_full               'Journal of Solid State Chemistry'
_journal_page_first              164
_journal_page_last               171
_journal_paper_doi               10.1016/j.jssc.2018.03.014
_journal_volume                  262
_journal_year                    2018
_chemical_formula_sum            'Cd3.88 Mo3.88 O16 W0.12 Yb0.08'
_chemical_formula_weight         1100.26
_space_group_crystal_system      tetragonal
_space_group_IT_number           88
_space_group_name_Hall           '-I 4ad'
_space_group_name_H-M_alt        'I 41/a :2'
_atom_sites_solution_hydrogens   .
_cell_angle_alpha                90
_cell_angle_beta                 90
_cell_angle_gamma                90
_cell_formula_units_Z            1
_cell_length_a                   5.15539(12)
_cell_length_b                   5.15539(12)
_cell_length_c                   11.1920(4)
_cell_measurement_reflns_used    1514
_cell_measurement_temperature    293(1)
_cell_measurement_theta_max      40.5420
_cell_measurement_theta_min      4.3160
_cell_volume                     297.461(14)
_computing_cell_refinement       'CrysAlisPro 1.171.38.41q (Rigaku OD, 2015)'
_computing_data_collection       'CrysAlisPro 1.171.38.41q (Rigaku OD, 2015)'
_computing_data_reduction        'CrysAlisPro 1.171.38.41q (Rigaku OD, 2015)'
_computing_structure_refinement  'SHELXL-2014/6 (Sheldrick, 2014)'
_diffrn_ambient_temperature      293(2)
_diffrn_detector                 'CCD plate'
_diffrn_detector_area_resol_mean 10.4498
_diffrn_detector_type            Atlas
_diffrn_measured_fraction_theta_full 1.000
_diffrn_measured_fraction_theta_max 0.979
_diffrn_measurement_device       'four-circle diffractometer'
_diffrn_measurement_device_type  'SuperNova, Dual, Cu at zero, Atlas'
_diffrn_radiation_monochromator  mirror
_diffrn_radiation_probe          x-ray
_diffrn_radiation_type           MoK\a
_diffrn_radiation_wavelength     0.71073
_diffrn_reflns_av_R_equivalents  0.0165
_diffrn_reflns_av_unetI/netI     0.0083
_diffrn_reflns_Laue_measured_fraction_full 1.000
_diffrn_reflns_Laue_measured_fraction_max 0.979
_diffrn_reflns_limit_h_max       8
_diffrn_reflns_limit_h_min       -9
_diffrn_reflns_limit_k_max       9
_diffrn_reflns_limit_k_min       -7
_diffrn_reflns_limit_l_max       20
_diffrn_reflns_limit_l_min       -20
_diffrn_reflns_number            2678
_diffrn_reflns_point_group_measured_fraction_full 1.000
_diffrn_reflns_point_group_measured_fraction_max 0.979
_diffrn_reflns_theta_full        25.242
_diffrn_reflns_theta_max         40.624
_diffrn_reflns_theta_min         4.352
_diffrn_source                   'micro-focus sealed X-ray tube'
_diffrn_source_type              'SuperNova (Mo) X-ray Source'
_exptl_absorpt_coefficient_mu    12.620
_exptl_absorpt_correction_T_max  1.00000
_exptl_absorpt_correction_T_min  0.62884
_exptl_absorpt_correction_type   multi-scan
_exptl_absorpt_process_details
;
CrysAlisPro 1.171.38.41q (Rigaku Oxford Diffraction, 2015)
Empirical absorption correction using spherical harmonics,
 implemented in SCALE3 ABSPACK scaling algorithm.
;
_exptl_crystal_density_diffrn    6.142
_exptl_crystal_F_000             492
_exptl_crystal_size_max          0.1
_exptl_crystal_size_mid          0.1
_exptl_crystal_size_min          0.1
_refine_diff_density_max         0.758
_refine_diff_density_min         -1.625
_refine_diff_density_rms         0.288
_refine_ls_extinction_coef       0.069(2)
_refine_ls_extinction_expression Fc^*^=kFc[1+0.001xFc^2^\l^3^/sin(2\q)]^-1/4^
_refine_ls_extinction_method     SHELXL
_refine_ls_goodness_of_fit_ref   1.166
_refine_ls_hydrogen_treatment    undef
_refine_ls_matrix_type           full
_refine_ls_number_parameters     15
_refine_ls_number_reflns         474
_refine_ls_number_restraints     0
_refine_ls_restrained_S_all      1.166
_refine_ls_R_factor_all          0.0183
_refine_ls_R_factor_gt           0.0175
_refine_ls_shift/su_max          0.000
_refine_ls_shift/su_mean         0.000
_refine_ls_structure_factor_coef Fsqd
_refine_ls_weighting_details
'w=1/[\s^2^(Fo^2^)+(0.0288P)^2^+0.0996P] where P=(Fo^2^+2Fc^2^)/3'
_refine_ls_weighting_scheme      calc
_refine_ls_wR_factor_gt          0.0534
_refine_ls_wR_factor_ref         0.0551
_reflns_Friedel_coverage         0.000
_reflns_Friedel_fraction_full    .
_reflns_Friedel_fraction_max     .
_reflns_number_gt                440
_reflns_number_total             474
_reflns_threshold_expression     'I > 2\s(I)'
_cod_data_source_file            JSSC-2018-262-164.cif
_cod_data_source_block           1
_cod_original_cell_volume        297.461(17)
_cod_original_sg_symbol_H-M      'I 41/a'
_cod_database_code               1561108
_shelx_space_group_comment
;
The symmetry employed for this shelxl refinement is uniquely defined
by the following loop, which should always be used as a source of
symmetry information in preference to the above space-group names.
They are only intended as comments.
;
_shelxl_version_number           2014/6
_shelx_res_file
;
TITL TGron16_Yb01Cd99WMoO in I4(1)/a
REM I4(1)/a (#88 in standard setting)
CELL 0.71073   5.155392   5.155392  11.191969  90.0000  90.0000  90.0000
ZERR    1.00   0.000121   0.000121   0.000393   0.0000   0.0000   0.0000

LATT   2
SYMM     0.75000 - Y ,    0.25000 + X ,    0.25000 + Z
SYMM     0.50000 - X ,            - Y ,    0.50000 + Z
SYMM     0.75000 + Y ,    0.75000 - X ,    0.75000 + Z

SFAC Mo  O   Cd   Yb  W
UNIT  3.88   16   3.88   0.08   0.12
L.S. 30
rem FMAP 2
rem PLAN -20
ACTA
EXYZ Cd Yb
EADP Cd Yb
EXYZ Mo W
EADP Mo W
rem damp 1000
rem WGHT    0.026300    0.066600
rem WGHT    0.028200    0.103400
WGHT    0.028800    0.099600
EXTI    0.068867
FVAR       5.68846
CD    3    0.000000    0.250000    0.125000    10.24265    0.00852    0.00852 =
         0.00774    0.00000    0.00000    0.00000
YB    4    0.000000    0.250000    0.125000    10.00490    0.00852    0.00852 =
         0.00774    0.00000    0.00000    0.00000
O     2    0.155999   -0.005370    0.288757    11.00000    0.01164    0.01219 =
         0.01192    0.00209   -0.00089   -0.00122
MO    1    0.000000    0.250000    0.625000    10.24265    0.00650    0.00650 =
         0.00955    0.00000    0.00000    0.00000
W     5    0.000000    0.250000    0.625000    10.00735    0.00650    0.00650 =
         0.00955    0.00000    0.00000    0.00000
HKLF 4

REM  TGron16_Yb01Cd99WMoO in I4(1)/a
REM R1 =  0.0175 for     440 Fo > 4sig(Fo)  and  0.0183 for all     474 data
REM     15 parameters refined using      0 restraints

END

WGHT      0.0287      0.0976

REM Highest difference peak  0.758,  deepest hole -1.625,  1-sigma level  0.288
Q1    1   0.0000  0.2500  0.0378  10.50000  0.05    0.76
Q2    1   0.1655 -0.1526  0.3311  11.00000  0.05    0.54
Q3    1   0.0000  0.2500  0.5373  10.50000  0.05    0.54
Q4    1  -0.0398  0.1349  0.3723  11.00000  0.05    0.41
Q5    1   0.1146  0.2020  0.3697  11.00000  0.05    0.39
Q6    1  -0.0870  0.4312  0.0931  11.00000  0.05    0.39
Q7    1   0.1859  0.1681  0.3309  11.00000  0.05    0.38
Q8    1   0.3126 -0.1638  0.3535  11.00000  0.05    0.37
Q9    1   0.2660  0.1102  0.3167  11.00000  0.05    0.33
Q10   1   0.1411  0.1721  0.4043  11.00000  0.05    0.33
Q11   1   0.1773  0.3196  0.0806  11.00000  0.05    0.33
Q12   1   0.1156  0.0789  0.3721  11.00000  0.05    0.32
Q13   1   0.2361 -0.1225  0.2082  11.00000  0.05    0.30
Q14   1   0.2231  0.3827  0.1214  11.00000  0.05    0.29
Q15   1  -0.0190  0.0315  0.2613  11.00000  0.05    0.28
Q16   1   0.3134 -0.0178  0.3513  11.00000  0.05    0.27
Q17   1   0.1740  0.0309  0.3588  11.00000  0.05    0.26
Q18   1  -0.2009  0.1922  0.5794  11.00000  0.05    0.25
Q19   1   0.2634  0.1073  0.2066  11.00000  0.05    0.24
Q20   1  -0.0159 -0.0438  0.2872  11.00000  0.05    0.24
;
_shelx_res_checksum              81806
_shelx_hkl_file
;
   0   0  -2 6.97830 5.82577   1
   0   0  -4 628044. 1975.06   1
   0   0  -4 620537. 2147.79   2
   0   0  -6 39.2967 22.1399   2
   0   0   8 676912. 2945.99   4
   0   0  -8 645205. 3224.04   2
   0   0  10 19.8871 9.20659   4
   0   0 -10 3.08039 10.1225   2
   0   0  12 685409. 3763.49   4
   0   0 -12 657452. 4116.83   2
   0   0  14-4.97302 28.5004   4
   0   0 -14-5.06262 30.5322   2
   0   0  16 213181. 2554.93   4
   0   0 -16 210348. 2850.56   2
   0   0 -18 10.8524 13.5602   2
   0   0  18-19.5500 32.8836   4
   0   0  20 123002. 2260.85   4
   0   0 -20 130436. 2581.45   2
  -1   0  -1 2153.49 100.119   2
   1   0  -1 2361.02 74.5736   1
   0   1  -1 2553.80 102.262   1
   0   1   1 2235.35 95.2257   4
  -1   0   1 2359.93 90.2881   3
   0   1  -1 2036.99 87.3046   4
   1   0   3 77.1295 14.7192   4
   0   1  -3 93.9396 25.8686   2
   0  -1  -3 104.795 20.7307   2
   1   0  -3 91.5340 18.2376   1
  -1   0  -3 99.1373 25.8894   2
  -1   0   3 79.6614 19.7910   3
   0   1  -3 98.0653 24.5788   1
   1   0  -5 41491.4 520.380   1
  -1   0   5 43500.0 552.955   3
   0   1  -5 42599.3 667.701   2
   0   1   5 41368.5 603.255   4
   0   1  -5 41799.5 621.476   1
   0  -1  -5 41422.1 575.968   2
   1   0   5 42750.6 504.343   4
  -1   0  -5 40480.3 652.843   2
  -1   0  -7 26663.3 617.859   2
   0  -1  -7 26584.0 574.482   2
  -1   0   7 24273.2 494.001   3
   1   0  -7 26182.6 510.860   1
   0   1  -7 26744.0 631.796   2
   0   1   7 26594.0 575.763   4
   0   1  -7 26903.4 594.712   1
   1   0   7 24896.9 491.213   4
  -1   0   9 314.805 62.4093   3
   0   1  -9 360.170 77.7574   1
   0   1  -9 354.294 81.8103   2
  -1   0  -9 293.877 71.0355   2
   0   1   9 333.227 73.7106   4
   1   0   9 404.499 71.2853   4
   0   1 -11 1115.09 166.068   2
  -1   0  11 1058.36 150.878   4
  -1   0 -11 1082.10 165.305   2
   0  -1 -11 1135.64 155.144   2
   1   0  11 1057.68 135.669   4
   1   0 -11 1015.29 152.879   2
   0   1  11 1075.93 147.170   4
   0   1 -13 2033.73 251.235   2
   1   0  13 2062.08 209.804   4
   0   1  13 2034.70 222.782   4
   0  -1  13 2023.77 213.409   4
   0  -1 -13 2052.67 236.321   2
   1   0 -13 2052.62 241.337   2
  -1   0 -13 2115.53 250.042   2
  -1   0  13 1982.58 224.809   4
   0   1  15 1095.58 178.179   4
   0   1 -15 1049.03 196.027   2
   1   0  15 1127.87 169.725   4
  -1   0 -15 1088.69 197.845   2
   1   0 -15 1103.29 201.698   2
   0  -1 -15 1065.07 184.873   2
  -1   0  15 1008.31 172.419   4
   0  -1  15 1602.90 211.636   4
   0  -1 -17 4185.79 405.456   2
   0  -1  17 4080.39 364.194   4
   0   1 -17 4230.03 436.926   2
  -1   0 -17 4233.12 421.475   2
   1   0  17 4157.86 358.583   4
  -1   0  17 3901.65 380.359   4
   1   0 -17 4245.63 426.832   2
   0   1  17 4632.04 404.992   4
   0  -1  19 3478.85 362.015   4
  -1   0  19 3481.42 376.397   4
   0   1 -19 3868.21 446.551   2
   0  -1 -19 3601.29 401.824   2
   1   0 -19 3857.74 435.598   2
  -1   0 -19 3822.90 435.715   2
   0   1  19 3498.25 373.475   4
   1   1   0 23.9544 13.1599   1
  -1   1   0 50.2718 18.5833   4
  -1   1   0 4.41082 2.13631   1
   1   1   0 8.36736 8.66374   4
  -1   1   0 41.3797 11.9560   3
  -1   1   0 13.3156 7.92390   2
  -1   1   2 774822. 2039.83   4
  -1   1  -2 786292. 1618.06   3
   1   1  -2 786422. 2252.70   1
  -1   1  -2 781205. 2114.06   1
  -1  -1  -2 822284. 1939.99   2
   1   1   2 778321. 2073.43   4
  -1   1   2 808292. 2151.90   3
  -1   1  -2 747283. 2336.60   2
  -1  -1   4 95623.2 670.065   3
  -1   1  -4 89953.8 930.426   2
  -1   1  -4 94254.4 899.397   1
  -1  -1  -4 90527.1 817.410   2
   1   1  -4 93213.9 865.079   1
  -1   1   4 91631.8 886.971   4
   1   1   4 87026.1 778.724   4
  -1   1   4 93704.2 873.870   3
  -1   1   6 761389. 3041.09   4
  -1   1  -6 748672. 3192.70   2
  -1  -1   6 776964. 2217.24   3
  -1   1   6 727471. 2851.74   3
  -1  -1  -6 751466. 2920.01   2
  -1   1  -6 755932. 3046.16   1
   1   1  -6 765843. 2905.74   1
   1   1   6 776650. 2737.74   4
  -1   1  -8 35840.2 754.266   1
  -1   1   8 34819.2 689.476   3
   1   1  -8 36261.7 720.728   1
   1   1   8 34958.1 683.724   4
  -1  -1  -8 36986.6 762.135   2
  -1   1  -8 36767.6 817.032   2
  -1  -1   8 35608.4 586.556   3
  -1   1   8 35017.3 748.999   4
  -1   1 -10 621734. 3820.09   2
   1   1 -10 605514. 3295.37   1
   1   1 -10 632134. 3831.25   2
   1  -1 -10 576607. 3334.04   2
   1  -1  10 602520. 2942.08   4
   1   1  10 640482. 3327.67   4
  -1  -1 -10 610183. 3530.62   2
  -1   1  10 637568. 3542.47   4
   1   1 -12 697.185 126.755   1
  -1   1  12 678.233 127.870   4
   1  -1 -12 684.572 125.382   2
   1  -1  12 659.090 108.619   4
   1   1  12 599.621 116.540   4
  -1   1 -12 625.226 131.603   2
   1   1 -12 661.287 133.156   2
  -1  -1 -12 895.874 150.214   2
   1   1  14 364532. 3093.76   4
  -1   1  14 369598. 3304.66   4
   1  -1 -14 354896. 3265.23   2
  -1  -1  14 370853. 3250.03   4
  -1   1 -14 365538. 3565.35   2
   1  -1  14 362996. 2823.93   4
   1   1 -14 365119. 3553.75   2
  -1  -1 -14 367854. 3391.06   2
   1   1  16 2475.73 276.454   4
   1   1 -16 2650.19 329.582   2
  -1   1 -16 2688.80 330.434   2
  -1   1  16 2479.85 294.581   4
   1  -1  16 2596.37 262.411   4
  -1  -1 -16 2654.92 313.282   2
   1  -1 -16 2612.10 312.100   2
  -1  -1  16 2496.08 287.038   4
  -1  -1 -18 189432. 2899.39   2
  -1  -1  18 187853. 2697.73   4
  -1   1 -18 190921. 3085.49   2
   1  -1 -18 188488. 2847.35   2
   1   1  18 187141. 2565.49   4
  -1   1  18 187301. 2772.87   4
   1   1 -18 193772. 3122.49   2
  -1   1  20 2235.88 315.967   4
  -1   1 -20 2640.39 381.822   2
   1  -1 -20 2460.30 343.319   2
  -1  -1  20 2378.98 322.816   4
   1   1 -20 2708.64 385.141   2
  -1  -1 -20 2459.21 347.901   2
  -2   1   1 6284.10 233.601   2
  -2   1  -1 6323.96 115.090   4
  -2   1   1 6462.68 181.873   4
  -2   1   1 6538.32 221.604   3
   1   2   1 5721.53 227.021   4
   1   2  -1 6590.20 252.479   1
   1   2   1 6628.32 259.061   1
  -2   1  -1 6670.97 214.062   3
  -2   1  -1 6288.34 243.941   2
  -1  -2   3 83739.3 543.879   3
   1   2  -3 90349.2 1007.82   1
  -2   1  -3 86723.9 831.991   3
   1   2   3 85981.1 939.179   4
  -1  -2  -3 89033.0 650.933   2
  -2   1  -3 89031.8 1032.68   2
  -2   1   3 88054.9 909.186   3
  -2   1   3 88161.6 877.560   4
   1   2  -5 911.710 107.255   1
  -1  -2  -5 872.750 82.7880   2
  -2   1  -5 912.580 115.968   2
   1   2   5 830.065 97.2211   4
  -1  -2   5 841.086 56.7849   3
   2  -1   5 978.012 55.7580   4
  -2   1   5 849.046 103.177   4
  -2   1   5 883.029 101.772   3
  -1  -2  -7 92.1936 33.9647   2
  -2   1   7 125.040 41.8859   3
  -2   1  -7 120.622 49.6854   2
   1   2   7 122.463 40.4564   4
   2  -1   7 215.947 37.9164   4
  -1  -2   7 115.451 24.8969   3
   1   2  -7 110.404 44.2725   1
  -2   1   9 24455.2 700.951   4
   1   2   9 23401.5 647.768   4
   2  -1   9 23490.9 488.906   4
  -1  -2  -9 25208.0 653.450   2
  -2   1  -9 23684.5 748.794   2
  -2   1   9 24017.7 658.292   3
   1   2  -9 25490.4 765.649   2
   1   2  -9 25096.8 703.765   1
   1   2  11 121.690 50.9659   4
  -2   1 -11 155.635 70.2594   2
   1   2 -11 158.269 62.1887   1
  -2   1  11 68.1350 26.5634   3
  -1  -2 -11 127.428 52.9140   2
   2  -1  11 121.916 42.0415   4
   1   2 -11 128.535 54.2539   2
  -2   1  11 135.336 54.0000   4
   1   2 -13 119.292 56.7381   1
   1   2 -13 143.055 72.7598   2
  -1  -2 -13 130.889 55.2387   2
   1   2  13 144.997 56.9694   4
  -2   1 -13 216.824 87.2423   2
  -2   1  13 193.131 73.4538   4
   2  -1 -13 132.209 60.2033   2
   2  -1  13 104.556 35.2987   4
  -2   1 -15 9010.86 614.596   2
  -2   1  15 8785.72 564.563   4
   1   2 -15 9105.12 617.120   2
  -1  -2 -15 9222.50 549.133   2
   2  -1 -15 9152.83 569.798   2
   1   2  15 8726.83 533.861   4
  -2   1 -17 1861.30 301.687   2
   1   2  17 1745.67 252.822   4
  -1  -2  17 1710.56 251.903   4
   2  -1 -17 1650.74 269.109   2
   1   2 -17 1750.29 290.631   2
  -2   1  17 1687.01 264.304   4
  -1  -2 -17 1742.19 255.307   2
  -2   1  19 363.823 126.467   4
   2  -1 -19 372.722 132.773   2
  -1  -2  19 317.580 109.465   4
  -2   1 -19 470.430 159.707   2
   1   2 -19 461.364 155.663   2
   1   2  19 314.069 107.090   4
  -2   0   0 612150. 2270.79   2
   0   2   0 619509. 1199.52   2
   2   0  -2 17352.5 291.181   1
  -2   0  -2 15702.4 386.107   2
   0   2  -2 15572.3 345.074   4
   0   2  -2 17471.8 383.867   1
   0   2  -2 17399.2 322.756   2
   0   2   2 17301.7 361.942   1
   0   2   2 15970.0 368.426   4
  -2   0   2 16338.2 347.008   3
   0   2   4 951389. 3112.56   4
  -2   0  -4 846438. 3189.01   2
   0   2  -4 886347. 3052.72   2
   2   0  -4 892158. 2213.97   1
   0   2  -4 911152. 3132.11   1
   0  -2  -4 885984. 2070.50   2
  -2   0   4 914180. 2854.40   3
   2   0   4 896666. 1852.50   4
   0  -2  -6 125.956 37.0687   2
   2   0   6 126.310 27.6040   4
  -2   0   6 120.605 36.7640   3
   0   2  -6 65.2519 32.0386   2
   0   2   6 70.5290 30.7103   4
   0   2  -6 80.7961 29.8544   1
   2   0  -6 59.1102 21.1371   1
  -2   0  -8 745808. 3821.40   2
   0   2   8 800476. 3689.41   4
   2   0  -8 732588. 2831.88   1
   0  -2  -8 738170. 3196.83   2
   0   2  -8 779923. 3866.27   2
  -2   0   8 726991. 3163.36   3
   0   2  -8 741845. 3637.95   1
   2   0   8 748353. 2712.31   4
   0   2 -10 1813.54 201.246   1
  -2   0 -10 1900.28 216.210   2
   0   2  10 1682.82 192.152   4
  -2   0  10 1742.21 172.965   3
   2   0  10 1797.31 156.852   4
   2   0 -10 1954.22 175.536   1
   0  -2 -10 1874.83 184.021   2
   0   2 -10 1908.93 219.443   2
  -2   0 -12 381180. 3397.03   2
   2   0  12 382045. 2618.68   4
   0   2  12 389423. 3208.15   4
  -2   0  12 393994. 3285.98   4
   0   2 -12 386069. 3251.20   1
   0   2 -12 381505. 3431.38   2
   0   2  14 984.572 169.916   4
  -2   0 -14 1053.78 197.220   2
   2   0  14 998.469 145.945   4
   0  -2 -14 1099.75 174.395   2
   0   2 -14 1065.25 194.394   2
  -2   0  14 1014.72 177.497   4
   2   0 -14 992.162 186.891   2
   2   0 -16 303831. 3570.61   2
   0   2 -16 303224. 3660.65   2
  -2   0 -16 305805. 3650.29   2
   0   2  16 297655. 3304.74   4
   0  -2 -16 303263. 3211.49   2
   0  -2  16 293367. 3010.69   4
  -2   0  16 302289. 3325.21   4
   0   2  18 17.7923 11.4161   4
   0   2 -18 141.322 91.7825   2
  -2   0  18 35.4456 30.6931   4
   0  -2  18 56.2218 38.6035   4
   2   0 -18 87.4280 54.9263   2
   0  -2 -18 47.2700 35.9730   2
   2   1   1 96990.1 852.275   4
  -2  -1   1 97276.1 871.790   3
  -1   2   1 103802. 688.004   1
  -1   2  -1 102768. 810.921   1
  -1   2  -1 108451. 692.815   3
  -1   2  -1 98350.2 802.798   4
  -1   2   1 98688.7 851.981   4
   2   1  -1 100633. 951.332   1
  -1   2  -1 99590.6 837.978   2
  -2  -1  -1 102495. 930.392   2
  -1   2   1 107405. 840.824   3
  -1   2   1 104091. 675.481   2
  -1   2  -3 213.915 23.3977   3
  -2  -1   3 148.770 34.9480   3
  -1   2   3 310.342 53.1273   4
  -1   2   3 245.618 34.4978   1
  -1   2  -3 125.379 34.6839   2
  -1   2  -3 155.592 38.4124   1
  -2  -1  -3 137.233 35.9308   2
   2   1   3 186.895 35.9719   4
   2   1  -3 189.880 43.0035   1
  -1   2   3 149.607 37.4387   3
   2   1  -5 2859.45 172.032   1
  -1   2  -5 2639.27 80.4657   3
  -1   2   5 3137.09 193.072   3
  -2  -1   5 2773.05 157.019   3
  -1   2  -5 2905.13 188.069   1
  -1   2   5 2778.61 182.213   4
  -1   2  -5 2543.55 185.787   2
  -2  -1  -5 2960.52 188.403   2
   2   1   5 2746.00 151.521   4
  -1   2   7 187.551 55.1789   3
   2   1   7 244.868 50.8004   4
  -2  -1  -7 186.277 55.0445   2
  -1   2  -7 303.700 74.9356   2
  -1   2   7 191.361 55.2520   4
  -1   2  -7 213.024 58.2802   1
  -2  -1   7 184.551 44.4280   3
   2   1  -9 1786.89 168.746   1
  -1   2   9 1731.80 184.185   4
  -2  -1   9 1599.04 145.031   3
   2   1   9 2353.93 183.431   4
  -1   2  -9 1767.95 190.058   1
  -1   2  -9 1509.52 183.543   2
  -2  -1  -9 1626.83 184.779   2
  -2  -1 -11 17043.4 663.979   2
   2   1 -11 16134.5 568.636   1
  -1   2 -11 15941.3 675.555   2
  -1   2 -11 16381.0 651.788   1
   2   1  11 15757.4 540.935   4
  -1   2  11 15539.7 616.832   4
   1  -2 -11 15572.5 562.793   2
  -2  -1  11 16174.6 520.608   3
  -1   2  13 10328.1 554.632   4
   2   1 -13 10842.2 615.212   2
   2   1  13 11003.9 498.491   4
  -1   2 -13 10956.4 606.956   2
   2   1 -13 10981.5 534.312   1
  -2  -1 -13 10946.1 589.306   2
   1  -2  13 10503.6 459.816   4
   1  -2 -13 10735.4 517.480   2
   2   1  15 311.254 88.8403   4
  -2  -1  15 300.219 98.0651   4
  -1   2  15 308.532 99.4282   4
  -2  -1 -15 412.903 120.966   2
   1  -2 -15 306.059 96.0602   2
  -1   2 -15 257.891 98.7185   2
   1  -2  15 352.249 90.7354   4
   2   1 -15 276.029 102.023   2
   2   1 -17 16.4165 33.6015   2
  -2  -1 -17 28.5209 31.6813   2
  -1   2  17 48.6720 39.5159   4
   1  -2 -17 7.93822 8.64216   2
  -2  -1  17 24.4648 36.8451   4
  -1   2 -17 38.9596 39.3874   2
   2   1 -19 791.531 206.621   2
  -1   2 -19 852.235 217.076   2
  -1   2  19 1114.51 223.141   4
  -2  -1  19 699.051 176.105   4
  -2  -1 -19 687.119 177.966   2
   1  -2 -19 716.707 176.256   2
   2   2   0 929887. 3237.58   4
   2   2   0 924880. 3430.02   1
  -2   2   0 931418. 2958.28   2
  -2  -2  -2 625.623 70.7202   2
  -2   2   2 681.125 33.7613   1
  -2  -2   2 609.920 72.3496   3
  -2   2   2 635.319 78.8970   3
  -2   2   2 579.452 70.2871   4
  -2   2  -2 587.517 54.9816   4
   2   2  -2 642.940 90.4661   1
  -2   2  -2 696.758 78.6212   1
  -2   2  -2 544.730 81.9046   2
   2   2   2 517.579 76.0250   4
  -2   2  -4 728871. 2997.49   1
  -2   2  -4 709444. 2185.24   3
   2   2   4 732903. 2947.50   4
  -2   2   4 752609. 3071.42   3
  -2   2   4 740591. 2951.27   4
  -2  -2   4 767607. 2446.15   3
   2   2  -4 708926. 3152.21   1
  -2  -2  -4 752369. 2678.38   2
  -2   2  -4 747880. 3402.55   2
   2   2   6 16.4081 17.4175   4
   2   2  -6 30.5958 22.0760   1
  -2   2   6 5.26412 9.29084   3
  -2  -2  -6 38.9435 21.4990   2
  -2   2  -6 45.7389 21.0708   3
  -2  -2   6 15.9560 12.3249   3
  -2   2   6-3.21241 10.7237   4
  -2   2   8 610465. 3403.50   3
  -2  -2   8 613849. 2448.67   3
  -2   2  -8 607459. 2476.82   3
  -2   2   8 603318. 3442.99   4
  -2   2  -8 618106. 3773.34   2
   2   2  -8 609651. 3365.20   1
  -2  -2  -8 604030. 3132.78   2
   2   2 -10 57.1262 37.8903   1
  -2   2 -10 78.7647 49.1830   2
  -2  -2  10 58.4494 29.4814   3
  -2  -2 -10 163.654 57.0672   2
  -2   2  10 18.9893 3.19227   3
   2  -2  10 119.248 35.4910   4
  -2   2 -10 57.4735 27.7963   3
  -2   2  10-0.65919 22.7564   4
   2   2 -12 498474. 4118.37   2
  -2   2  12 485867. 3801.27   4
   2  -2  12 465881. 2622.12   4
   2   2  12 487503. 3477.48   4
   2   2 -12 504422. 3732.51   1
  -2   2 -12 483123. 4076.42   2
  -2  -2 -12 502099. 3697.64   2
   2  -2 -14 42.2646 31.5056   2
   2   2 -14 35.9068 37.1108   1
  -2   2 -14 53.6511 41.0269   2
  -2  -2 -14 66.1105 46.7758   2
   2   2 -14 44.8325 44.0862   2
   2   2  14 45.8637 34.6253   4
  -2   2  14-4.16936 28.5957   4
  -2   2 -16 223026. 3294.30   2
   2   2 -16 225583. 3304.40   2
   2  -2 -16 220024. 2883.28   2
  -2   2  16 222195. 3068.88   4
  -2  -2 -16 225966. 2927.63   2
   2   2  16 223889. 2730.26   4
  -2   2 -18 147.379 82.6988   2
  -2  -2 -18-29.8372 63.6319   2
   2   2 -18-3.99666 37.7650   2
   2  -2 -18-2.81068 42.8909   2
  -2  -2  18 32.4153 28.1496   4
  -3   2  -1 10288.8 392.946   2
  -3   2  -1 10619.8 348.404   3
   2   3   1 10239.7 407.273   1
   2   3  -1 9325.88 362.551   4
  -3   2   1 10327.2 374.906   2
  -3   2   1 9972.81 287.833   4
  -3   2   1 9905.04 343.769   3
  -3   2  -1 10306.0 231.569   4
   2   3   1 9846.42 379.622   4
   2   3  -1 10442.3 415.682   1
  -3   2  -3 4025.90 268.777   2
  -2  -3  -3 3890.48 162.160   2
  -3   2  -3 3835.93 206.534   3
   2   3  -3 4176.19 276.524   1
   2   3   3 3952.92 247.656   4
  -2  -3   3 4056.97 192.405   3
  -3   2   3 3901.36 213.075   4
  -3   2   3 4163.52 242.222   3
  -3   2  -5 36226.2 853.681   2
  -3   2   5 35067.6 739.666   4
  -3   2   5 36302.7 771.432   3
   2   3  -5 36021.1 835.319   1
  -2  -3   5 36292.8 532.872   3
  -3   2  -5 34528.8 638.138   3
   2   3   5 35872.4 783.466   4
  -2  -3  -5 34543.4 555.199   2
   2   3  -7 21752.3 679.072   1
  -3   2   7 21598.4 661.345   4
  -2  -3  -7 20701.4 476.099   2
  -2  -3   7 21593.2 390.202   3
  -3   2  -7 20471.4 694.885   2
   2   3   7 21531.2 632.776   4
  -3   2   7 21262.1 643.600   3
  -3   2  -7 21477.5 543.669   3
  -2  -3  -9 469.475 85.2642   2
   2   3   9 519.263 103.366   4
  -3   2  -9 550.702 92.9130   3
  -3   2   9 834.017 140.284   3
  -3   2   9 506.753 109.498   4
  -3   2  -9 468.828 107.824   2
   2   3  -9 518.005 112.100   1
   2   3 -11 1830.10 250.637   2
  -3   2  11 1769.64 222.686   3
   2   3 -11 1761.58 225.157   1
   2   3  11 1940.35 223.804   4
  -3   2 -11 1692.80 241.228   2
  -2  -3 -11 1752.77 188.814   2
  -3   2  11 2153.91 254.887   4
  -2  -3 -13 279.641 84.2279   2
  -3   2  13 273.409 97.5624   4
   2   3  13 205.325 80.4061   4
  -3   2 -13 241.466 102.431   2
   2   3 -13 243.545 97.3424   2
   2   3 -13 196.596 80.3047   1
   2   3 -15 3266.48 362.961   1
   2   3  15 3252.46 339.747   4
   2   3 -15 3430.94 401.173   2
  -3   2  15 3099.51 360.020   4
   3  -2 -15 3290.06 354.558   2
   3  -2 -17 7173.31 550.441   2
   2   3  17 7899.66 560.778   4
   2   3 -17 8022.07 674.781   2
  -3   2 -17 8132.39 666.233   2
  -3   2  17 7902.20 625.130   4
  -3   1   0 61.8405 26.4691   2
   1   3   0 50.9165 23.1608   1
  -3   1   0-0.24874 9.70106   3
  -3   1   0 16.6172 10.7515   4
  -3   1  -2 783720. 3038.34   3
   1   3  -2 818112. 3505.07   1
  -3   1  -2 828095. 3476.98   2
   3  -1  -2 836210. 1690.18   1
   1   3   2 879950. 3447.07   4
   1   3   2 818526. 3373.46   1
  -3   1   2 834529. 3157.44   3
   1   3  -2 862673. 3277.04   4
  -3   1  -4 4266.63 244.487   3
   1   3   4 4384.68 254.706   4
  -1  -3  -4 4735.11 134.963   2
  -3   1  -4 4360.15 271.328   2
  -3   1   4 4191.57 238.871   3
  -1  -3   4 4236.03 121.350   3
  -3   1   4 4346.06 235.076   4
   1   3  -4 4353.98 263.837   1
  -3   1   6 606792. 3216.66   4
  -3   1  -6 573240. 3137.86   3
  -3   1   6 591916. 3127.87   3
  -3   1  -6 618507. 3525.61   2
  -1  -3  -6 604592. 2094.50   2
   1   3  -6 587584. 3284.67   1
   1   3   6 604632. 3135.43   4
  -3   1   8 2652.53 229.580   3
  -3   1   8 2651.66 236.650   4
   1   3  -8 2550.43 241.193   2
  -3   1  -8 2428.69 239.623   2
  -1  -3  -8 3376.56 200.352   2
   1   3  -8 2581.20 235.498   1
   1   3   8 2323.22 213.265   4
   1   3  10 562935. 3699.37   4
  -1  -3 -10 579472. 3183.06   2
  -3   1  10 570303. 3884.94   4
  -3   1 -10 562845. 4075.07   2
   1   3 -10 578002. 4036.59   2
   1   3 -10 559081. 3822.96   1
  -3   1  10 566563. 3672.85   3
  -3   1  12 124.535 56.3008   3
  -3   1 -12 76.9135 48.8770   2
   1   3 -12 136.486 69.2024   2
   1   3  12 117.587 58.1973   4
   1   3 -12 105.915 50.3361   1
  -3   1  12 70.8576 38.3493   4
  -1  -3 -12 148.792 53.8849   2
   1   3 -14 339399. 3785.82   2
   1   3  14 340362. 3443.00   4
  -3   1 -14 337167. 3771.84   2
  -1  -3 -14 347554. 3081.60   2
  -3   1  14 341069. 3558.90   4
   1   3 -14 336766. 3559.33   1
  -3   1 -16 236.679 95.3073   2
  -3   1  16 267.588 102.961   4
   3  -1 -16 249.732 95.6104   2
   1   3 -16 357.878 125.012   2
  -3   1 -18 146542. 2786.60   2
  -3   1  18 148108. 2686.51   4
   1   3  18 134477. 2369.28   4
   3  -1 -18 147799. 2678.37   2
  -1  -3  18 139607. 2409.24   4
   1   3 -18 152290. 2924.95   2
  -3   0  -1 16728.6 471.474   2
  -3   0   1 16653.8 431.424   3
   0   3  -1 18636.9 478.729   1
   0   3   1 16975.0 436.607   1
  -3   0  -1 17825.1 481.003   3
   0   3  -1 15891.9 438.979   4
   0   3   1 16852.2 457.674   4
   0   3  -1 17630.5 314.205   2
   0   3  -3 25181.1 584.577   1
  -3   0  -3 24336.5 609.628   3
   0   3  -3 25240.0 501.543   2
   0   3   3 23577.3 521.198   1
  -3   0   3 22915.2 520.496   3
   0   3   3 23747.0 560.408   4
   3   0  -3 25151.8 417.985   1
  -3   0  -3 23268.3 586.399   2
   0   3  -5 4658.98 265.193   2
  -3   0   5 4266.79 239.429   3
   0  -3  -5 4429.82 142.251   2
   0   3   5 4070.33 246.064   4
   3   0   5 4256.84 139.832   4
   3   0  -5 4710.47 183.553   1
  -3   0  -5 4222.89 263.823   2
   0   3  -5 4526.94 268.271   1
   0   3   7 2182.45 199.573   4
  -3   0  -7 2273.52 213.875   2
   0   3  -7 2372.96 215.777   2
   3   0   7 2324.26 123.096   4
   3   0  -7 2377.95 145.777   1
   0   3  -7 2391.21 214.632   1
  -3   0   7 2567.45 204.516   3
   0  -3  -7 2528.56 151.566   2
  -3   0   9 13590.7 510.432   3
  -3   0  -9 12740.7 561.574   2
   0   3  -9 13296.9 574.538   2
   0  -3  -9 13373.9 427.977   2
   3   0  -9 13594.4 411.273   1
   3   0   9 12193.9 332.704   4
   0   3   9 12808.9 529.032   4
   0   3  -9 13169.7 556.689   1
   0   3 -11 6377.43 444.472   2
   0   3 -11 6363.87 432.287   1
  -3   0 -11 6342.22 439.666   2
   0   3  11 6031.51 403.486   4
   0  -3 -11 6366.23 340.575   2
  -3   0  11 6591.05 386.267   3
   0   3 -13 2452.25 293.811   1
  -3   0 -13 2308.12 288.017   2
  -3   0  13 2266.14 238.753   3
   0   3  13 2353.11 274.780   4
   0  -3 -13 2249.76 228.662   2
   0   3 -13 2264.51 290.243   2
   3   0 -15 3260.16 371.232   2
  -3   0  15 3066.52 341.952   4
   0   3  15 3075.32 340.160   4
   0   3 -15 3127.40 369.671   2
  -3   0 -15 3340.48 377.871   2
  -3   0 -17-0.71021 63.3631   2
   0   3  17 6.16824 28.0918   4
  -3   0  17 60.4825 50.0362   4
   0   3 -19 199.488 95.8528   2
  -3   0 -19 165.724 96.2317   2
   3   0 -19 134.781 75.1690   2
   0   3  19 235.641 98.1026   4
  -3   0  19 179.161 93.1804   4
  -1   3   0 4.50316 5.70708   4
  -1   3   0 9.64535 9.91131   1
  -1   3   0 10.5165 5.36176   2
  -3  -1   0-4.30346 12.2873   3
  -1   3  -2 746911. 2814.39   2
  -3  -1   2 753150. 2923.24   3
  -1   3   2 794428. 3084.90   4
  -1   3  -2 774791. 2895.19   4
   3   1  -2 725116. 2963.61   1
  -3  -1  -2 723124. 3132.60   2
  -1   3   2 736197. 2810.69   3
  -1   3  -2 768846. 1946.22   3
  -1   3  -2 745511. 2843.77   1
   3   1   4 5247.64 224.769   4
   3   1  -4 5142.92 251.099   1
  -1   3   4 4784.95 259.926   4
  -3  -1   4 4945.94 242.593   3
  -3  -1  -4 5055.79 271.614   2
  -1   3  -4 5054.84 262.307   1
  -1   3   4 4894.03 204.371   1
  -1   3  -4 4634.06 252.070   2
  -1   3   4 5125.27 263.004   3
  -3  -1  -6 786211. 3647.40   2
   3   1  -6 799335. 3173.49   1
  -3  -1   6 810993. 3331.76   3
  -1   3  -6 801398. 3781.47   2
   3   1   6 784757. 2812.05   4
  -1   3  -6 827434. 3745.82   1
  -1   3  -8 3089.83 258.790   1
   3   1   8 2986.11 188.615   4
   1  -3  -8 3010.84 192.154   2
   3   1  -8 3110.37 216.579   1
  -1   3   8 3369.16 265.245   4
  -1   3  -8 3021.31 257.530   2
  -3  -1  -8 3095.10 247.765   2
  -3  -1   8 3136.63 226.113   3
  -3  -1  10 447717. 2872.22   3
  -1   3 -10 450655. 3426.54   1
  -1   3 -10 455481. 3587.29   2
   3   1 -10 459158. 2875.16   1
  -3  -1 -10 456286. 3392.64   2
  -1   3  10 455045. 3452.34   4
   3   1 -12 132.613 52.8360   1
  -1   3 -12 145.359 64.7410   1
  -1   3 -12 124.690 63.1828   2
   3   1  12 310.130 76.0930   4
   1  -3 -12 210.240 68.5604   2
  -1   3  12 113.923 53.5946   4
  -3  -1  12 195.566 65.3555   3
  -3  -1 -12 107.834 48.5998   2
   1  -3 -14 301394. 2810.32   2
  -1   3  14 301515. 3325.90   4
  -3  -1 -14 310606. 3407.43   2
  -1   3 -14 303170. 3550.85   2
  -3  -1 -16 193.545 71.2327   2
   3   1 -16 289.379 116.703   2
  -1   3  16 306.872 109.983   4
  -3  -1  16 240.200 93.9590   4
   3   1 -18 201478. 3307.70   2
  -1   3  18 195196. 3033.43   4
  -1   3 -18 204762. 3426.91   2
  -3  -1  18 197427. 3030.81   4
  -2   3   1 21391.5 374.003   1
  -2   3  -1 21216.1 430.744   3
  -2   3   1 20596.7 436.914   2
   3   2  -1 20347.6 550.224   1
  -3  -2   1 20385.0 540.262   3
  -2   3  -1 19649.0 449.911   4
  -2   3  -1 19155.4 486.869   2
  -2   3   1 19677.9 466.416   4
  -2   3   1 21309.0 487.491   3
  -2   3  -1 21252.0 452.127   1
  -2   3   3 11545.1 389.714   3
  -2   3  -3 10315.1 402.086   2
  -2   3   3 11767.1 222.576   1
  -2   3  -3 11747.3 289.907   3
   3   2  -3 11268.7 427.525   1
   3   2   3 11270.5 386.692   4
  -2   3   3 10770.9 383.292   4
  -2   3  -3 10939.9 308.099   4
  -3  -2  -3 11764.5 398.526   2
  -2   3  -3 11579.9 384.187   1
  -3  -2   3 10208.7 347.710   3
  -3  -2  -5 13794.8 443.905   2
  -2   3  -5 14385.0 275.475   3
  -3  -2   5 13877.9 425.027   3
  -2   3  -5 15436.3 505.796   1
   3   2  -5 14969.1 507.352   1
  -2   3   5 13389.2 217.445   1
  -2   3  -5 13874.5 510.970   2
  -2   3   5 15270.2 503.524   3
  -2   3   5 14092.8 478.378   4
   3   2   5 14097.7 443.507   4
   3   2  -7 15362.2 530.802   1
  -3  -2   7 15330.4 458.986   3
  -2   3  -7 15378.6 549.933   1
  -2   3  -7 14500.8 576.447   2
  -3  -2  -7 14838.2 493.456   2
  -2   3   7 14551.1 539.497   4
   3   2   7 14675.6 479.418   4
  -2   3   7 14846.2 543.377   3
   3   2   9 3249.14 240.965   4
  -3  -2   9 3411.17 223.218   3
  -2   3   9 3096.37 276.162   4
  -2   3  -9 3332.18 304.566   2
  -3  -2  -9 3251.82 257.979   2
  -2   3  -9 3425.24 290.236   1
   3   2  -9 3434.76 268.978   1
  -2   3   9 3445.02 285.972   3
  -2   3 -11 4284.74 383.918   2
   3   2  11 4076.67 292.251   4
  -2   3  11 3741.97 336.546   4
   3   2 -11 3859.18 310.612   1
  -3  -2 -11 3784.82 309.862   2
  -3  -2  11 3678.60 248.131   3
  -2   3 -13 6868.72 534.660   2
   2  -3 -13 6975.60 421.460   2
   3   2 -13 7207.28 469.972   1
  -2   3  13 6991.24 497.443   4
   3   2  13 7171.94 420.468   4
  -3  -2 -13 7233.28 475.311   2
   3   2 -15 227.510 92.1053   2
   3   2 -15 242.361 87.6851   1
  -2   3 -15 282.043 116.866   2
   2  -3 -15 264.738 89.1349   2
  -3  -2 -15 281.597 99.3101   2
  -2   3  15 382.010 126.123   4
   3   2 -17 3108.55 419.163   2
  -3  -2 -17 2830.05 333.931   2
  -2   3  17 2808.22 368.830   4
  -2   3 -17 2732.32 391.326   2
  -3  -2  17 2680.93 348.079   4
  -3   3   0 37.9357 17.8857   2
  -3   3   0 35.9941 21.2934   4
  -3   3   2 698449. 3209.98   3
  -3   3  -2 694424. 2846.58   3
   3   3  -2 694478. 3736.03   1
  -3   3  -2 750396. 2511.69   4
   3   3   2 715161. 3468.43   4
  -3   3  -2 710203. 3571.36   2
  -3   3  -2 694358. 2982.94   1
   3   3   2 682804. 3779.41   1
  -3   3   2 747459. 3130.11   4
  -3  -3   2 754147. 3311.52   3
  -3   3   4 1278.51 147.270   3
  -3   3  -4 1211.10 160.813   2
  -3   3  -4 1449.19 154.294   1
   3   3  -4 1237.09 162.338   1
  -3   3  -4 1186.63 111.167   3
  -3  -3  -4 1205.70 121.717   2
  -3  -3   4 1155.24 122.096   3
  -3   3   4 1218.30 138.563   4
   3   3   4 1235.25 149.364   4
  -3  -3   6 581163. 2718.74   3
  -3   3  -6 559061. 2342.71   3
   3   3   6 573738. 3344.57   4
  -3  -3  -6 548331. 2756.32   2
  -3   3   6 566610. 3373.54   4
  -3   3   6 567163. 3375.28   3
   3   3  -6 563799. 3644.24   1
  -3   3  -6 572124. 3646.36   2
   3   3  -8 648.398 127.097   1
  -3  -3   8 686.893 91.3965   3
  -3   3  -8 612.574 130.006   2
  -3   3   8 522.386 112.888   4
  -3   3   8 607.651 120.179   3
  -3  -3  -8 545.301 93.0146   2
   3   3   8 539.926 108.928   4
  -3   3  10 435161. 3627.64   4
  -3   3 -10 432403. 3817.98   2
   3   3 -10 429045. 3500.79   1
  -3  -3 -10 429694. 2943.64   2
  -3   3  10 432387. 3498.75   3
  -3  -3 -12 48.9572 37.6631   2
  -3   3 -12 48.8432 41.3721   2
   3   3 -12 95.3465 56.0559   1
   3   3  12 30.3649 31.5477   4
  -3   3  12 106.471 59.5199   4
   3   3 -14 261623. 3506.22   2
   3  -3 -14 263262. 2940.46   2
   3   3  14 267813. 2927.67   4
   3   3 -14 272279. 3233.34   1
  -3   3 -14 263446. 3537.48   2
  -3   3  14 265921. 3365.28   4
   3   3 -16 323.202 113.894   1
   3   3 -16 130.439 72.4571   2
  -3   3  16 113.032 67.8314   4
  -3   3 -16 43.9573 68.4418   2
  -3   3 -18 147887. 2945.33   2
   3   3 -18 145070. 2947.70   2
  -3   3  18 147286. 2829.14   4
  -4   3  -1 118.955 30.6417   4
   3   4  -1 137.601 54.8983   1
  -4   3  -1 129.284 52.3046   2
  -4   3   1 102.857 40.6330   3
  -3  -4   1 155.629 52.6114   3
  -4   3   1 130.934 38.2611   4
   3   4   1 192.160 67.8565   1
   3   4   1 97.7627 39.8949   4
   3   4   3 17625.6 617.478   4
  -4   3   3 17481.4 590.605   3
   3   4  -3 18849.5 702.730   1
  -4   3   3 16828.4 515.160   4
  -3  -4   3 17328.7 507.568   3
  -4   3  -3 17499.9 530.541   3
  -4   3  -3 17121.2 650.477   2
   3   4   3 17592.8 672.847   1
  -3  -4   5 199.445 49.7898   3
  -4   3   5 220.061 67.7043   4
  -4   3   5 228.854 69.2436   3
   3   4  -5 220.572 75.6093   1
  -4   3  -5 190.678 65.6249   2
   3   4   5 180.017 60.0140   4
  -4   3  -5 238.082 60.7525   3
   3   4  -7 957.754 164.908   1
   3   4   7 946.120 154.104   4
  -4   3  -7 1009.35 123.394   3
  -4   3   7 992.616 157.181   3
  -4   3  -7 918.134 164.204   2
  -4   3   7 970.861 159.169   4
   3   4   9 10297.4 534.380   4
  -4   3   9 10113.6 568.021   4
  -4   3  -9 10237.5 582.888   2
   3   4  -9 10948.8 603.282   1
  -4   3   9 10314.8 553.418   3
  -4   3 -11 720.367 160.577   2
  -4   3  11 330.235 103.353   3
   3   4 -11 374.360 107.432   1
   3   4  11 332.039 101.115   4
  -4   3  11 331.043 112.069   4
   3   4 -13 21.5879 18.1536   1
  -4   3  13 58.8584 56.5957   3
   3   4 -13 92.5021 66.4150   2
  -4   3 -13 58.4289 36.2744   2
   3   4  13 43.8592 37.5784   4
  -4   3  13 104.320 58.9969   4
   3   4 -15 5745.93 538.316   2
  -4   3  15 6109.83 557.996   4
  -4   3 -15 5556.16 540.627   2
   3   4 -15 5797.52 523.044   1
   3   4  15 5663.27 475.271   4
   3   4 -17 484.084 152.444   1
   3   4 -17 538.236 169.655   2
  -4   3  17 570.033 177.125   4
  -4   3 -17 650.252 188.028   2
  -4   2   0 729763. 3707.94   2
   2   4   0 716316. 3622.94   4
  -4   2   0 723919. 2238.89   4
  -4   2   0 708684. 3414.84   3
   2   4   0 710863. 3819.09   1
  -4   2   2 6105.98 323.325   3
  -4   2  -2 6968.28 379.154   2
  -4   2   2 6015.10 259.665   4
   2   4   2 5845.91 344.483   4
   2   4  -2 6301.49 378.600   1
   2   4   2 5769.25 339.155   1
  -4   2  -2 6286.27 321.877   3
  -4   2  -4 627760. 3883.14   2
   2   4   4 613338. 3615.81   4
   2   4   4 580277. 3654.41   1
  -2  -4   4 621795. 2300.69   3
  -4   2   4 605966. 3440.67   3
   2   4  -4 584051. 3748.90   1
  -4   2  -4 583227. 3171.00   3
  -4   2   4 574629. 3051.59   4
  -4   2  -6 44.8861 32.9734   2
   2   4   6 970.897 147.113   4
  -4   2  -6 42.5430 23.6667   3
  -4   2   6 60.4730 32.8625   3
   2   4  -6 46.9609 28.9407   1
  -4   2   6 1009.19 142.692   4
  -4   2   8 474560. 3466.97   3
  -4   2  -8 470869. 3073.02   3
  -4   2  -8 472681. 3702.13   2
  -4   2   8 475926. 3535.82   4
   2   4   8 483153. 3474.29   4
   2   4  -8 471985. 3688.39   1
  -4   2  10 2408.45 267.798   3
   2   4 -10 2195.75 264.773   2
  -4   2 -10 2274.36 274.196   2
  -4   2  10 2301.25 268.497   4
  -4   2 -10 2238.95 218.609   3
   2   4  10 2369.12 260.483   4
   2   4 -10 2276.93 271.639   1
   2   4 -12 343912. 3714.38   2
   2   4  12 345992. 3454.14   4
  -4   2  12 352841. 3646.38   4
   2   4 -12 346020. 3595.33   1
  -4   2 -12 344990. 3676.48   2
  -4   2  12 351810. 3505.57   3
   2   4 -14 1313.74 238.924   1
  -4   2  14 1210.27 230.735   4
   2   4  14 1289.72 223.605   4
  -4   2 -14 1260.30 240.813   2
   2   4 -14 1373.32 260.659   2
  -4   2  14 1373.08 233.267   3
   2   4 -16 183894. 3172.50   2
   4  -2 -16 179134. 2880.10   2
   2   4 -16 181464. 2958.93   1
   2   4  16 179538. 2802.65   4
  -4   2 -16 188202. 3173.71   2
  -4   2  16 188242. 3113.72   4
  -4   1  -1 11568.3 214.078   4
   1   4  -1 12603.2 300.164   2
  -4   1   1 12011.0 439.494   3
  -4   1  -1 12081.0 445.367   3
  -4   1   1 12172.5 330.935   4
   1   4  -1 12234.5 486.320   1
  -4   1  -1 12040.9 470.446   2
   1   4   1 12445.4 467.254   1
   1   4   1 11595.5 460.023   4
   1   4  -1 11142.7 433.905   4
   1   4   3 3541.26 256.735   4
   1   4   3 3450.93 246.517   1
  -4   1   3 3564.15 242.829   3
   1   4  -3 3600.82 210.279   2
   1   4  -3 3795.76 276.702   1
  -1  -4   3 3411.62 147.031   3
   4  -1  -3 3367.21 112.027   1
  -4   1  -3 3569.36 252.254   3
  -4   1  -3 3492.29 266.763   2
  -4   1   3 3502.56 221.840   4
  -4   1   5 5976.65 335.957   3
   1   4  -5 6243.48 331.892   2
   1   4   5 6029.71 350.734   4
   1   4   5 6101.01 351.213   1
  -4   1  -5 6486.33 367.784   3
   1   4  -5 6387.54 374.916   1
  -4   1  -5 6476.32 384.515   2
  -4   1   5 6150.99 333.344   4
  -4   1   7 7968.23 414.153   3
  -4   1   7 7773.56 424.062   4
   1   4  -7 7909.33 427.917   2
  -4   1  -7 7624.79 427.948   3
  -4   1  -7 7631.48 442.150   2
   1   4   7 6990.48 397.639   4
   1   4  -7 7984.15 447.287   1
  -4   1   9 750.128 134.064   3
   1   4  -9 835.485 152.034   2
  -4   1  -9 834.029 148.275   3
   1   4   9 833.162 147.982   4
  -4   1   9 881.972 153.442   4
   1   4  -9 850.139 152.242   1
  -4   1  11 2859.64 292.884   3
  -4   1 -11 2901.70 282.121   3
   1   4 -11 2980.12 322.961   2
   1   4 -11 2726.76 298.324   1
  -4   1 -11 2847.56 311.486   2
  -4   1  11 2800.95 302.497   4
   1   4 -13 5859.13 497.360   2
   1   4  13 5338.59 445.292   4
   1   4 -13 5787.66 482.580   1
  -4   1 -13 5504.80 472.090   2
  -4   1  13 5591.46 465.360   4
  -4   1  13 5595.75 435.305   3
  -4   1 -15 84.7143 35.8508   2
   1   4 -15 45.8394 61.1445   1
   1   4  15 8.45179 18.8059   4
  -4   1  15 1.25970 40.0475   4
   1   4 -17 1617.17 298.381   2
   1   4  17 1653.55 272.257   4
   4  -1 -17 1980.39 316.352   2
  -4   1  17 1654.11 290.884   4
  -4   1 -17 1689.93 295.696   2
  -4   0   0 754185. 3738.40   2
  -4   0   0 751487. 3494.42   3
  -4   0   2 28108.8 665.041   3
   0   4  -2 29362.3 679.959   4
   0   4  -2 30861.4 718.745   1
   0   4   2 28430.0 705.710   4
  -4   0  -2 30562.2 776.011   3
  -4   0  -2 29141.0 735.805   2
   0   4   2 29462.4 675.013   1
   0   4  -2 28456.4 516.052   2
   4   0  -2 28101.5 542.318   1
   0   4  -4 645530. 3439.58   1
  -4   0   4 640062. 3301.55   3
  -4   0  -4 627555. 3708.26   3
   4   0  -4 626548. 2395.38   1
  -4   0  -4 632779. 3545.53   2
   0   4   4 633637. 3115.65   1
   0   4  -6 231.081 68.6709   2
   0   4   6 290.201 73.6974   1
   0   4   6 261.596 73.6568   4
  -4   0   6 244.956 67.1422   3
  -4   0  -6 273.050 78.8457   3
  -4   0  -6 236.877 70.9699   2
   0   4  -6 222.438 67.8572   1
   4   0  -6 260.521 47.0186   1
   0   4   8 518589. 3494.85   4
  -4   0  -8 521327. 3698.81   2
   0   4  -8 530909. 3690.67   1
  -4   0   8 535380. 3448.66   3
   0   4  -8 537729. 3753.99   2
  -4   0  10 7300.07 434.325   3
   0   4 -10 6692.99 459.969   2
   0   4  10 6832.67 445.611   4
   0   4 -10 7028.25 459.142   1
  -4   0 -10 7109.13 457.724   2
   0   4 -12 381693. 3803.06   2
   0   4 -12 373876. 3725.53   1
   0   4  12 382085. 3630.39   4
  -4   0 -12 377838. 3689.91   2
  -4   0  12 387673. 3736.24   4
  -4   0  12 376739. 3357.09   3
   0   4 -14 5998.89 504.201   1
  -4   0  14 5724.94 485.569   4
   0   4  14 5752.65 478.558   4
  -4   0 -14 5640.69 487.255   2
  -4   0  14 5828.43 432.449   3
   0   4 -14 6079.69 525.085   2
   0   4  16 199650. 3034.46   4
  -4   0 -16 199291. 3116.78   2
  -4   0  16 198079. 3078.03   4
   0   4 -16 202936. 3309.16   2
  -4   0 -18 378.771 131.961   2
   0   4 -18 245.243 114.900   2
   4   0 -18 253.042 113.942   2
   0   4  18 254.082 116.370   4
  -4   0  18 223.338 105.928   4
  -1   4  -1 1483.23 141.727   1
   4   1  -1 1506.92 151.282   1
  -4  -1   1 1490.71 160.380   3
  -1   4   1 1517.87 136.845   1
  -4  -1  -1 1438.29 168.524   3
  -4  -1  -1 1586.21 175.827   2
  -1   4   1 1417.45 151.479   4
  -1   4  -1 1512.78 112.809   2
  -1   4  -1 1423.91 149.724   4
  -1   4  -3 5003.74 268.342   2
  -4  -1   3 4714.50 276.868   3
  -1   4   3 5091.90 299.548   4
  -4  -1  -3 5151.18 337.384   3
  -1   4  -3 4985.96 276.390   4
  -4  -1  -3 5944.03 331.339   2
   4   1  -3 5051.24 271.485   1
  -1   4  -3 5211.71 288.394   1
  -1   4   3 5001.55 248.164   1
  -4  -1   5 11330.5 445.518   3
   4   1  -5 11616.0 410.767   1
  -1   4  -5 11058.6 452.871   1
  -4  -1  -5 10872.9 459.214   2
  -1   4   5 10670.9 454.353   4
  -1   4   5 10815.2 371.449   1
  -1   4  -5 11119.1 462.089   2
   4   1  -7 6769.90 316.218   1
  -1   4   7 7140.79 317.119   1
  -4  -1   7 7011.73 367.416   3
   4   1   7 6522.85 256.183   4
  -4  -1  -7 6609.84 379.544   2
  -1   4   7 6427.46 382.578   4
  -1   4  -7 6834.72 392.411   1
  -1   4  -7 7100.18 406.809   2
  -4  -1   9 2215.03 217.946   3
  -1   4   9 1892.48 182.447   1
  -1   4   9 1677.84 214.951   4
   4   1  -9 1864.11 175.663   1
  -1   4  -9 1798.73 222.953   1
  -1   4  -9 1764.66 227.064   2
  -1   4  11 85.9773 49.8838   4
  -4  -1 -11 118.127 63.6875   2
  -4  -1  11 139.692 56.1646   3
  -1   4 -11 100.533 55.3848   2
  -1   4 -11 77.7453 52.0013   1
   4   1 -11 109.696 46.4525   1
  -4  -1 -13 8.82975 14.4617   2
  -1   4 -13 66.3181 61.9192   1
  -1   4 -13 38.0648 16.2427   2
  -1   4  13 30.1415 25.1155   4
  -1   4  15 2307.13 322.380   4
  -4  -1 -15 2486.64 327.836   2
  -4  -1  15 2630.24 345.345   4
  -1   4 -15 2377.50 346.325   2
   4   1 -17 5015.71 535.087   2
  -1   4  17 4203.43 457.288   4
  -4  -1 -17 4359.26 450.877   2
  -4  -1  17 3944.30 433.971   4
  -1   4 -17 4308.43 504.893   2
   4   2   0 706924. 3699.79   1
  -2   4   0 731978. 2755.41   2
  -4  -2   0 751878. 3962.53   3
  -2   4   0 743645. 3334.89   4
  -2   4   0 714052. 2855.53   1
  -2   4   0 733986. 3051.98   3
  -2   4   2 13067.1 341.589   1
  -4  -2   2 12238.4 469.779   3
  -4  -2  -2 12912.9 495.139   2
  -2   4  -2 12740.0 431.435   4
  -2   4  -2 12538.7 434.239   2
  -4  -2  -2 12347.9 531.468   3
   4   2  -2 11964.8 470.383   1
  -2   4   2 12438.6 452.878   4
  -2   4  -2 13554.6 438.631   1
  -2   4   2 13712.4 458.384   3
  -2   4  -2 14124.1 367.677   3
   4   2   4 631135. 3160.28   4
  -2   4   4 611238. 2137.04   1
  -4  -2   4 618379. 3215.70   3
  -2   4   4 614906. 3411.05   4
   4   2  -4 571556. 3416.11   1
  -4  -2  -4 578552. 3274.20   2
  -2   4  -4 622589. 3276.61   1
  -2   4  -4 578900. 3388.78   2
  -2   4   4 624987. 3330.38   3
  -2   4  -4 611772. 1916.26   3
  -4  -2   6 232.408 63.8963   3
   4   2  -6 224.244 69.1633   1
  -4  -2  -6 406.823 89.4580   2
  -2   4  -6 220.208 74.3560   2
   4   2   6 249.555 62.3381   4
  -2   4  -6 185.790 60.3856   1
  -2   4   6 167.136 57.3001   4
   4   2  -8 470662. 3179.88   1
   4   2   8 462712. 2813.83   4
  -4  -2   8 478307. 3106.48   3
  -4  -2  -8 464300. 3202.04   2
  -2   4  -8 474060. 3493.18   1
  -2   4   8 480148. 3547.97   4
  -2   4  -8 458454. 3650.43   2
  -4  -2  10 3032.56 251.130   3
  -4  -2 -10 3046.15 283.549   2
  -2   4  10 2651.52 289.699   4
  -2   4 -10 2855.89 293.955   1
   4   2 -10 2935.76 264.817   1
  -2   4 -10 2891.70 318.653   2
  -2   4 -12 346555. 3565.40   1
  -4  -2 -12 348432. 3331.98   2
   4   2 -12 344528. 3016.16   1
  -2   4 -12 345656. 3819.73   2
  -2   4 -14 3064.60 393.405   2
  -2   4  14 2799.29 353.207   4
  -4  -2 -14 3009.25 332.692   2
   4   2 -16 187377. 3273.43   2
  -2   4 -16 188575. 3290.06   2
  -2   4  16 192562. 3128.90   4
  -4  -2 -16 188685. 2757.27   2
  -3   4   1 12201.9 447.423   3
   4   3   1 11726.6 526.235   1
  -3   4  -1 11835.3 408.629   4
  -4  -3   1 12099.8 498.988   3
  -3   4   1 11469.5 427.952   4
  -4  -3  -1 12076.4 532.204   3
  -3   4  -1 12854.1 409.762   1
  -3   4  -1 11448.8 443.171   2
   4   3  -1 12096.4 522.273   1
  -3   4  -1 12521.3 419.845   3
  -3   4   1 12701.5 326.169   1
  -3   4   3 2377.75 206.447   3
  -3   4  -3 2719.53 177.309   3
  -4  -3   3 2504.03 208.785   3
  -3   4  -3 2561.54 208.059   1
   4   3  -3 2483.92 242.495   1
   4   3   3 2483.90 223.517   4
  -3   4   3 2310.41 206.904   4
  -3   4  -3 2523.25 240.028   2
  -4  -3   5 2911.59 230.395   3
  -4  -3  -5 2951.12 228.216   2
   4   3  -5 3146.24 283.444   1
   4   3   5 3192.81 256.044   4
  -3   4  -5 3163.14 260.634   1
  -3   4   5 2901.97 251.955   4
  -3   4  -5 2939.45 274.006   2
  -3   4   5 2915.85 251.337   3
  -4  -3  -7 1362.48 157.360   2
  -4  -3   7 1420.56 158.888   3
   4   3  -7 1466.00 199.977   1
  -3   4  -7 1582.29 196.736   1
  -3   4   7 1381.04 194.049   4
  -3   4  -7 1385.33 197.577   2
   4   3   7 1457.02 178.453   4
  -3   4   7 1595.67 197.760   3
  -4  -3   9 2894.26 228.107   3
   4   3   9 2809.01 252.987   4
  -3   4  -9 2766.48 301.007   2
  -4  -3  -9 3023.15 250.028   2
  -3   4   9 2822.84 294.041   4
  -3   4   9 2821.44 286.104   3
   4   3  -9 3090.34 296.808   1
   4   3 -11 7487.18 490.897   1
  -3   4 -11 7325.32 541.394   2
   4   3  11 7182.29 422.914   4
  -4  -3 -11 7367.49 429.651   2
  -3   4  11 6944.06 506.053   4
  -3   4  13 3589.12 399.096   4
   4   3 -13 3662.25 355.373   1
  -3   4 -13 3475.47 406.883   2
   4   3 -15 976.223 231.945   2
  -3   4  15 1075.50 231.664   4
  -3   4 -15 984.286 231.753   2
  -3   4 -17 30.2074 18.5581   2
   4   3 -17 17.0308 22.0631   2
  -3   4  17 65.9306 52.8522   4
  -4   4   0 411582. 2800.36   3
  -4   4   0 405184. 2963.51   2
  -4   4   0 406386. 2329.48   4
   4   4   0 406210. 3349.26   1
   4   4  -2 252.269 79.9483   1
  -4   4  -2 170.554 58.1611   2
   4   4   2 141.021 51.7259   1
  -4   4   2 209.732 66.9498   3
  -4   4  -2 194.390 58.7186   3
  -4  -4   2 185.328 59.6910   3
  -4   4   2 211.537 60.4351   4
  -4   4   4 516206. 3447.36   3
  -4   4  -4 516631. 3876.13   2
  -4   4  -4 550683. 2892.85   3
  -4  -4   4 555485. 3210.86   3
   4   4   4 526019. 4103.79   1
   4   4  -4 537521. 4039.20   1
   4   4   4 555313. 3718.84   4
  -4   4   4 533683. 3398.84   4
  -4   4  -6 66.8453 45.4925   2
   4   4   6 33.5678 25.1307   4
  -4   4   6 61.9428 35.6628   3
   4   4  -6 129.112 61.7956   1
  -4  -4   6 61.7654 30.0871   3
  -4   4   6 82.6182 43.4887   4
   4   4  -8 381994. 3612.94   1
  -4   4   8 390014. 3542.44   4
  -4   4  -8 394031. 3665.40   2
  -4   4   8 394021. 3466.76   3
  -4   4 -10 100.421 66.2215   2
  -4   4  10 112.761 58.8006   3
   4   4  10 178.693 71.4444   4
  -4   4  10 19.3460 24.5023   4
   4   4 -10 84.5908 55.0808   1
   4   4  12 196817. 2517.54   4
  -4   4  12 195323. 2961.36   4
  -4   4 -12 187964. 2946.72   2
   4   4 -12 189969. 2799.08   1
  -4   4  12 192117. 2791.99   3
  -4   4 -14 17.7413 20.0211   2
   4   4 -14 46.0256 27.7496   2
   4   4 -14 18.3610 19.7171   1
  -4   4  14-0.32371 38.2399   4
   4   4 -16 169421. 3059.47   2
  -4   4 -16 170546. 3112.66   2
   4   5  -1 399.254 111.148   1
  -5   4   1 349.268 95.5968   3
  -5   4  -1 448.627 105.345   3
  -5   4  -1 435.990 116.915   2
  -4  -5   1 414.254 96.5467   3
  -4  -5  -1 432.464 106.762   3
   4   5   1 397.698 108.571   1
  -5   4   3 1388.96 195.323   3
  -5   4  -3 1454.55 179.538   3
  -4  -5   3 1351.88 161.897   3
   4   5  -3 1435.67 220.814   1
  -5   4  -3 1610.48 232.903   2
   4   5   3 1477.62 223.835   1
   4   5   3 1362.39 193.124   4
  -5   4   5 1964.15 243.510   3
  -5   4  -5 1950.00 267.846   2
   4   5   5 2033.15 274.054   1
   4   5   5 2000.22 246.563   4
   4   5  -5 2097.67 274.497   1
  -5   4   5 1909.48 219.497   4
  -5   4   7 2005.27 258.793   3
   4   5  -7 1914.29 268.553   1
   4   5   7 2043.17 288.588   1
   4   5   7 2137.39 259.856   4
  -5   4  -7 1934.21 268.897   2
  -5   4   7 2044.07 255.799   4
   4   5   9 706.658 176.115   1
   4   5   9 894.362 176.416   4
  -5   4  -9 685.037 168.496   2
  -5   4   9 753.831 170.519   4
  -5   4   9 762.909 169.160   3
   4   5  -9 692.467 168.211   1
  -5   4 -11 16.2571 13.4804   2
  -5   4  11 18.7262 21.1078   3
   4   5 -11 81.7550 53.4163   2
   4   5 -11 28.0113 21.7006   1
   4   5  11 28.0396 15.5533   4
  -5   4  11 97.9569 62.2925   4
  -5   4 -13 160.651 86.6260   2
  -5   4  13 79.3574 7.74792   3
   4   5 -13 93.3353 62.7697   2
   4   5 -13 135.233 84.9053   1
  -5   4  13 71.4250 48.4679   4
   4   5 -15 1616.90 285.740   2
   4   5 -15 1766.09 306.581   1
   3   5   0 2.93709 31.8703   1
  -5   3   0-15.5729 33.1712   2
  -5   3   0-14.5554 29.1896   3
  -5   3   2 508556. 3550.78   3
  -5   3  -2 491480. 3352.90   3
  -3  -5   2 515422. 2959.58   3
   3   5  -2 515734. 3980.17   1
   3   5   2 507839. 3686.67   4
  -5   3  -2 490265. 3778.87   2
  -5   3   2 485970. 2609.15   4
   3   5   2 497519. 3796.94   1
   3   5   4 4054.10 351.756   1
  -5   3   4 4427.45 340.921   3
  -5   3  -4 4578.75 321.234   3
   3   5  -4 4563.90 382.982   1
  -5   3  -4 4257.53 372.933   2
   3   5   4 4476.20 355.535   4
  -5   3   4 4351.33 289.725   4
  -5   3   6 368165. 3258.50   3
  -5   3   6 361251. 3071.31   4
   3   5   6 377940. 3612.06   1
  -5   3  -6 370967. 2897.59   3
   3   5   6 372236. 3362.72   4
   3   5  -6 366993. 3653.18   1
  -5   3  -6 367520. 3503.46   2
  -5   3   8 4483.56 373.872   3
   3   5  -8 4495.36 412.302   1
   3   5   8 4794.44 427.671   1
   3   5   8 4688.31 386.791   4
  -5   3  -8 4569.75 408.073   2
  -5   3   8 4366.79 381.886   4
   3   5  10 306132. 3305.25   4
   3   5 -10 309297. 3378.06   2
  -5   3  10 304450. 3498.16   4
  -5   3 -10 308401. 3535.71   2
   3   5 -10 306111. 3606.42   1
  -5   3  10 304871. 3353.72   3
  -5   3 -12 172.552 90.6201   2
  -5   3  12 225.825 93.6767   3
   3   5 -12 85.9065 61.2839   2
   3   5 -12 149.249 86.9429   1
   3   5  12 55.6897 37.1032   4
  -5   3  12 164.773 87.9695   4
   3   5 -14 193684. 3117.91   2
   3   5  14 190176. 2873.82   4
  -5   3 -14 198651. 3233.54   2
   3   5 -14 196658. 3183.59   1
  -5   3  14 202409. 3294.14   4
  -5   3  14 195984. 3034.46   3
   3   5 -16 422.875 147.944   2
   2   5  -1 10609.2 488.891   4
  -5   2   1 11385.4 505.014   3
  -5   2  -1 11614.7 508.884   3
   2   5   1 10608.4 506.815   4
   2   5  -1 12073.9 568.320   1
  -5   2  -1 10742.9 525.175   2
   2   5   1 11719.6 541.375   1
  -5   2   1 10816.7 324.863   4
   2   5  -3 211.740 79.5468   1
   2   5  -3 224.901 60.1040   2
  -5   2  -3 325.224 87.0770   3
  -5   2  -3 297.544 91.2379   2
  -2  -5   3 222.721 49.3493   3
  -5   2   3 205.004 67.8987   3
   2   5   3 254.507 78.5347   1
  -5   2   3 262.678 61.3658   4
   2   5   3 219.828 70.6078   4
  -5   2  -5 166.517 70.1226   2
   2   5  -5 154.487 50.0418   1
  -5   2   5 213.673 74.1632   3
   2   5   5 198.739 74.6838   1
  -5   2  -5 163.850 60.2649   3
   2   5  -5 239.384 67.6923   2
   2   5   5 241.508 77.2200   4
  -5   2   5 387.641 89.0555   4
   2   5  -7 41.1098 23.6891   1
   2   5   7 49.7294 22.5308   1
  -5   2  -7 69.9632 36.3859   2
  -5   2   7 57.1804 39.0933   3
  -5   2  -7 121.604 59.5411   3
   2   5  -7 91.2334 48.2619   2
  -5   2   7 84.5029 46.3954   4
   2   5   9 70.2594 45.1179   1
  -5   2  -9 87.7948 41.8809   2
  -5   2   9 110.713 54.6493   3
  -5   2  -9 92.5988 40.2311   3
   2   5  -9 87.9578 44.4130   2
   2   5   9 110.113 57.7254   4
   2   5  -9 108.080 54.9482   1
  -5   2   9 222.246 82.8164   4
   2   5 -11 6693.63 512.005   2
   2   5  11 6389.70 490.881   4
  -5   2 -11 6560.23 509.523   2
  -5   2  11 6234.11 502.165   4
   2   5 -11 6753.29 531.614   1
  -5   2  11 6635.75 494.498   3
   2   5 -13 4598.78 461.650   2
   2   5  13 4752.47 452.241   4
  -5   2 -13 4753.67 467.411   2
   2   5 -13 4796.60 475.075   1
  -5   2  13 4767.02 476.846   4
  -5   2  13 4737.48 446.415   3
  -5   2 -15 11.9768 29.1403   2
  -5   2  15 70.7297 55.8234   3
   2   5 -15 3.55034 44.0400   2
   2   5 -15 54.9278 26.9567   1
   2   5  15 0.09925 20.6741   4
  -5   2  15 123.003 76.6896   4
  -5   1   0-8.43336 33.9184   2
   1   5   0-20.4991 29.1294   1
   1   5   0 0.98361 7.21812   4
  -5   1   0 40.4654 16.9083   4
  -5   1   2 502857. 3342.41   3
  -5   1  -2 501878. 3476.30   3
   1   5   2 518997. 3547.43   4
   1   5  -2 492318. 3220.41   4
   1   5  -2 484932. 3516.97   1
  -5   1  -2 497328. 3516.38   2
   1   5   2 504090. 3341.34   1
  -5   1   2 493206. 2563.38   4
   1   5  -4 352.640 77.8441   2
   1   5  -4 378.937 95.1274   1
  -5   1   4 284.172 75.2964   3
  -5   1  -4 609.426 127.221   2
  -5   1  -4 276.994 80.6655   3
   1   5   4 297.188 76.4187   1
  -5   1   4 301.367 74.5586   4
   1   5   4 294.240 83.8168   4
   1   5   6 596876. 3866.15   1
   1   5  -6 604949. 4199.75   1
   1   5   6 634269. 4114.10   4
   1   5  -6 642460. 3862.74   2
  -5   1   6 608272. 3906.30   3
  -5   1  -6 573081. 4053.45   3
  -5   1   6 600901. 3910.65   4
  -5   1  -6 631464. 4243.50   2
   1   5   8 138.567 63.3652   1
  -5   1  -8 152.585 65.2802   2
  -5   1   8 131.058 55.6812   3
   1   5  -8 187.471 77.5309   2
  -5   1  -8 165.475 75.7190   3
   1   5  -8 145.962 70.0204   1
   1   5   8 143.982 68.7074   4
  -5   1   8 325.490 98.6312   4
  -5   1  10 303221. 3135.30   3
   1   5 -10 306647. 3338.50   2
  -5   1 -10 311388. 3215.46   3
   1   5  10 306494. 3256.39   1
   1   5  10 302483. 3227.30   4
  -5   1 -10 304787. 3309.56   2
  -5   1  10 311395. 3370.33   4
   1   5 -10 301808. 3354.40   1
  -5   1 -12 45.4300 24.3185   2
  -5   1  12 45.6470 30.4786   3
   1   5 -12 7.99384 36.9219   2
  -5   1 -12 69.6971 52.6082   3
   1   5 -12 40.2718 16.4897   1
   1   5  12 79.3986 59.8203   4
  -5   1  12 14.2615 16.1633   4
   1   5 -14 206266. 3177.50   2
   1   5 -14 213286. 3330.59   1
   1   5  14 210126. 3106.48   4
  -5   1 -14 208810. 3198.19   2
  -5   1  14 213954. 3253.37   4
  -5   1  14 201473. 2887.56   3
  -5   1 -16 120.212 74.8190   2
   1   5 -16 41.8130 40.3393   1
   1   5 -16 26.4119 37.6261   2
   1   5  16 26.3720 29.2149   4
   0   5  -1 324.431 82.6715   4
   5   0  -1 434.767 79.7491   1
  -5   0  -1 289.430 84.1475   3
   0   5  -1 362.662 86.3011   1
   0   5   1 319.816 82.1738   1
  -5   0   1 298.750 75.9654   3
  -5   0  -1 440.631 104.367   2
   0   5   1 372.476 91.1305   4
   0   5  -3 1398.62 176.630   1
   0   5   3 1326.89 172.316   4
  -5   0   3 1350.88 169.707   3
  -5   0  -3 1304.16 182.353   3
   5   0  -3 1403.59 130.389   1
   0   5   3 1417.20 174.542   1
  -5   0  -3 1269.37 175.698   2
   0   5  -3 1260.08 131.585   2
  -5   0   5 2527.38 238.889   3
  -5   0  -5 2663.11 279.589   3
   0   5   5 2612.54 254.914   4
  -5   0  -5 2724.97 268.384   2
   0   5   5 2613.19 232.455   1
   0   5  -5 2621.96 227.806   2
   0   5  -5 2827.05 265.256   1
  -5   0   7 1885.71 219.552   3
  -5   0  -7 1882.21 242.266   3
   0   5   7 1777.93 220.398   4
  -5   0  -7 2612.65 269.584   2
   0   5  -7 1777.32 225.335   1
   0   5   7 1996.13 209.541   1
   0   5  -7 1909.84 221.890   2
  -5   0   9 647.432 135.671   3
   0   5   9 596.331 123.146   1
  -5   0  -9 554.188 138.353   3
   0   5   9 527.550 127.776   4
  -5   0  -9 502.351 123.429   2
   0   5  -9 544.510 130.079   1
   0   5  -9 480.656 124.690   2
  -5   0  11 476.744 123.456   3
  -5   0 -11 385.870 116.300   2
  -5   0 -11 509.164 137.110   3
   0   5 -11 394.417 121.522   2
   0   5 -11 441.313 130.120   1
   0   5  11 488.388 133.005   4
  -5   0  11 477.414 134.380   4
  -5   0 -13 710.534 163.080   3
   0   5 -13 726.386 183.280   1
   0   5  13 912.847 197.356   4
  -5   0 -13 909.524 197.259   2
  -5   0  13 613.927 163.820   4
   0   5 -13 618.931 170.942   2
  -5   0  13 835.869 176.966   3
   0   5 -15 1643.18 290.236   1
   0   5  15 1508.66 275.396   4
  -5   0 -15 1586.37 277.640   2
  -5   0  15 1497.60 243.084   3
  -5   0  15 1647.97 289.356   4
   0   5 -15 1430.33 273.487   2
   5   0 -17 2008.97 344.874   2
  -5   0  17 2053.90 334.642   4
   0   5  17 2049.35 325.374   4
  -5   0 -17 2173.67 341.850   2
   0   5 -17 1928.04 336.909   2
   5   1   0-7.00892 22.5610   1
  -1   5   0-0.98471 13.5676   1
  -1   5   0-23.1313 31.9985   4
  -5  -1   0-13.8105 34.6747   3
  -1   5   2 665485. 3776.12   4
  -1   5  -2 639414. 3554.26   1
  -5  -1   2 682151. 3970.14   3
  -5  -1  -2 643986. 4281.77   3
  -1   5   2 648245. 3317.39   1
  -5  -1  -2 655810. 4024.16   2
  -1   5  -2 664366. 2666.10   2
   5   1  -2 658631. 3408.92   1
  -5  -1  -4 45.6584 28.8675   2
  -1   5  -4 24.1432 16.7312   2
  -5  -1   4 43.6161 2.71300   3
  -5  -1  -4 62.9940 42.8225   3
  -1   5   4 43.0840 22.6151   1
  -1   5  -4 64.7545 34.4915   1
  -1   5   4 47.2942 33.3054   4
  -5  -1   6 351909. 2893.80   3
   5   1  -6 363509. 2423.17   1
  -5  -1  -6 355237. 3281.74   3
  -1   5   6 344662. 2475.57   1
  -5  -1  -6 347815. 2998.28   2
  -1   5   6 355530. 3064.53   4
  -1   5  -6 350401. 2982.74   1
  -1   5  -6 351261. 3000.89   2
  -1   5  -8 76.0542 53.4919   2
  -5  -1   8 47.9845 26.8559   3
  -1   5   8 41.5342 27.8506   4
  -5  -1  10 427783. 3525.60   3
  -1   5  10 423607. 3832.38   4
  -5  -1 -10 424587. 3736.96   2
  -1   5 -10 426536. 3892.64   1
  -1   5 -10 419688. 4078.92   2
  -5  -1 -12-0.16194 15.9536   2
  -1   5 -12 3.55886 16.4444   2
  -1   5 -12 37.1033 35.2676   1
  -1   5  12 25.3026 33.0624   4
  -1   5 -14 237853. 3382.10   1
  -1   5 -14 235323. 3548.31   2
  -1   5  14 238585. 3358.42   4
  -5  -1 -14 238824. 3252.59   2
  -5  -1  14 238680. 3440.30   4
  -5  -1 -16 55.3754 32.4645   2
  -1   5 -16 16.3988 21.9007   2
  -5  -1 -16 54.7433 55.1243   3
  -1   5  16 32.5800 30.9313   4
  -5  -1  16 16.9430 18.0598   4
   5   2   1 862.139 142.658   1
  -5  -2   1 850.676 146.360   3
  -5  -2  -1 853.135 152.165   3
  -2   5  -1 948.695 100.694   2
  -2   5   1 937.842 138.857   4
  -2   5  -1 971.884 126.183   1
   5   2  -1 864.216 136.959   1
  -2   5   1 884.517 111.393   1
  -2   5   3 6407.07 271.913   1
  -5  -2   3 6217.43 385.475   3
  -5  -2  -3 6621.72 435.919   3
  -5  -2  -3 6804.15 403.265   2
  -2   5   3 6147.38 376.107   4
  -2   5  -3 6228.22 333.642   2
   5   2  -3 6647.45 394.748   1
  -2   5  -3 6515.19 349.528   4
  -2   5  -3 6281.98 357.761   1
  -5  -2   5 1619.46 193.986   3
  -2   5  -5 1564.64 194.207   2
  -5  -2  -5 1633.42 220.533   3
   5   2  -5 1668.85 194.260   1
  -5  -2  -5 1535.43 188.022   2
  -2   5  -5 1507.84 184.930   1
  -2   5   5 1626.99 203.902   4
  -5  -2   7 892.370 145.728   3
   5   2  -7 815.473 133.552   1
  -5  -2  -7 835.063 142.428   2
  -2   5   7 862.207 156.947   4
  -2   5  -7 871.596 154.025   1
  -2   5  -7 709.726 141.734   2
  -5  -2   9 4814.17 356.806   3
  -2   5   9 3783.73 352.506   4
  -5  -2  -9 3832.27 325.751   2
  -2   5  -9 4171.78 363.430   1
  -2   5  -9 3981.91 381.791   2
   5   2  -9 4033.39 304.664   1
  -5  -2 -11 12.0673 26.2389   2
  -2   5 -11 63.4725 36.4080   2
  -5  -2  11 68.2978 40.2429   3
  -2   5 -11 40.2073 37.8911   1
  -5  -2 -13 59.8034 36.4683   2
  -2   5 -13 22.2089 35.3013   1
  -2   5 -13-49.2266 75.3559   2
  -2   5  13 35.1191 10.2250   4
  -5  -2 -15 3634.91 387.214   2
  -2   5  15 3520.97 427.398   4
  -2   5 -15 3441.96 444.421   2
  -3   5   0 26.6903 25.0083   3
  -5  -3   0-16.0454 44.7114   3
  -3   5   0-19.7071 25.3516   4
   5   3   0-33.1427 52.3454   1
   5   3   2 452730. 3641.55   1
  -5  -3   2 426977. 3202.49   3
  -5  -3  -2 462353. 3676.66   3
  -3   5  -2 485144. 2897.45   4
  -3   5  -2 468940. 2973.24   2
  -3   5  -2 485166. 2981.55   1
   5   3  -2 450858. 3444.95   1
  -3   5   2 457010. 3178.14   4
  -3   5   2 462258. 3128.05   3
  -3   5  -2 466217. 2545.67   3
  -5  -3   4 3073.93 269.162   3
  -3   5   4 3099.99 280.551   4
  -5  -3  -4 3241.33 311.235   3
   5   3  -4 3262.03 302.039   1
  -3   5  -4 3336.37 273.582   1
  -3   5  -4 2959.68 276.155   2
  -3   5   4 3254.57 279.080   3
  -5  -3   6 475070. 3368.41   3
  -3   5  -6 469256. 3564.22   1
   5   3  -6 457562. 3623.85   1
  -5  -3  -6 448652. 3198.14   2
  -3   5   6 462277. 3648.14   4
  -3   5  -6 447293. 3711.90   2
  -3   5   6 456846. 3513.54   3
   5   3  -8 2844.99 291.228   1
  -5  -3   8 2938.71 266.246   3
  -3   5  -8 2790.80 293.731   1
  -3   5   8 2789.71 303.467   4
  -3   5  -8 2628.96 302.725   2
  -5  -3  -8 2806.11 256.728   2
  -5  -3 -10 260235. 2614.57   2
  -3   5  10 257071. 3186.42   4
  -3   5 -10 253325. 3240.55   2
   5   3 -10 259427. 2833.57   1
  -3   5 -12 1.33234 40.9754   2
  -3   5  12-2.96475 50.3545   4
  -3   5  14 188348. 3118.69   4
  -3   5 -14 181152. 3151.49   2
  -3   5 -16 539.004 173.941   2
  -4   5   1 4349.56 315.536   3
  -4   5  -1 4454.76 294.503   3
  -5  -4   1 4232.47 345.577   3
  -5  -4  -1 4230.15 355.770   3
  -4   5  -1 4220.08 305.896   2
  -4   5   1 4043.06 281.021   4
   5   4  -1 4489.05 371.613   1
   5   4   1 4102.00 359.448   1
  -4   5   3 335.613 87.4440   4
  -5  -4   3 314.888 83.7435   3
  -5  -4  -3 322.154 98.5666   3
  -4   5  -3 575.400 127.863   2
   5   4   3 379.659 112.437   1
   5   4  -3 498.323 125.426   1
  -4   5   3 343.646 94.6873   3
  -4   5  -5 125.315 59.8069   2
  -4   5   5 329.768 93.0028   3
   5   4  -5 129.826 66.7083   1
   5   4   5 109.167 53.9585   1
  -4   5   5 239.922 79.0864   4
   5   4  -7 649.813 155.738   1
   5   4   7 481.767 113.804   4
  -4   5   7 430.101 118.315   4
  -4   5  -7 437.386 129.367   2
   5   4  -9 27.0150 24.0243   1
  -4   5  -9 35.3297 28.3760   2
  -4   5   9 58.9972 54.2712   3
  -4   5   9 64.7679 48.9677   4
  -4   5  11 2725.80 353.971   4
  -4   5 -11 2647.01 357.872   2
   5   4 -11 2512.08 312.834   1
  -4   5  13 2855.73 387.819   4
  -4   5 -13 2925.57 396.922   2
   5   5   0 1.08698 11.4955   1
  -5   5   0 15.7874 22.9762   3
  -5  -5   0-14.7672 32.6420   3
  -5   5   2 340443. 3161.15   3
  -5   5  -2 339793. 2795.11   3
  -5   5  -2 342231. 3303.15   2
  -5  -5   2 337015. 2985.15   3
  -5  -5  -2 341322. 3326.64   3
   5   5  -2 332842. 3542.48   1
   5   5   2 343358. 3597.73   1
  -5   5   4 6262.68 454.771   3
  -5  -5   4 6045.25 377.779   3
  -5  -5  -4 6371.66 466.740   3
   5   5  -4 6602.72 510.623   1
  -5   5  -4 6141.88 476.968   2
   5   5   4 6403.49 494.815   1
   5   5   6 277723. 3456.03   1
   5   5  -6 277763. 3369.08   1
   5   5   6 285794. 2987.22   4
  -5   5  -6 276437. 3426.16   2
  -5   5   6 271772. 2909.04   4
  -5   5   6 276885. 3135.51   3
   5   5  -8 5031.99 467.042   1
   5   5   8 5297.96 504.285   1
   5   5   8 5559.70 429.919   4
  -5   5  -8 5592.12 498.805   2
  -5   5   8 5186.37 446.227   4
  -5   5   8 5266.86 452.140   3
   5   5  10 213105. 3345.95   1
  -5   5 -10 213391. 3244.71   2
  -5   5  10 207789. 3118.09   4
   5   5 -10 206300. 3109.71   1
  -5   5  10 212690. 3032.45   3
  -5   5 -12 210.746 103.036   2
   5   5 -12 198.521 94.4637   2
   5   5 -12 284.912 122.231   1
  -5   5  12 292.536 122.541   4
   5   5  12 218.621 98.1648   1
  -6   5   1 692.274 152.830   3
  -6   5  -1 577.672 134.036   3
  -5  -6   1 584.394 125.641   3
  -5  -6  -1 546.591 130.855   3
   5   6  -1 643.444 163.042   1
   5   6   1 631.798 163.096   1
  -6   5  -3 167.300 79.6890   2
  -6   5   3 57.6535 40.7753   3
   5   6  -3 125.583 84.6562   1
  -5  -6  -3 163.098 79.8257   3
  -6   5  -5 186.237 87.1936   2
   5   6  -5 228.243 104.580   1
  -6   5   5 205.730 90.4243   3
   5   6   5 218.132 101.658   1
   5   6   7 179.737 91.0933   1
   5   6  -7 196.800 100.111   1
  -6   5  -7 118.278 66.2158   2
  -6   5   7 187.744 95.6548   3
   5   6   7 253.756 99.4943   4
   5   6  -9 117.605 67.4210   1
   5   6   9 144.785 77.2496   1
  -6   5  -9 117.227 62.3410   2
  -6   5   9 170.851 90.9594   3
   5   6   9 179.570 81.5173   4
   5   6  11 595.901 180.255   1
  -6   5 -11 523.064 167.940   2
   5   6 -11 890.290 208.631   1
  -6   5  11 548.674 159.840   3
  -6   4   0 423646. 3710.18   3
  -4  -6   0 426850. 3326.31   3
   4   6   0 422782. 4004.66   1
   4   6   2-20.3982 41.8182   1
  -6   4  -2 32.2772 25.5898   2
  -6   4   2 4.81843 15.2921   3
   4   6  -2-9.70342 43.2007   1
  -6   4   4 259827. 3056.25   3
  -6   4  -4 260351. 2723.45   3
   4   6  -4 257985. 3276.88   1
  -6   4  -4 252465. 3228.48   2
   4   6   4 262987. 3078.60   4
   4   6   4 268054. 3312.43   1
   4   6  -6 16.9235 30.7176   1
  -6   4  -6 30.1518 31.1474   2
  -6   4   6 30.6539 26.7020   3
   4   6   6-25.2660 28.0778   1
  -6   4   8 212782. 3035.27   3
   4   6   8 218946. 3202.01   1
   4   6  -8 217348. 3232.79   1
   4   6   8 214687. 2887.00   4
  -6   4  -8 214497. 3166.64   2
  -6   4 -10 34.9045 45.9672   2
   4   6  10 23.0049 28.5190   1
   4   6  10 3.79451 19.2319   4
   4   6 -10 26.3074 27.6837   1
  -6   4  10 12.5957 26.6835   4
   4   6  12 215183. 3408.79   1
   4   6  12 197741. 2973.30   4
  -6   4 -12 208947. 3281.14   2
  -6   4  12 201292. 3301.57   4
   4   6 -12 208972. 3379.75   1
  -6   4  12 206418. 3148.77   3
  -6   3  -1 124.867 62.4824   2
  -3  -6   1 264.825 72.6538   3
  -6   3   1 151.835 63.2333   3
  -6   3  -1 75.6401 37.8303   3
   3   6  -1 113.382 61.0327   1
   3   6   1 78.2767 39.6731   4
   3   6   1 174.486 68.1934   1
  -6   3  -3 23.2687 22.2467   2
   3   6   3 64.0661 45.9451   1
  -6   3   3 72.4904 52.4389   3
  -6   3  -3 131.314 62.0823   3
   3   6  -3 126.630 57.0318   1
   3   6   3 70.6748 47.7705   4
  -6   3   5 5519.10 427.506   3
  -6   3  -5 4988.11 387.844   3
   3   6  -5 5350.12 457.223   1
   3   6   5 4996.72 410.641   4
  -6   3  -5 5276.34 451.693   2
   3   6   5 5084.38 433.306   1
  -6   3   7 4953.83 425.172   3
   3   6  -7 4743.23 445.051   1
  -6   3  -7 4644.42 372.944   3
   3   6   7 4312.05 405.414   4
  -6   3  -7 4462.47 428.682   2
  -6   3   7 4485.40 379.984   4
   3   6   7 4568.30 428.041   1
  -6   3  -9 7.80398 24.9856   2
  -6   3   9 34.4737 37.4487   3
   3   6   9-5.91019 31.2292   1
   3   6   9 1.02339 39.1741   4
   3   6  -9 7.46151 27.6392   1
  -6   3 -11 189.442 100.995   2
  -6   3  11 55.4226 47.0790   3
   3   6  11 63.6100 44.6257   1
   3   6 -11-7.62060 41.2239   1
   3   6  11 47.4877 40.4501   4
  -6   3  11 67.8366 48.5760   4
  -6   3 -13 182.179 72.6800   2
  -6   3  13 303.964 115.609   3
   3   6 -13 250.989 114.874   1
   3   6  13 228.088 99.7669   4
  -6   3  13 180.934 90.5606   4
   3   6  13 212.765 96.9137   1
  -6   2   0 381400. 3358.92   3
   2   6   0 384666. 3502.08   1
   2   6   0 380553. 3343.41   4
  -6   2   2 3554.30 320.512   3
  -6   2  -2 3797.56 342.909   3
   2   6  -2 4163.53 371.531   1
   2   6   2 3890.78 351.546   1
  -6   2  -2 3539.61 343.154   2
   2   6   2 3756.97 336.550   4
  -6   2   4 415407. 3583.32   3
  -6   2  -4 411711. 3746.28   3
   2   6  -4 416492. 3856.58   1
   2   6   4 421502. 3744.14   4
  -6   2  -4 425684. 3859.63   2
   2   6   4 412769. 3599.83   1
   2   6  -6-29.6084 46.4257   1
  -6   2  -6 8.34705 27.5390   2
  -6   2   6-5.12013 21.7819   3
  -6   2  -6-2.69445 8.85880   3
   2   6   6-27.7136 44.1320   1
   2   6   6-23.3420 41.9013   4
  -6   2   8 315181. 3346.69   3
  -6   2  -8 312479. 3309.84   3
   2   6   8 315557. 3386.19   4
  -6   2  -8 321434. 3529.53   2
  -6   2   8 313483. 3351.89   4
   2   6  -8 312813. 3633.35   1
   2   6   8 312544. 3427.64   1
  -6   2  10 1201.44 214.916   3
   2   6 -10 1308.45 222.463   2
   2   6  10 1392.14 244.287   1
  -6   2 -10 1247.77 228.565   2
  -6   2  10 1319.13 239.791   4
   2   6  10 1286.30 229.940   4
   2   6 -10 1377.25 251.369   1
   2   6 -12 192458. 2949.82   2
   2   6  12 197751. 3079.02   1
   2   6  12 186164. 2922.17   4
  -6   2 -12 189570. 3033.48   2
  -6   2  12 194170. 3133.89   4
   2   6 -12 189666. 3133.89   1
  -6   2  12 187920. 2915.57   3
   2   6 -14 1185.90 242.965   2
   2   6  14 1443.81 263.013   4
  -6   2 -14 1510.39 284.083   2
   2   6 -14 1622.89 304.193   1
  -6   2  14 1356.14 276.248   4
  -6   2  14 1357.12 252.498   3
   1   6  -1 2992.58 283.456   4
  -6   1   1 3260.94 308.138   3
  -6   1  -1 3168.89 312.477   3
   1   6  -1 3168.19 307.698   1
   1   6   1 3364.86 310.831   1
  -6   1  -1 3146.57 311.851   2
   1   6   1 3006.23 291.052   4
   1   6   3 1882.17 240.303   4
  -6   1   3 1146.15 180.138   3
   1   6  -3 1163.25 188.827   1
  -6   1  -3 1593.40 226.265   3
  -6   1  -3 1157.31 187.107   2
   1   6   3 1218.56 183.119   1
  -6   1   3 1225.63 147.999   4
   1   6  -5 406.529 115.517   1
  -6   1   5 408.105 111.294   3
  -6   1  -5 377.805 108.024   3
   1   6   5 450.253 117.915   4
  -6   1  -5 494.806 127.407   2
   1   6   5 423.402 111.367   1
  -6   1   5 651.916 126.341   4
  -6   1   7 437.375 119.619   3
  -6   1  -7 475.453 127.761   3
   1   6   7 566.908 134.784   4
  -6   1  -7 543.166 138.932   2
  -6   1   7 389.992 109.181   4
   1   6   7 406.589 107.555   1
   1   6  -7 399.063 117.026   1
  -6   1   9 1859.93 257.032   3
  -6   1  -9 1958.93 274.528   3
   1   6   9 2041.77 277.753   4
  -6   1  -9 1982.19 276.211   2
  -6   1   9 2058.33 285.441   4
   1   6  -9 2016.65 286.944   1
   1   6   9 2104.22 268.111   1
   1   6  -9 2166.99 275.980   2
   1   6  11 3236.95 354.405   1
  -6   1  11 3409.11 366.245   3
  -6   1 -11 3250.90 350.775   3
   1   6  11 3372.40 383.958   4
  -6   1 -11 3095.08 363.664   2
  -6   1  11 3219.27 385.119   4
   1   6 -11 3268.32 385.787   1
   1   6 -11 3436.01 376.331   2
  -6   1 -13 1550.97 275.912   2
   1   6 -13 1754.95 305.269   1
  -6   1  13 1629.65 294.725   4
   1   6  13 1628.22 284.434   4
   1   6 -13 1751.29 292.946   2
  -6   1  13 1654.31 274.756   3
   1   6  15 835.309 207.290   4
   1   6 -15 848.905 218.224   1
  -6   1 -15 1071.23 240.553   2
  -6   1  15 779.772 214.599   4
   1   6 -15 785.476 202.902   2
  -6   1  15 756.210 189.843   3
  -6   0   0 447178. 3692.74   3
   0   6   0 455661. 3488.93   4
   0   6   0 445096. 3449.44   1
   0   6  -2 12205.1 586.263   1
  -6   0   2 11924.5 591.765   3
  -6   0  -2 11513.6 613.690   3
   0   6   2 11615.1 564.349   1
   0   6  -2 11276.2 554.910   4
  -6   0  -2 11316.1 589.345   2
   0   6   2 11187.0 569.014   4
   0   6  -4 433829. 3598.93   1
  -6   0   4 424416. 3522.30   3
   0   6   4 424276. 3339.32   1
  -6   0  -4 430374. 3638.33   2
   0   6   4 427496. 3593.39   4
   0   6   6 181.093 66.1318   1
  -6   0  -6 232.730 84.2273   2
  -6   0   6 167.631 67.2661   3
  -6   0  -6 188.897 84.6249   3
   0   6   6 152.286 63.2171   4
   0   6  -6 212.985 82.7017   1
  -6   0   8 338187. 3366.60   3
  -6   0  -8 339971. 3733.72   3
   0   6   8 341629. 3479.81   4
  -6   0  -8 345417. 3502.72   2
   0   6   8 345542. 3112.61   1
   0   6  -8 345043. 3563.04   1
   0   6  -8 351552. 3420.02   2
  -6   0  10 4684.31 415.286   3
  -6   0 -10 4653.06 440.043   3
   0   6  10 4589.47 429.513   4
  -6   0 -10 4579.39 422.245   2
   0   6 -10 4588.28 433.294   1
  -6   0  10 4773.40 463.971   4
   0   6 -10 4888.22 442.794   2
  -6   0  12 221758. 3010.85   3
  -6   0 -12 221467. 3072.11   3
   0   6  12 232455. 3329.32   4
  -6   0 -12 234611. 3215.00   2
   0   6 -12 230514. 3403.81   1
  -6   0  12 242317. 3482.48   4
   0   6 -12 231485. 3260.40   2
   0   6 -14 4121.96 465.819   1
   0   6  14 4185.75 467.465   4
  -6   0 -14 4461.15 471.153   2
  -6   0  14 4287.08 487.001   4
   0   6 -14 3885.16 459.145   2
  -6   0  14 3878.80 411.032   3
  -1   6  -1 28.5447 16.5917   1
  -1   6   1 21.7122 11.5943   1
  -6  -1   1 578.240 133.046   3
  -6  -1  -1 605.630 131.562   3
   6   1   1 62.1735 29.7544   1
  -1   6  -1 115.631 56.3341   4
  -1   6   1 70.9093 42.3407   4
   6   1  -1 44.9519 26.8880   1
  -6  -1   3 3631.95 334.328   3
  -1   6   3 3657.83 278.120   1
  -6  -1  -3 3235.36 330.956   3
  -6  -1  -3 3442.88 321.016   2
  -1   6   3 3331.17 312.355   4
   6   1  -3 3400.22 255.285   1
  -1   6  -3 3571.61 305.316   1
  -6  -1  -5 172.453 71.4191   2
  -6  -1   5 132.598 55.0732   3
  -6  -1  -5 181.147 82.0925   3
  -1   6  -5 96.3862 44.7254   1
  -1   6   5 115.866 60.6243   4
  -6  -1  -7 63.1907 32.3172   2
  -1   6  -7 70.6260 22.0642   1
  -1   6   7 96.0278 52.3339   4
  -6  -1   9 2486.13 291.344   3
  -6  -1  -9 2512.88 317.673   3
  -6  -1  -9 2433.93 288.355   2
  -1   6   9 2519.74 311.311   4
  -1   6  -9 2538.41 307.137   1
  -1   6  -9 2694.66 322.657   2
  -6  -1 -11 175.127 78.8092   2
  -1   6 -11 143.380 66.9428   2
  -6  -1  11 145.859 67.6315   3
  -1   6 -11 125.618 71.4791   1
  -6  -1 -11 267.217 105.747   3
  -1   6  11 345.692 126.238   4
  -6  -1 -13 283.387 109.852   2
  -6  -1  13 350.907 112.765   3
  -1   6 -13 212.815 97.5471   2
  -1   6 -13 470.113 151.510   1
  -6  -1 -13 316.923 119.564   3
  -1   6  13 318.632 119.982   4
  -6  -1  13 329.447 131.066   4
  -6  -1 -15 2497.69 337.468   3
  -1   6 -15 2851.25 399.149   1
  -1   6  15 2753.82 386.724   4
  -6  -1 -15 2714.87 362.206   2
  -6  -1  15 2719.77 392.807   4
  -1   6 -15 2482.33 383.269   2
  -2   6   0 395746. 3234.96   4
   6   2   0 391929. 3141.89   1
  -6  -2   2 6220.06 445.713   3
   6   2   2 5919.61 416.711   1
  -6  -2  -2 6117.46 456.402   3
  -2   6  -2 6450.00 399.159   4
  -2   6   2 5882.65 405.108   4
   6   2  -2 5741.27 377.392   1
  -2   6  -2 6045.52 371.934   1
  -2   6   4 403325. 3536.04   4
  -6  -2   4 402255. 3524.65   3
  -6  -2  -4 406109. 3745.16   3
   6   2  -4 399544. 3170.25   1
  -6  -2  -4 403817. 3456.53   2
  -2   6  -4 400920. 3272.13   1
  -6  -2  -6 127.133 54.1448   2
   6   2  -6 175.270 62.1759   1
  -6  -2   6 103.590 50.6023   3
  -6  -2  -6 159.058 67.9964   3
  -2   6  -6 239.416 83.8900   1
  -2   6   6 169.420 70.7093   4
  -6  -2   8 315615. 3165.60   3
  -6  -2  -8 314339. 3437.60   3
  -6  -2  -8 310804. 3094.34   2
  -2   6   8 317592. 3472.47   4
  -2   6  -8 317348. 3370.55   1
  -6  -2  10 2250.43 273.185   3
  -6  -2 -10 2139.04 292.172   3
  -6  -2 -10 2245.59 278.797   2
  -2   6 -10 2013.81 282.289   1
  -2   6  10 2098.57 300.006   4
  -2   6 -10 2271.83 312.785   2
  -2   6 -12 196081. 3021.74   1
  -6  -2 -12 192798. 2946.91   3
  -6  -2 -12 199949. 2782.26   2
  -2   6  12 195041. 3095.73   4
  -2   6 -12 196951. 3150.03   2
  -6  -2 -14 2355.66 334.388   3
  -6  -2 -14 2351.41 320.376   2
  -2   6  14 2361.47 357.334   4
  -2   6 -14 2120.93 346.941   2
  -6  -3   1 1130.03 189.746   3
  -6  -3  -1 1197.11 201.403   3
  -3   6  -1 1148.93 162.251   4
  -3   6   1 1066.06 167.667   4
   6   3  -1 1202.75 188.094   1
   6   3   1 1104.12 184.957   1
   6   3   3 1280.83 211.216   1
  -6  -3   3 1165.06 189.938   3
  -6  -3  -3 1351.21 216.778   3
   6   3  -3 1343.86 200.522   1
  -3   6   3 1917.32 233.312   4
  -3   6  -3 1412.34 185.321   1
  -6  -3   5 3375.29 321.133   3
  -6  -3  -5 2895.19 320.696   3
   6   3  -5 3909.63 350.681   1
  -3   6   5 3056.57 316.047   4
  -3   6  -5 3571.80 317.824   1
  -6  -3   7 4046.46 348.262   3
   6   3  -7 4048.76 352.883   1
  -6  -3  -7 3904.55 380.090   3
  -6  -3  -7 4109.96 339.077   2
  -3   6  -7 4516.97 386.207   1
  -3   6   7 3854.68 381.158   4
  -3   6  -7 4135.47 387.102   2
  -6  -3   9 622.911 137.122   3
  -6  -3  -9 695.231 173.024   3
  -3   6  -9 558.965 144.059   1
  -6  -3  -9 501.164 119.297   2
  -3   6   9 485.544 143.718   4
  -3   6  -9 623.409 161.846   2
  -6  -3 -11 655.685 175.484   3
  -3   6  11 698.049 183.415   4
  -3   6 -11 701.368 180.505   2
  -6  -3 -13 1944.40 305.289   3
  -3   6  13 1758.27 306.574   4
  -3   6 -13 1738.64 304.399   2
  -6  -4   0 402977. 3704.08   3
   6   4   0 393212. 3730.96   1
  -6  -4   2 285.507 96.0875   3
  -6  -4  -2 301.978 100.256   3
   6   4   2 219.708 84.1154   1
   6   4  -2 308.457 96.0470   1
  -4   6   2 382.553 99.8807   3
   6   4   4 260010. 3178.80   1
  -6  -4   4 266444. 2842.16   3
  -6  -4  -4 261982. 3087.94   3
   6   4  -4 263372. 3104.59   1
  -4   6   4 263325. 2856.42   4
  -4   6   4 263142. 2845.23   3
  -4   6   6 16.3051 26.1445   3
   6   4  -6-25.2760 44.1195   1
  -6  -4   6 37.2215 39.7252   3
  -6  -4  -6-34.1167 50.5658   3
   6   4   6 34.9593 41.3473   1
  -4   6   6-14.3762 31.7724   4
   6   4  -8 205923. 2767.81   1
   6   4   8 210533. 3172.99   1
  -6  -4  -8 213027. 2979.75   3
  -4   6  -8 213170. 3070.77   2
  -6  -4 -10 108.312 80.1343   3
  -4   6  10 108.244 71.7894   4
  -4   6  12 203977. 3306.04   4
  -4   6 -12 189537. 3268.59   2
   6   5   1 219.561 91.1645   1
  -5   6   1 103.932 53.7813   3
  -6  -5   1 99.8091 55.7039   3
  -6  -5  -1 44.0985 24.0407   3
   6   5  -1 94.3256 63.8339   1
  -6  -5   3 1693.29 228.335   3
  -6  -5  -3 1759.38 259.777   3
   6   5  -3 2048.95 292.619   1
   6   5   3 1803.19 280.881   1
  -5   6   3 1797.91 240.061   3
   6   5   5 147.517 77.7599   1
  -5   6   5 173.848 81.2533   3
   6   5  -5 100.969 52.5376   1
  -6  -5  -5 178.245 88.5731   3
   6   5  -7 30.5715 23.1447   1
  -5   6   7 84.4358 64.5607   3
  -6  -5  -7 86.3398 70.0563   3
   6   5   7 40.7473 22.5506   1
   6   5   9 1990.26 322.502   1
  -6  -5  -9 1768.57 288.246   3
  -5   6  -9 1565.92 282.513   2
  -5   6   9 1630.34 275.632   4
   6   5  -9 1447.28 255.065   1
   6   5  11 165.811 90.6324   1
  -6  -5 -11 199.523 91.3985   3
  -5   6  11 231.795 109.475   4
  -6  -6   0 145484. 2245.21   3
   6   6   0 162108. 2786.81   1
   6   6   2-51.0947 67.6346   1
  -6   6   2-17.5028 39.3036   3
  -6  -6  -2 15.0920 31.3084   3
   6   6  -2-37.2889 71.1146   1
   6   6  -4 225884. 3276.55   1
  -6  -6  -4 222427. 2992.03   3
   6   6   4 230503. 3357.58   1
  -6   6   4 221127. 3008.46   3
   6   6  -6-11.4514 31.2261   1
  -6   6   6-1.19811 22.1084   3
   6   6   6 35.9427 41.5284   1
  -6  -6  -8 175185. 2860.30   3
   6   6   8 177725. 3038.42   1
  -6   6   8 172117. 2847.78   3
   6   7  -1 1657.41 295.449   1
   6   7   1 1330.80 265.827   1
   6   7  -3 121.260 74.1814   1
  -7   5   0 20.6958 35.9998   3
   5   7   0-47.3158 71.1605   1
   5   7  -2 203985. 3219.69   1
   5   7   2 204300. 3187.85   1
  -7   5   4 2339.68 320.837   3
   5   7  -4 2338.95 340.939   1
  -5  -7  -4 2149.49 283.717   3
   5   7   4 2566.52 364.241   1
   5   7  -6 191110. 3127.60   1
   5   7   6 192213. 3145.36   1
  -7   5   6 188234. 3031.55   3
  -7   5  -8 2494.02 365.553   2
  -7   5   8 2720.68 370.108   3
  -7   4   1 803.695 182.023   3
  -7   4  -1 757.527 173.426   3
   4   7  -1 1039.46 219.569   1
   4   7   1 767.998 187.985   1
  -7   4   3 477.350 143.566   3
  -7   4  -3 617.054 152.916   3
   4   7  -3 457.512 144.213   1
   4   7   3 441.048 140.975   1
  -7   4   5 1154.63 226.908   3
   4   7  -5 1358.14 261.307   1
  -7   4  -5 1233.68 244.426   2
   4   7   5 1213.17 241.101   1
   4   7   5 1234.26 225.442   4
  -7   4   7 1485.74 260.473   3
   4   7  -7 1388.03 261.968   1
   4   7   7 1481.91 252.898   4
  -7   4  -7 1466.35 268.681   2
   4   7   7 1695.37 289.006   1
  -7   4  -9 197.080 92.0440   2
  -7   4   9 386.530 133.537   3
   4   7   9 240.066 105.906   1
   4   7   9 324.638 119.831   4
   4   7  -9 213.269 89.4253   1
  -7   3   0-13.2663 26.4012   3
   3   7   0 42.0917 8.31158   1
  -7   3   2 280659. 3376.84   3
  -7   3  -2 272741. 3267.17   3
   3   7  -2 279458. 3431.35   1
   3   7   2 276715. 3214.44   4
   3   7   2 282544. 3390.19   1
  -7   3   4 1478.58 248.897   3
  -7   3  -4 1388.07 233.400   3
   3   7  -4 1342.19 248.584   1
   3   7   4 1402.24 239.361   4
   3   7   4 1481.66 256.042   1
  -7   3  -4 1283.05 239.038   2
  -7   3   6 239843. 3249.71   3
   3   7  -6 241802. 3382.78   1
  -7   3  -6 239744. 3034.43   3
   3   7   6 247426. 3206.71   4
  -7   3  -6 249157. 3386.13   2
   3   7   6 247488. 3309.15   1
  -7   3   8 1296.06 237.566   3
   3   7   8 1324.62 241.796   4
  -7   3  -8 1221.97 238.172   2
   3   7   8 1325.88 252.310   1
   3   7  -8 1272.09 254.630   1
  -7   3  10 175932. 2903.83   3
   3   7  10 178407. 2928.21   4
  -7   3 -10 174093. 2927.68   2
   3   7  10 180291. 3057.02   1
   3   7 -10 179559. 3124.46   1
   3   7  12 286.504 122.766   1
  -7   2   1 537.813 139.160   3
  -7   2  -1 935.962 190.248   3
   2   7   1 706.103 160.466   1
   2   7  -1 429.004 123.142   1
   2   7   1 612.067 143.987   4
  -7   2   3 6184.49 486.337   3
  -7   2  -3 6024.50 502.655   3
   2   7  -3 5971.38 489.148   1
  -7   2  -3 5964.97 502.360   2
   2   7   3 5588.89 453.001   4
   2   7   3 6196.74 485.742   1
   2   7  -5-14.6533 41.6594   1
  -7   2  -5-19.5481 60.8711   2
  -7   2   5 18.6222 27.0115   3
  -7   2  -5 27.2463 18.4487   3
   2   7   5 11.0273 13.8389   4
   2   7  -7 14.2075 39.1744   1
   2   7   7 119.097 67.9213   1
  -7   2  -7 115.332 74.2331   2
  -7   2  -7 62.4741 39.2359   3
   2   7   7 81.3496 48.8893   4
  -7   2   9 4449.33 443.675   3
   2   7   9 3967.15 431.600   4
  -7   2  -9 4309.38 452.490   2
   2   7   9 4739.62 460.119   1
   2   7  -9 4056.78 457.006   1
  -7   2 -11 28.9650 26.0644   2
  -7   2  11 70.8070 44.9588   3
   2   7 -11 23.4689 40.0019   1
   2   7  11 47.8524 38.9523   4
  -7   2  11-11.1739 47.0557   4
  -7   2  13 32.9975 45.4239   4
   1   7   0 21.6590 12.4659   1
  -7   1   0 16.7829 34.8197   3
   1   7   0 42.1552 42.9399   4
  -7   1   2 366250. 3712.06   3
  -7   1  -2 366074. 3935.92   3
   1   7  -2 366389. 3752.16   1
   1   7   2 369331. 3647.26   1
   1   7   2 363189. 3564.11   4
   1   7  -4 55.0801 42.7987   1
  -7   1   4 12.0790 19.7622   3
  -7   1  -4 91.6917 62.7227   3
   1   7   4 24.6640 24.6408   1
   1   7   4 101.507 49.3480   4
  -7   1   6 230655. 3031.17   3
  -7   1  -6 237706. 3294.06   3
  -7   1  -6 236615. 3098.28   2
   1   7   6 227184. 3001.65   4
   1   7   6 244154. 2978.51   1
   1   7  -6 232215. 3139.51   1
   1   7   8-11.4024 42.9769   1
  -7   1  -8-13.5129 51.1200   2
  -7   1   8 20.7820 25.9242   3
   1   7  -8-11.1218 41.4387   1
   1   7   8 8.42136 23.5853   4
  -7   1   8 62.9100 42.1572   4
  -7   1  10 233627. 3261.75   3
  -7   1 -10 233770. 3269.31   3
   1   7  10 235317. 3364.30   4
  -7   1 -10 239277. 3344.38   2
  -7   1  10 243647. 3420.68   4
   1   7 -10 241138. 3557.60   1
  -7   1  12-14.8548 32.8551   3
   1   7 -12 9.87242 21.2072   1
   1   7  12-46.4718 59.2499   4
  -7   1  12 5.63860 26.3296   4
   0   7  -1 253.337 88.3595   1
   0   7   1 307.633 91.9116   1
  -7   0   1 366.589 115.321   3
  -7   0  -1 286.052 101.732   3
   0   7  -1 277.613 92.9814   4
   0   7   1 335.563 106.377   4
   0   7  -3 594.413 141.759   1
   0   7   3 555.344 131.714   1
  -7   0   3 386.590 117.658   3
   0   7   3 266.319 93.4816   4
  -7   0   5 2312.33 293.622   3
  -7   0  -5 2351.97 317.141   3
   0   7   5 2670.71 290.726   1
  -7   0  -5 2720.54 317.960   2
   0   7   5 2293.23 291.405   4
   0   7  -5 2466.10 311.209   1
  -7   0   7 3576.76 376.799   3
  -7   0  -7 3235.39 369.672   3
  -7   0  -7 3513.88 373.986   2
   0   7   7 3481.22 371.920   4
  -7   0   7 3805.63 385.684   4
   0   7  -7 3559.64 385.315   1
  -7   0  -9 61.4995 29.7376   2
   0   7  -9 100.370 52.7083   1
  -7   0   9 85.1499 55.2045   4
  -7   0 -11 274.963 101.185   2
  -7   0  11 300.283 108.140   3
  -7   0 -11 278.889 111.754   3
   0   7 -11 365.972 139.785   1
   0   7  11 352.268 131.958   4
  -7   0  11 295.048 117.846   4
  -7   0  13 855.608 203.236   3
  -7   0 -13 866.276 197.446   3
   0   7  13 989.910 230.712   4
  -7   0 -13 1124.45 238.116   2
   0   7 -13 1141.04 259.094   1
  -7   0  13 843.148 219.055   4
   7   1   0 4.23731 13.8863   1
  -7  -1   0 19.7548 8.95333   3
  -1   7   2 298894. 2848.87   1
  -7  -1   2 300957. 3491.40   3
  -7  -1  -2 295881. 3540.08   3
   7   1   2 306822. 3027.94   1
  -1   7  -2 296355. 2984.59   4
  -1   7   2 293509. 3217.91   4
  -1   7  -2 301431. 3107.84   1
  -7  -1   4 374.610 125.594   3
  -7  -1  -4 106.440 51.8818   3
  -1   7  -4 199.213 83.8563   1
  -1   7   4 192.307 78.9281   4
  -7  -1   6 338267. 3565.94   3
  -7  -1  -6 342425. 3797.42   3
  -7  -1  -6 340175. 3539.37   2
  -1   7   6 335252. 3634.91   4
  -1   7  -6 336885. 3607.17   1
  -7  -1  -8 216.908 96.2096   2
  -7  -1   8 220.571 91.1226   3
  -7  -1  -8 166.447 80.5122   3
  -1   7  -8 265.638 108.962   1
  -1   7   8 199.572 96.0443   4
  -7  -1  10 172498. 2672.92   3
  -7  -1 -10 178788. 2943.05   3
  -7  -1 -10 178306. 2762.25   2
  -1   7  10 179536. 2960.17   4
  -1   7 -10 182710. 2989.59   1
  -7  -1 -12 27.1408 19.6904   2
  -7  -1  12 8.35095 21.2131   3
  -1   7  12 28.2221 43.9123   4
  -7  -1  12 7.47918 24.4400   4
  -7  -2   1 3980.92 401.901   3
  -7  -2  -1 3965.35 401.695   3
  -2   7  -1 3956.77 346.444   4
  -2   7   1 3785.55 353.850   4
   7   2  -1 3933.26 330.754   1
  -2   7  -1 4147.10 330.332   1
   7   2   1 3738.41 336.234   1
   7   2   3 397.185 117.472   1
  -7  -2   3 320.982 107.942   3
  -7  -2  -3 406.221 130.525   3
  -2   7  -3 332.918 98.4351   1
  -2   7   3 354.692 111.762   4
  -7  -2   5 1025.43 198.154   3
  -7  -2  -5 1004.35 201.248   3
  -2   7   5 1058.33 203.162   4
  -2   7  -5 971.850 179.946   1
  -7  -2   7 629.572 154.837   3
  -7  -2  -7 701.183 175.385   3
  -7  -2  -7 635.590 150.481   2
  -2   7   7 662.395 164.691   4
  -2   7  -7 684.295 163.941   1
  -7  -2   9 821.575 176.652   3
  -7  -2  -9 894.450 197.804   3
  -7  -2  -9 804.012 172.132   2
  -2   7   9 933.095 209.147   4
  -2   7  -9 964.713 205.657   1
  -7  -2 -11 4052.23 435.894   3
  -7  -2 -11 3992.94 402.898   2
  -2   7 -11 3908.75 431.819   1
  -2   7  11 4186.51 464.655   4
  -7  -3   0 52.3556 55.9945   3
  -3   7   0 2.63366 8.68231   4
  -7  -3   2 284369. 3345.45   3
  -7  -3  -2 291215. 3464.25   3
  -3   7   2 287752. 3085.50   4
   7   3  -2 282210. 3055.53   1
   7   3   2 279509. 3167.86   1
  -7  -3   4 339.210 115.182   3
  -7  -3  -4 323.592 114.621   3
   7   3  -4 320.310 97.9010   1
   7   3   4 306.835 107.795   1
  -3   7   4 327.637 107.958   4
  -7  -3   6 216246. 2852.00   3
  -7  -3  -6 216340. 3067.46   3
   7   3   6 218548. 3083.29   1
  -3   7  -6 220455. 2778.40   1
  -3   7   6 219473. 3022.51   4
  -3   7  -8 172.425 80.1204   1
  -7  -3   8 216.104 89.4002   3
  -7  -3  -8 225.292 97.3052   3
  -3   7   8 250.043 107.385   4
  -7  -3 -10 189318. 2996.70   3
  -3   7 -10 182162. 2845.87   1
  -3   7  10 187874. 3112.14   4
  -7  -4   1 658.033 160.999   3
  -7  -4  -1 786.963 180.255   3
   7   4  -1 801.961 178.990   1
   7   4   1 758.962 170.147   1
  -7  -4   3 137.169 68.6857   3
  -7  -4  -3 263.082 104.065   3
   7   4  -3 162.421 78.9184   1
   7   4   3 103.503 56.2337   1
   7   4   5 3623.98 398.435   1
  -7  -4   5 3675.40 365.324   3
   7   4  -5 3655.47 370.176   1
  -7  -4  -5 3996.90 418.907   3
  -4   7   5 3577.26 365.811   4
   7   4   7 2772.82 365.661   1
  -7  -4  -7 2774.17 351.053   3
  -4   7   7 2839.68 353.066   4
  -7  -4  -9 173.650 90.6408   3
   7   4   9 22.2020 37.3897   1
  -4   7   9 104.454 66.7109   4
  -7  -5   0 27.1999 40.8851   3
   7   5   0-49.5197 71.5336   1
  -7  -5   2 194592. 2713.17   3
  -7  -5  -2 195642. 2844.37   3
   7   5  -2 200758. 3010.11   1
   7   5   2 197153. 2984.23   1
  -7  -5  -4 1484.89 255.333   3
   7   5  -4 1355.59 242.887   1
   7   5   4 1426.44 258.662   1
   7   5  -6 151876. 2604.37   1
  -7  -5  -6 158777. 2649.58   3
   7   5   6 161348. 2791.62   1
  -7  -6  -1 187.516 81.2195   3
   7   6  -1 189.972 90.2903   1
   7   6   1 224.012 106.342   1
  -7  -6  -3 1133.03 214.991   3
   7   6  -3 1193.47 241.561   1
   7   6   3 1231.72 249.563   1
  -8   4   0 155305. 2779.02   3
   4   8   0 166978. 2951.66   1
  -8   4   2 570.814 170.536   3
  -8   4  -2 566.064 163.223   3
   4   8  -2 589.724 172.528   1
   4   8   2 801.512 201.890   1
  -8   4   4 193838. 3181.72   3
   4   8  -4 194141. 3216.83   1
   4   8   4 200322. 3281.63   1
  -8   4  -6 55.4669 58.4041   2
   4   8   6 47.9766 55.8539   1
  -8   3   1 3175.85 400.988   3
  -8   3  -1 3144.83 396.476   3
   3   8  -1 3081.40 382.863   1
   3   8   1 3110.32 387.322   1
   3   8  -3 88.5490 62.6143   1
  -8   3   3 126.057 75.6334   3
  -8   3  -3 175.333 83.5256   3
   3   8   3 92.5573 48.7585   1
  -8   3   5 855.648 206.830   3
   3   8  -5 724.550 186.420   1
  -8   3  -5 758.737 184.447   3
   3   8   5 925.008 217.624   1
  -8   3  -5 831.601 208.456   2
   3   8   5 728.597 179.028   4
  -8   3  -7 427.913 143.465   2
  -8   3   7 477.790 155.067   3
   3   8   7 406.641 140.211   4
   3   8   7 448.774 151.695   1
   3   8  -7 434.035 149.470   1
  -8   2   0 225735. 3316.56   3
   2   8   0 217593. 3130.84   1
   2   8  -2 28.0868 42.5858   1
  -8   2   2 37.3605 37.8013   3
  -8   2  -2 21.5460 24.4591   3
   2   8   2 12.6384 46.7951   1
   2   8   2 53.8094 62.2575   4
  -8   2   4 220986. 3328.20   3
  -8   2  -4 210493. 3327.71   3
   2   8   4 218796. 3141.19   1
   2   8   4 213583. 3079.53   4
   2   8  -6 77.6621 64.4662   1
  -8   2  -6-0.42124 20.6263   2
  -8   2   6 23.0859 22.9839   3
  -8   2  -6-14.1623 30.0862   3
   2   8   6 1.69773 22.5864   1
   2   8   6 4.54786 26.4778   4
  -8   2   8 182849. 3047.70   3
   2   8   8 176874. 2954.06   4
  -8   2  -8 179690. 2993.41   2
   2   8   8 173681. 2891.11   1
   2   8  -8 175202. 3081.14   1
  -8   1   1 1136.81 237.776   3
   1   8  -1 1116.11 219.762   1
  -8   1  -1 1140.27 240.980   3
   1   8   1 1186.83 217.551   1
   1   8   1 1154.98 217.901   4
   1   8  -3 488.484 144.300   1
  -8   1   3 555.929 159.073   3
   1   8   3 636.579 162.550   1
  -8   1  -3 508.161 161.866   3
   1   8   3 655.253 167.659   4
  -8   1   5 3237.16 396.222   3
   1   8   5 3154.34 362.969   1
  -8   1  -5 2994.29 378.498   2
   1   8   5 2924.54 360.632   4
   1   8  -5 2903.15 374.499   1
  -8   1   7 2292.70 337.211   3
  -8   1  -7 2370.82 352.178   3
  -8   1  -7 2285.45 329.856   2
   1   8   7 2418.71 337.611   4
   1   8  -7 2303.57 339.713   1
  -8   1   9 491.876 160.026   3
  -8   1  -9 367.051 132.834   2
  -8   1  -9 274.045 111.459   3
   1   8  -9 308.177 129.906   1
   1   8   9 284.375 118.947   4
   0   8   0 275049. 3277.65   1
  -8   0   0 272966. 3767.95   3
   0   8   0 274977. 3220.17   4
   0   8  -2 1133.29 214.102   1
  -8   0   2 1239.11 250.258   3
   0   8   2 1214.79 214.959   1
  -8   0  -2 1192.34 252.377   3
   0   8   2 1148.66 214.498   4
  -8   0   4 212229. 3164.61   3
  -8   0  -4 209343. 3302.30   3
   0   8   4 207365. 3041.41   4
   0   8  -4 208019. 3035.59   1
  -8   0  -6-25.1545 48.6530   2
  -8   0   6-3.44389 23.8111   3
  -8   0  -6 38.8939 52.9514   3
   0   8  -6 30.9862 36.4537   1
   0   8   6-6.54301 42.2583   4
  -8   0   8 176683. 2962.30   3
  -8   0  -8 173468. 3037.76   3
   0   8   8 175325. 2964.95   4
   0   8  -8 174931. 2993.27   1
  -8   0 -10 393.922 135.724   2
  -8   0 -10 571.291 168.078   3
  -8   0  10 444.890 146.179   3
   0   8 -10 609.797 181.817   1
   0   8  10 471.431 153.617   4
  -8  -1   1 2905.37 379.918   3
  -8  -1  -1 2563.98 357.504   3
  -1   8   1 2516.99 312.618   4
  -1   8  -1 2686.22 312.588   1
  -8  -1   3 748.912 187.278   3
  -8  -1  -3 772.161 193.136   3
  -1   8   3 755.204 179.524   4
  -1   8  -3 598.845 152.225   1
  -8  -1   5 142.284 77.7101   3
   8   1   5 196.433 82.4917   1
  -8  -1  -5 333.674 130.263   3
  -1   8  -5 183.388 84.8654   1
  -1   8   5 110.044 61.7197   4
  -8  -1  -7 761.884 188.306   3
  -8  -1   7 465.670 145.270   3
  -1   8   7 540.648 156.401   4
  -1   8  -7 424.805 134.447   1
  -8  -1  -9 74.0696 51.1343   2
  -8  -1   9 73.1201 49.6072   3
  -8  -1  -9 53.4408 52.1922   3
  -1   8  -9 91.9876 70.6348   1
  -1   8   9 61.5095 49.1375   4
  -8  -2   0 209714. 3228.60   3
  -2   8   0 212399. 2768.41   4
  -8  -2   2 257.443 111.195   3
  -8  -2  -2 439.629 147.144   3
   8   2   2 279.265 93.4886   1
  -2   8   2 265.271 98.0756   4
   8   2   4 221625. 2977.16   1
  -8  -2   4 230768. 3346.10   3
  -8  -2  -4 229812. 3300.87   3
  -2   8   4 218991. 3102.64   4
   8   2   6 13.6374 20.6397   1
  -8  -2   6 25.7149 37.8131   3
  -8  -2  -6 15.6859 3.43559   3
  -2   8  -6-0.72716 27.8123   1
  -2   8   6 4.84499 27.3069   4
  -8  -2   8 168047. 2778.85   3
  -8  -2  -8 170613. 2882.44   3
  -2   8   8 169800. 2931.59   4
  -2   8  -8 167227. 2774.48   1
  -2   8 -10 122.691 76.9405   1
   8   3   1 324.102 107.976   1
  -8  -3   1 395.178 131.479   3
  -8  -3  -1 354.550 131.016   3
  -8  -3   3 4271.04 450.568   3
  -8  -3  -3 4346.60 449.987   3
  -3   8   3 4087.10 400.719   4
   8   3   3 4037.13 406.345   1
   8   3   5 15.0211 21.1748   1
  -8  -3   5 80.9930 47.2051   3
  -8  -3  -5 198.870 99.4082   3
  -3   8   5 141.976 74.9145   4
   8   3   7 76.3755 50.1947   1
  -8  -3   7 96.9142 57.5370   3
  -8  -3  -7 109.237 57.6262   3
  -3   8   7 68.3251 49.2964   4
  -8  -4   0 173946. 2844.51   3
   8   4   0 164027. 2641.56   1
  -8  -4  -2 439.200 145.858   3
   8   4   2 273.245 105.460   1
  -8  -4   2 289.687 109.804   3
   8   4  -2 271.994 98.7332   1
  -8  -4   4 160862. 2653.00   3
  -8  -4  -4 169371. 2795.39   3
   8   4   4 165625. 2757.50   1
   8   4   6 107.865 60.9682   1
  -9   2  -1 1246.71 267.731   3
   2   9  -1 1517.40 272.717   1
   2   9   1 1229.42 247.816   1
   2   9  -3 767.505 196.793   1
  -9   2   3 934.306 233.558   3
  -9   2  -3 867.535 224.707   3
   2   9   3 842.696 204.061   1
   1   9   0-17.0502 40.1286   1
  -9   1   0 2.36773 17.6654   3
   1   9  -2 163965. 2832.82   1
  -9   1  -2 170278. 3217.10   3
   1   9   2 161988. 2765.14   1
   1   9   2 163935. 2720.65   4
  -9   1   4 1131.92 254.850   3
  -9   1  -4 977.915 240.677   3
   1   9   4 1034.03 222.092   4
   1   9  -4 1039.47 231.619   1
  -9   0   1 24.9051 28.2383   3
  -9   0  -1 80.6640 48.9322   3
   0   9  -1 32.3533 22.8823   1
  -9   0   3 1602.31 302.537   3
  -9   0  -3 1562.65 301.862   3
   0   9   3 1525.99 270.637   4
   0   9  -3 1387.23 255.871   1
  -9   0   5 43.8994 31.0135   3
  -9   0  -5 38.6742 36.6740   3
   0   9  -5 40.7235 13.6209   1
   0   9   5 83.6993 62.9632   4
  -9  -1   0 32.3685 51.5556   3
  -9  -1   2 179719. 3212.86   3
  -9  -1  -2 181052. 3204.23   3
  -9  -1   4 1876.13 320.431   3
  -9  -1  -4 1658.22 299.683   3
  -1   9   4 1660.78 280.620   4
  -9  -2   1 260.420 112.058   3
  -9  -2  -1 285.136 124.531   3
  -9  -2   3 155.540 89.6964   3
  -2   9   3 103.245 69.3030   4
   0   0   0    0.00    0.00   0

TITL TGron16_Yb01Cd99WMoO in I4(1)/a
REM I4(1)/a (#88 in standard setting)
CELL 0.71073   5.155392   5.155392  11.191969  90.0000  90.0000  90.0000
ZERR    1.00   0.000121   0.000121   0.000393   0.0000   0.0000   0.0000
LATT  2
SYMM -x+1/2,-y, z+1/2
SYMM -y+3/4, x+1/4, z+1/4
SYMM  y+3/4,-x+3/4, z+3/4
SFAC C H N O
UNIT 11.00 10.00 1.00 1.00
TREF
HKLF 4
END
;
_shelx_hkl_checksum              68882
loop_
_space_group_symop_operation_xyz
'x, y, z'
'-y+3/4, x+1/4, z+1/4'
'-x+1/2, -y, z+1/2'
'y+3/4, -x+3/4, z+3/4'
'x+1/2, y+1/2, z+1/2'
'-y+5/4, x+3/4, z+3/4'
'-x+1, -y+1/2, z+1'
'y+5/4, -x+5/4, z+5/4'
'-x, -y, -z'
'y-3/4, -x-1/4, -z-1/4'
'x-1/2, y, -z-1/2'
'-y-3/4, x-3/4, -z-3/4'
'-x+1/2, -y+1/2, -z+1/2'
'y-1/4, -x+1/4, -z+1/4'
'x, y+1/2, -z'
'-y-1/4, x-1/4, -z-1/4'
loop_
_atom_site_label
_atom_site_type_symbol
_atom_site_fract_x
_atom_site_fract_y
_atom_site_fract_z
_atom_site_U_iso_or_equiv
_atom_site_adp_type
_atom_site_occupancy
_atom_site_site_symmetry_order
_atom_site_calc_flag
_atom_site_refinement_flags_posn
_atom_site_refinement_flags_adp
_atom_site_refinement_flags_occupancy
_atom_site_disorder_assembly
_atom_site_disorder_group
Cd Cd 0.0000 0.2500 0.1250 0.00826(9) Uani 0.9706 4 d S T P . .
Yb Yb 0.0000 0.2500 0.1250 0.00826(9) Uani 0.0196 4 d S T P . .
O O 0.15600(11) -0.00537(11) 0.28876(5) 0.01192(15) Uani 1 1 d . . . . .
Mo Mo 0.0000 0.2500 0.6250 0.00752(9) Uani 0.9706 4 d S T P . .
W W 0.0000 0.2500 0.6250 0.00752(9) Uani 0.0294 4 d S T P . .
loop_
_atom_site_aniso_label
_atom_site_aniso_U_11
_atom_site_aniso_U_22
_atom_site_aniso_U_33
_atom_site_aniso_U_23
_atom_site_aniso_U_13
_atom_site_aniso_U_12
Cd 0.00852(10) 0.00852(10) 0.00774(12) 0.000 0.000 0.000
Yb 0.00852(10) 0.00852(10) 0.00774(12) 0.000 0.000 0.000
O 0.0116(2) 0.0122(2) 0.0119(2) 0.00209(16) -0.00089(16) -0.00122(17)
Mo 0.00650(10) 0.00650(10) 0.00955(13) 0.000 0.000 0.000
W 0.00650(10) 0.00650(10) 0.00955(13) 0.000 0.000 0.000
loop_
_atom_type_symbol
_atom_type_description
_atom_type_scat_dispersion_real
_atom_type_scat_dispersion_imag
_atom_type_scat_source
Mo Mo -1.6832 0.6857 'International Tables Vol C Tables 4.2.6.8 and 6.1.1.4'
O O 0.0106 0.0060 'International Tables Vol C Tables 4.2.6.8 and 6.1.1.4'
Cd Cd -0.8075 1.2024 'International Tables Vol C Tables 4.2.6.8 and 6.1.1.4'
Yb Yb -0.3850 5.5486 'International Tables Vol C Tables 4.2.6.8 and 6.1.1.4'
W W -0.8490 6.8722 'International Tables Vol C Tables 4.2.6.8 and 6.1.1.4'
loop_
_geom_angle_atom_site_label_1
_geom_angle_atom_site_label_2
_geom_angle_atom_site_label_3
_geom_angle
_geom_angle_site_symmetry_1
_geom_angle_site_symmetry_3
O Cd O 125.823(17) . 14
O Cd O 80.18(3) . 7_454
O Cd O 125.824(17) 14 7_454
O Cd O 125.824(17) . 12_666
O Cd O 80.18(3) 14 12_666
O Cd O 125.824(17) 7_454 12_666
O Cd O 75.33(2) . 13
O Cd O 153.39(2) 14 13
O Cd O 68.930(13) 7_454 13
O Cd O 73.660(11) 12_666 13
O Cd O 68.930(13) . 11_556
O Cd O 73.660(11) 14 11_556
O Cd O 75.33(2) 7_454 11_556
O Cd O 153.39(2) 12_666 11_556
O Cd O 132.79(3) 13 11_556
O Cd O 73.660(11) . 6_444
O Cd O 75.33(2) 14 6_444
O Cd O 153.39(2) 7_454 6_444
O Cd O 68.930(13) 12_666 6_444
O Cd O 99.227(10) 13 6_444
O Cd O 99.227(10) 11_556 6_444
O Cd O 153.39(2) . 4_454
O Cd O 68.930(13) 14 4_454
O Cd O 73.660(11) 7_454 4_454
O Cd O 75.33(2) 12_666 4_454
O Cd O 99.227(10) 13 4_454
O Cd O 99.227(10) 11_556 4_454
O Cd O 132.79(3) 6_444 4_454
O Cd Yb 100.971(14) . 9
O Cd Yb 37.803(13) 14 9
O Cd Yb 159.231(14) 7_454 9
O Cd Yb 70.415(14) 12_666 9
O Cd Yb 131.651(14) 13 9
O Cd Yb 85.666(13) 11_556 9
O Cd Yb 37.531(13) 6_444 9
O Cd Yb 101.771(14) 4_454 9
O Cd Yb 37.803(13) . 13
O Cd Yb 159.231(13) 14 13
O Cd Yb 70.415(14) 7_454 13
O Cd Yb 100.971(14) 12_666 13
O Cd Yb 37.531(13) 13 13
O Cd Yb 101.771(14) 11_556 13
O Cd Yb 85.666(13) 6_444 13
O Cd Yb 131.651(14) 4_454 13
Yb Cd Yb 122.746(1) 9 13
O Cd Yb 70.415(14) . 13_455
O Cd Yb 100.971(14) 14 13_455
O Cd Yb 37.803(13) 7_454 13_455
O Cd Yb 159.231(13) 12_666 13_455
O Cd Yb 101.771(14) 13 13_455
O Cd Yb 37.531(13) 11_556 13_455
O Cd Yb 131.651(14) 6_444 13_455
O Cd Yb 85.666(13) 4_454 13_455
Yb Cd Yb 122.746(2) 9 13_455
Yb Cd Yb 85.307(2) 13 13_455
O Cd Yb 159.231(14) . 9_565
O Cd Yb 70.415(14) 14 9_565
O Cd Yb 100.971(14) 7_454 9_565
O Cd Yb 37.803(13) 12_666 9_565
O Cd Yb 85.666(13) 13 9_565
O Cd Yb 131.651(14) 11_556 9_565
O Cd Yb 101.771(14) 6_444 9_565
O Cd Yb 37.531(13) 4_454 9_565
Yb Cd Yb 85.307(2) 9 9_565
Yb Cd Yb 122.746(2) 13 9_565
Yb Cd Yb 122.746(2) 13_455 9_565
W O Mo 0.0 9_556 9_556
W O Cd 130.73(3) 9_556 .
Mo O Cd 130.73(3) 9_556 .
W O Cd 120.15(3) 9_556 13
Mo O Cd 120.15(3) 9_556 13
Cd O Cd 104.67(2) . 13
W O Yb 120.15(3) 9_556 13
Mo O Yb 120.15(3) 9_556 13
Cd O Yb 104.7 . 13
Cd O Yb 0.0 13 13
O Mo O 107.097(17) 15_556 2_455
O Mo O 114.33(4) 15_556 9_556
O Mo O 107.097(18) 2_455 9_556
O Mo O 107.097(18) 15_556 8_444
O Mo O 114.33(4) 2_455 8_444
O Mo O 107.097(17) 9_556 8_444
O Mo Yb 34.874(18) 15_556 5
O Mo Yb 100.457(18) 2_455 5
O Mo Yb 145.126(18) 9_556 5
O Mo Yb 79.543(18) 8_444 5
O Mo Yb 145.126(18) 15_556 5_445
O Mo Yb 79.543(18) 2_455 5_445
O Mo Yb 34.874(18) 9_556 5_445
O Mo Yb 100.457(18) 8_444 5_445
Yb Mo Yb 180.0 5 5_445
O Mo Yb 79.543(18) 15_556 5_455
O Mo Yb 34.874(18) 2_455 5_455
O Mo Yb 100.457(18) 9_556 5_455
O Mo Yb 145.126(18) 8_444 5_455
Yb Mo Yb 90.0 5 5_455
Yb Mo Yb 90.0 5_445 5_455
O Mo Yb 100.457(18) 15_556 5_545
O Mo Yb 145.126(18) 2_455 5_545
O Mo Yb 79.543(18) 9_556 5_545
O Mo Yb 34.874(18) 8_444 5_545
Yb Mo Yb 90.0 5 5_545
Yb Mo Yb 90.0 5_445 5_545
Yb Mo Yb 180.0 5_455 5_545
loop_
_geom_bond_atom_site_label_1
_geom_bond_atom_site_label_2
_geom_bond_distance
_geom_bond_site_symmetry_2
Cd O 2.3956(5) .
Cd O 2.3956(5) 14
Cd O 2.3956(5) 7_454
Cd O 2.3956(5) 12_666
Cd O 2.4104(6) 13
Cd O 2.4104(6) 11_556
Cd O 2.4104(6) 6_444
Cd O 2.4104(6) 4_454
Cd Yb 3.80438(8) 9
Cd Yb 3.80438(9) 13
Cd Yb 3.80438(9) 13_455
Cd Yb 3.80438(8) 9_565
O W 1.7802(5) 9_556
O Mo 1.7802(5) 9_556
O Cd 2.4104(6) 13
O Yb 2.4104(6) 13
Mo O 1.7802(5) 15_556
Mo O 1.7802(5) 2_455
Mo O 1.7802(5) 9_556
Mo O 1.7802(5) 8_444
Mo Yb 3.64541(9) 5
Mo Yb 3.64541(9) 5_445
Mo Yb 3.64541(8) 5_455
Mo Yb 3.64541(9) 5_545
