#------------------------------------------------------------------------------
#$Date: 2021-04-16 11:25:30 +0300 (Fri, 16 Apr 2021) $
#$Revision: 264239 $
#$URL: file:///home/coder/svn-repositories/cod/cif/1/56/18/1561849.cif $
#------------------------------------------------------------------------------
#
# This file is available in the Crystallography Open Database (COD),
# http://www.crystallography.net/
#
# All data on this site have been placed in the public domain by the
# contributors.
#
data_1561849
loop_
_publ_author_name
'Abeysinghe, Dileka'
'Gerke, Birgit'
'Morrison, Gregory'
'Hsieh, Chun H.'
'Smith, Mark D.'
'P\"ottgen, Rainer'
'Makris, Thomas M.'
'zur Loye, Hans-Conrad'
_publ_section_title
;
 Synthesis, characterization, and properties of reduced europium
 molybdates and tungstates
;
_journal_name_full               'Journal of Solid State Chemistry'
_journal_page_first              173
_journal_page_last               180
_journal_paper_doi               10.1016/j.jssc.2015.05.014
_journal_volume                  229
_journal_year                    2015
_chemical_formula_moiety         'Eu Mo O4'
_chemical_formula_sum            'Eu Mo O4'
_chemical_formula_weight         311.90
_space_group_crystal_system      tetragonal
_space_group_IT_number           88
_space_group_name_Hall           '-I 4ad'
_space_group_name_H-M_alt        'I 41/a :2'
_atom_sites_solution_hydrogens   .
_audit_creation_method           SHELXL-2014/6
_cell_angle_alpha                90
_cell_angle_beta                 90
_cell_angle_gamma                90
_cell_formula_units_Z            4
_cell_length_a                   5.39090(10)
_cell_length_b                   5.39090(10)
_cell_length_c                   12.0060(5)
_cell_measurement_reflns_used    2527
_cell_measurement_temperature    296(2)
_cell_measurement_theta_max      34.898
_cell_measurement_theta_min      3.394
_cell_volume                     348.916(17)
_computing_cell_refinement       'SAINT-Plus Version 6.45 (Bruker, 2001)'
_computing_data_collection       'SMART Version 5.631 (Bruker, 2001)'
_computing_data_reduction        'SAINT-Plus Version 6.45 (Bruker, 2001)'
_computing_molecular_graphics    various
_computing_publication_material  various
_computing_structure_refinement  'SHELXL-2014/6 (Sheldrick, 2014)'
_computing_structure_solution    'SHELXS97 (Sheldrick, 2008)'
_diffrn_ambient_temperature      296(2)
_diffrn_measured_fraction_theta_full 1.000
_diffrn_measured_fraction_theta_max 0.992
_diffrn_measurement_device_type  'Bruker SMART APEX CCD diffractometer'
_diffrn_measurement_method       'omega and phi scans'
_diffrn_radiation_type           MoK\a
_diffrn_radiation_wavelength     0.71073
_diffrn_reflns_av_R_equivalents  0.0206
_diffrn_reflns_av_unetI/netI     0.0129
_diffrn_reflns_Laue_measured_fraction_full 1.000
_diffrn_reflns_Laue_measured_fraction_max 0.992
_diffrn_reflns_limit_h_max       8
_diffrn_reflns_limit_h_min       -8
_diffrn_reflns_limit_k_max       8
_diffrn_reflns_limit_k_min       -8
_diffrn_reflns_limit_l_max       18
_diffrn_reflns_limit_l_min       -19
_diffrn_reflns_number            3578
_diffrn_reflns_point_group_measured_fraction_full 1.000
_diffrn_reflns_point_group_measured_fraction_max 0.992
_diffrn_reflns_theta_full        25.242
_diffrn_reflns_theta_max         34.949
_diffrn_reflns_theta_min         4.144
_diffrn_source                   'sealed tube'
_exptl_absorpt_coefficient_mu    21.243
_exptl_absorpt_correction_T_max  1.0000
_exptl_absorpt_correction_T_min  0.5550
_exptl_absorpt_correction_type   multi-scan
_exptl_absorpt_process_details   'SADABS Version 2.05 (Bruker, 2001)'
_exptl_crystal_colour            black
_exptl_crystal_density_diffrn    5.938
_exptl_crystal_description       'square bipyramid'
_exptl_crystal_F_000             548
_exptl_crystal_size_max          0.080
_exptl_crystal_size_mid          0.060
_exptl_crystal_size_min          0.040
_refine_diff_density_max         0.776
_refine_diff_density_min         -0.770
_refine_diff_density_rms         0.174
_refine_ls_extinction_coef       0.0210(6)
_refine_ls_extinction_expression Fc^*^=kFc[1+0.001xFc^2^\l^3^/sin(2\q)]^-1/4^
_refine_ls_extinction_method     SHELXL
_refine_ls_goodness_of_fit_ref   1.143
_refine_ls_hydrogen_treatment    undef
_refine_ls_matrix_type           full
_refine_ls_number_parameters     15
_refine_ls_number_reflns         390
_refine_ls_number_restraints     0
_refine_ls_restrained_S_all      1.143
_refine_ls_R_factor_all          0.0184
_refine_ls_R_factor_gt           0.0155
_refine_ls_shift/su_max          0.000
_refine_ls_shift/su_mean         0.000
_refine_ls_structure_factor_coef Fsqd
_refine_ls_weighting_details
'w=1/[\s^2^(Fo^2^)+(0.0121P)^2^+1.4283P] where P=(Fo^2^+2Fc^2^)/3'
_refine_ls_weighting_scheme      calc
_refine_ls_wR_factor_gt          0.0342
_refine_ls_wR_factor_ref         0.0357
_reflns_number_gt                346
_reflns_number_total             390
_reflns_threshold_expression     'I > 2\s(I)'
_cod_data_source_file            JSSC-2015-229-173.cif
_cod_data_source_block           da1155bs
_cod_original_cell_volume        348.916(19)
_cod_original_sg_symbol_H-M      'I 41/a'
_cod_database_code               1561849
_shelx_space_group_comment
; 
The symmetry employed for this shelxl refinement is uniquely defined 
by the following loop, which should always be used as a source of 
symmetry information in preference to the above space-group names. 
They are only intended as comments. 
;
_shelx_estimated_absorpt_t_min   0.281
_shelx_estimated_absorpt_t_max   0.484
_shelxl_version_number           2014/6
_shelx_res_file
; 
TITL DA1155Bs in I4(1)/a 
CELL 0.71073   5.3909   5.3909  12.0060  90.000  90.000  90.000 
ZERR    4.00   0.0001   0.0001   0.0005   0.000   0.000   0.000 
LATT  2 
SYMM 0.5-X, -Y, 0.5+Z 
SYMM 0.75-Y, 0.25+X, 0.25+Z 
SYMM 0.75+Y, 0.75-X, 0.75+Z 
SFAC O MO EU 
UNIT 16 4 4 
LIST 4 
TEMP 23 
ACTA 
SIZE 0.08         0.06         0.04 
REM black square bipyramid 
REM 2527 refl / 2th = 6.788 - 69.795 
REM  sadabs 0.555006 
L.S. 7 
BOND 
FMAP 2 
PLAN 9 
WGHT    0.012100    1.428300 
EXTI    0.021003 
FVAR       0.41890 
EU1   3    0.000000    0.250000    0.625000    10.25000    0.01131    0.01131 = 
         0.01094    0.00000    0.00000    0.00000 
MO1   2    0.000000    0.250000    0.125000    10.25000    0.00912    0.00912 = 
         0.01178    0.00000    0.00000    0.00000 
O1    1    0.136597    0.011883    0.206309    11.00000    0.01472    0.01610 = 
         0.01643    0.00248    0.00102    0.00217 
  
HKLF 4 
  
REM  DA1155Bs in I4(1)/a 
REM R1 =  0.0155 for     346 Fo > 4sig(Fo)  and  0.0184 for all     390 data 
REM     15 parameters refined using      0 restraints 
  
END 
  
WGHT      0.0121      1.4283 
  
REM Highest difference peak  0.776,  deepest hole -0.770,  1-sigma level  0.174 
Q1    1  -0.1071  0.1606  0.6219  11.00000  0.05    0.78 
Q2    1  -0.0174  0.1959  0.5615  11.00000  0.05    0.56 
Q3    1   0.4242  0.1318  0.1271  11.00000  0.05    0.53 
Q4    1   0.1723  0.1420  0.1771  11.00000  0.05    0.53 
Q5    1   0.0484  0.0784  0.6224  11.00000  0.05    0.50 
Q6    1  -0.0182 -0.0561  0.0992  11.00000  0.05    0.48 
Q7    1   0.2397  0.0505  0.1422  11.00000  0.05    0.44 
Q8    1   0.1456 -0.2290  0.2405  11.00000  0.05    0.41 
Q9    1   0.1785 -0.0968  0.1798  11.00000  0.05    0.41 
;
_shelx_res_checksum              82982
_shelx_hkl_file
; 
  -1  -1   0    0.32    2.16   6 
  -2   0   0 7785.21  152.86   4 
   0  -2   0 7595.25  151.61   4 
   0  -2   0 7650.65  159.12   6 
   2   0   0 7726.40  162.56   6 
   0   2   0 7739.44  171.20   5 
   2   2   0 9467.65  183.31   3 
   2   2   0 9491.99  211.23   2 
  -2   2   0 9054.04  201.98   5 
  -2   2   0 9368.81  183.28   4 
  -2  -2   0 9281.73  183.87   4 
   2  -2   0 8972.99  194.62   6 
   2   2   0 9281.58  194.30   6 
   2   2   0 9013.55  206.02   5 
  -2   2   0 9520.97  202.09   1 
  -1   3   0   -4.01    1.80   5 
  -1   3   0   -6.00    1.34   1 
   1  -3   0   -2.65    1.48   6 
  -3  -1   0   -1.95    1.72   4 
   3   1   0   -3.65    1.37   3 
   3   1   0   -1.74    1.84   6 
  -3  -1   0   -5.02    1.21   1 
   3   1   0   -2.93    1.08   5 
   3   1   0   -3.12    1.88   2 
  -1   3   0   -3.97    1.49   4 
   1   3   0   -2.15    1.62   3 
   3  -1   0   -0.85    1.60   3 
   1   3   0   -2.66    1.94   2 
   1   3   0   -0.04    1.83   1 
  -1  -3   0    0.04    1.67   6 
  -1  -3   0   -4.23    1.45   4 
   1   3   0   -4.52    1.99   5 
  -3   1   0   -0.22    2.31   1 
  -3   1   0   -3.85    1.68   4 
   3  -1   0   -4.75    1.70   6 
  -3   1   0   -4.78    0.74   5 
   3   3   0   -2.15    2.17   5 
  -3   3   0   -2.82    1.43   5 
  -3  -3   0    2.12    2.33   4 
  -3   3   0   -3.64    1.62   1 
   3   3   0   -1.90    1.65   6 
  -3   3   0    0.83    1.99   4 
   3   3   0   -3.45    1.80   2 
   3   3   0    2.29    2.70   3 
   3  -3   0    1.41    2.22   6 
  -3  -3   0   -1.87    1.66   1 
  -4  -2   0 7399.34  157.33   1 
  -2   4   0 7074.45  165.41   1 
  -2   4   0 7075.18  166.62   5 
   4   2   0 6990.10  159.94   5 
   4   2   0 7171.75  159.96   6 
   4   2   0 7047.00  173.16   2 
  -4  -2   0 7343.82  152.75   4 
   2  -4   0 7066.75  155.32   6 
  -2   4   0 7153.71  148.97   4 
   4   2   0 7109.81  151.69   3 
   0  -4   0 7039.02  144.74   4 
   4   0   0 7039.18  162.27   2 
   0   4   0 6879.88  157.10   1 
   0  -4   0 7131.30  148.68   6 
   4   0   0 7049.45  158.59   6 
   0   4   0 6984.70  161.83   2 
   4   0   0 6950.21  144.01   3 
   0   4   0 6945.56  167.00   5 
  -4   0   0 7071.15  157.45   1 
  -4   0   0 7043.33  147.84   4 
   2   4   0 6847.65  139.91   3 
  -2  -4   0 6498.59  141.38   4 
   2   4   0 6504.54  163.92   5 
  -4   2   0 6708.76  157.45   1 
   4  -2   0 6653.08  151.67   6 
   2   4   0 6927.55  163.43   2 
   2   4   0 6676.85  146.15   1 
  -4   2   0 6804.15  142.16   4 
   4   4   0 3395.87   86.08   3 
   4   4   0 3417.49   99.66   2 
  -4   4   0 3433.14   83.15   4 
   4  -4   0 3341.59   86.56   6 
   4   4   0 3347.25   92.71   5 
  -4  -4   0 3411.22   84.46   4 
  -4   4   0 3477.96   97.67   1 
  -5  -3   0    7.21    3.46   4 
   3  -5   0    1.29    1.87   6 
  -3   5   0   -0.27    2.40   5 
  -3   5   0   -0.39    3.28   1 
   5   3   0   -0.88    2.66   2 
   5   3   0   -0.68    2.58   6 
  -3   5   0    1.92    1.83   4 
   5   3   0   -3.22    2.02   3 
  -5  -1   0    1.64    1.95   4 
   1  -5   0    5.24    2.83   4 
  -1   5   0   -1.72    2.44   5 
   5   1   0    0.52    2.41   6 
  -5  -1   0   -2.50    1.85   1 
   5   1   0    0.09    2.19   2 
  -1   5   0    1.34    2.66   1 
   5   1   0   -0.99    1.95   3 
   5  -1   0   -1.71    1.72   6 
   1   5   0   -1.27    1.35   3 
  -1  -5   0   -0.05    1.55   4 
  -5   1   0    6.06    2.66   4 
   1   5   0    1.54    2.43   2 
   1   5   0    4.63    2.53   1 
  -5   1   0   -0.12    2.06   1 
   1   5   0    3.67    2.16   5 
   5  -1   0   -2.77    1.72   3 
   3   5   0    0.94    2.21   5 
   3   5   0    2.82    2.87   3 
  -5   3   0    4.15    3.50   1 
   3   5   0    1.90    3.30   2 
  -3  -5   0    1.98    2.59   4 
   5   5   0    0.00    2.83   2 
  -5  -5   0    4.62    3.23   4 
   5   5   0   -2.17    3.32   3 
  -5   5   0   -1.35    2.46   1 
   6   4   0 3021.65   85.92   3 
   6   4   0 3035.69   99.14   2 
  -6  -4   0 3105.18   85.53   4 
  -4   6   0 3177.70   95.80   1 
   2  -6   0 3197.33   78.51   4 
  -2   6   0 3126.10   90.25   1 
  -6  -2   0 3051.67   82.91   4 
  -2   6   0 3173.24   92.50   5 
   6   2   0 3181.24   86.84   6 
   6   2   0 3137.60   92.33   2 
  -6  -2   0 3001.34   82.52   1 
   6   2   0 3127.23   82.99   3 
   0   6   0 3697.28  107.45   5 
  -6   0   0 3552.56   96.39   1 
   6   0   0 3530.53   87.97   3 
   0   6   0 3628.85   94.23   1 
   6   0   0 3616.17   97.82   6 
   0  -6   0 3810.87   88.02   4 
  -6   2   0 3529.28  100.37   1 
  -2  -6   0 3599.86   87.78   4 
   2   6   0 3574.70  101.58   2 
   4   6   0 3044.72   80.18   3 
  -4  -6   0 3044.07   80.44   4 
   4   6   0 2801.94   94.57   2 
  -6   4   0 2921.41   93.75   1 
   6   6   0 1306.92   52.13   3 
   7   5   0    5.08    4.46   3 
  -7  -3   0   -1.92    3.43   4 
  -3   7   0    2.29    3.19   1 
   7   3   0   -3.92    3.21   2 
   3  -7   0   -1.01    2.98   4 
   7   1   0    0.27    2.80   3 
  -7  -1   0   -1.52    3.00   1 
  -1   7   0   -2.62    2.19   1 
  -1   7   0   -3.30    3.34   5 
   7   1   0   -0.06    3.15   6 
   1  -7   0   -1.79    2.94   4 
  -1  -7   0   -6.97    2.40   4 
  -7   1   0   -0.32    3.12   1 
   7  -1   0    2.33    2.74   6 
   3   7   0   -0.85    4.26   2 
  -7   3   0    4.03    3.83   1 
  -3  -7   0    1.90    3.63   4 
  -7   5   0   -3.37    3.59   1 
   5   7   0   -8.90    4.32   3 
   5   7   0   -3.18    3.72   2 
   8   2   0 1691.09   62.53   6 
   8   0   0 2117.52   71.53   6 
   0   8   0 1859.57   74.31   5 
  -8   0   0 2134.22   68.55   1 
  -8   2   0 1373.83   55.31   1 
  -2  -8   0 1383.87   47.49   4 
   0  -1  -1  413.56   11.65   6 
   0  -1   1  408.56   11.71   4 
   1   0  -1  399.27   11.53   6 
   0   1  -1  418.53   12.74   5 
  -1   0  -1  405.97   11.67   4 
   1   0   1  422.33   10.55   5 
   1   0   1  407.25   12.54   6 
   1   0  -1  408.11   11.00   5 
   0  -1   1  405.05    9.64   6 
   0  -1  -1  402.27   10.16   4 
  -1   0   1  418.57   11.19   4 
   0   1   1  372.71   13.37   5 
  -1   2  -1  103.94    6.33   4 
   2   1   1   96.41    6.62   3 
  -2  -1   1  103.56    6.47   4 
   2   1   1  109.00    6.03   5 
  -1   2  -1   87.52    6.00   5 
  -1   2   1   99.22    5.58   4 
  -2  -1  -1  109.15    6.55   4 
  -1   2   1  102.65    7.43   5 
   2   1  -1  101.65    6.04   6 
   2   1  -1  107.94    5.92   5 
   1  -2  -1  111.28    6.21   6 
   1  -2   1  107.16    5.41   6 
   2   1  -1   97.13    6.72   2 
   2   1  -1  101.32    6.19   3 
  -1   2  -1  104.59    7.73   1 
  -1  -2  -1 1692.95   39.03   4 
  -2   1   1 1846.73   42.41   5 
   1   2  -1 1755.46   46.03   5 
  -2   1   1 1692.92   39.96   4 
  -2   1  -1 1772.97   39.02   5 
  -1  -2   1 1661.76   40.22   4 
   2  -1   1 1729.77   42.88   6 
  -2   1  -1 1674.72   45.60   1 
  -1  -2  -1 1702.91   41.85   6 
   1   2  -1 1718.12   37.96   6 
  -2   1  -1 1727.57   40.93   4 
   1   2  -1 1695.72   45.37   2 
  -2   1   1 1733.16   45.39   1 
   2  -1  -1 1676.76   42.37   6 
   1   2   1 1747.11   46.79   5 
   1   2   1 1665.21   47.17   2 
   3   2   1   33.35    4.98   5 
  -3  -2   1   49.45    5.13   1 
  -2   3  -1   27.62    4.94   1 
   2  -3  -1   39.67    4.63   6 
   3   2   1   38.99    5.89   2 
   3   2   1   40.36    5.04   3 
  -2   3   1   42.63    5.54   5 
  -2   3   1   39.92    4.42   4 
  -3  -2   1   36.15    4.84   4 
  -2   3   1   49.34    6.54   1 
   3   2  -1   38.90    4.50   6 
   3   2  -1   39.59    4.68   5 
  -3  -2  -1   36.41    3.96   1 
   2  -3   1   35.83    4.11   6 
  -2   3  -1   26.80    3.93   5 
   3   2  -1   36.81    5.55   2 
  -2   3  -1   33.46    4.47   4 
  -3  -2  -1   31.12    4.41   4 
   3   2  -1   52.87    5.69   3 
   3   2   1   31.19    4.76   6 
   0  -3  -1  704.52   20.42   6 
   0  -3   1  683.57   21.58   4 
   0  -3  -1  668.48   20.47   4 
  -3   0   1  692.61   22.50   4 
   3   0   1  683.65   24.27   6 
   3   0  -1  686.71   20.60   3 
  -3   0  -1  685.80   23.75   1 
   3   0  -1  698.28   22.27   2 
   3   0   1  669.39   20.95   3 
  -3   0   1  678.58   23.87   1 
  -3   0  -1  674.16   22.73   4 
   0   3  -1  700.73   22.01   2 
   0   3   1  673.76   26.41   5 
   3   0  -1  687.36   17.87   5 
   0  -3   1  721.58   17.89   6 
   0   3  -1  685.78   24.89   1 
   3   0  -1  677.69   23.01   6 
   0   3  -1  671.95   25.40   5 
   0   3   1  665.27   23.07   1 
   0   3   1  663.56   23.16   2 
  -2  -3  -1  642.93   21.61   4 
  -3   2   1  654.75   26.69   1 
  -2  -3  -1  650.51   21.95   6 
   2   3  -1  649.78   25.90   5 
  -3   2  -1  644.48   27.08   1 
   2   3   1  653.71   22.82   3 
   2   3   1  645.28   26.66   5 
   2   3  -1  655.06   21.81   3 
   3  -2  -1  654.55   24.10   6 
  -3   2  -1  635.75   18.69   5 
   2   3  -1  663.04   19.07   6 
  -3   2   1  613.58   20.45   5 
   3  -2   1  632.30   22.96   6 
   2   3   1  641.67   26.91   2 
  -3   2   1  659.62   21.85   4 
  -2  -3   1  658.60   22.90   4 
   2   3  -1  631.29   25.70   2 
  -3   2  -1  614.32   22.51   4 
   4   3  -1  148.33   11.66   3 
   4   3   1  142.79   12.14   3 
  -3   4   1  144.04   10.07   4 
  -3   4  -1  126.79   13.04   1 
   4   3  -1  132.41   12.71   2 
  -4  -3   1  140.89   11.34   4 
   3  -4  -1  147.57   10.34   6 
  -3   4  -1  141.90   10.41   5 
   3  -4   1  157.61   10.49   6 
  -4  -3   1  152.71   10.48   1 
  -3   4   1  157.65   14.17   1 
  -4  -3  -1  127.86   10.61   4 
   4   3  -1  126.26    9.72   6 
   4   3   1  159.50   12.19   6 
   4   3   1  143.20   13.44   2 
  -3   4  -1  143.52   10.57   4 
   4   3   1  146.92   11.26   5 
  -3   4   1  144.13   10.88   5 
   4   3  -1  161.96   11.44   5 
   4   1   1  302.13   16.62   6 
  -1   4   1  290.50   17.39   5 
  -4  -1   1  298.31   15.59   1 
   4   1  -1  320.48   16.59   2 
  -1   4  -1  319.31   18.23   1 
  -1   4   1  297.99   16.60   1 
   1  -4   1  327.41   12.51   6 
  -4  -1   1  290.49   15.63   4 
   1  -4  -1  314.68   13.83   6 
  -1   4  -1  291.76   16.76   5 
   4   1   1  308.36   16.65   2 
  -1   4   1  294.29   12.86   2 
  -4  -1  -1  310.14   15.18   1 
  -4  -1  -1  293.03   15.58   4 
   4   1  -1  308.98   11.53   5 
   1  -4   1  306.97   15.29   4 
   4   1  -1  308.03   15.68   6 
   4   1  -1  309.61   15.21   3 
   1  -4  -1  283.63   13.62   4 
   4   1   1  304.54   15.55   3 
   1   4   1  187.70   14.48   5 
  -4   1  -1  180.46   12.99   1 
   1   4  -1  196.47   14.76   5 
   4  -1  -1  167.62   11.82   6 
  -1  -4  -1  195.14   10.31   6 
  -4   1  -1  192.17   12.01   4 
  -4   1   1  199.72   13.85   1 
   4  -1  -1  190.96    9.74   3 
  -4   1   1  199.87   11.71   4 
  -1  -4   1  174.84   11.06   4 
   1   4  -1  185.50   12.12   2 
   4  -1   1  200.18   10.11   3 
   1   4  -1  175.69    9.17   3 
   1   4   1  194.83   10.55   3 
   4  -1   1  213.18   13.40   6 
  -1  -4  -1  174.56   10.21   4 
   1   4   1  172.92   12.40   2 
  -4   3  -1  233.98   17.72   1 
  -4   3   1  254.69   14.44   4 
   3   4   1  230.40   14.85   3 
   3   4  -1  254.98   16.87   5 
   4  -3  -1  235.85   14.72   6 
   4  -3   1  268.45   15.41   6 
  -3  -4   1  272.66   15.47   4 
  -3  -4   1  247.46   13.97   1 
  -4   3  -1  266.02   14.78   4 
  -4   3   1  256.64   18.34   1 
  -3  -4  -1  231.23   14.13   4 
   3   4   1  273.70   14.42   6 
   3   4   1  250.07   18.49   2 
   3   4   1  258.82   18.08   5 
   3   4  -1  250.16   17.55   2 
   3   4  -1  265.76   14.84   3 
   5   4  -1   84.77   11.75   2 
  -4   5   1  111.09   13.18   1 
  -5  -4   1  119.92   11.59   4 
   5   4  -1  108.86   11.47   3 
   4  -5   1  122.86   10.55   6 
   5   4   1  139.95   15.22   2 
  -5  -4  -1  110.56   11.28   4 
   5   4   1  111.73   12.54   3 
  -4   5  -1  125.35   14.41   1 
   2  -5  -1  318.60   16.41   4 
  -5  -2  -1  335.48   17.04   1 
   5   2  -1  319.91   20.36   2 
   2  -5  -1  335.85   16.25   6 
  -2   5   1  318.72   19.54   5 
   2  -5   1  324.51   16.79   4 
  -5  -2  -1  313.95   18.20   4 
   5   2   1  323.52   19.22   6 
   5   2   1  359.08   21.84   2 
  -5  -2   1  263.30   16.94   4 
   5   2   1  334.67   19.08   3 
   5   2  -1  322.69   18.38   3 
  -2   5   1  330.53   20.62   1 
   5   2  -1  322.22   18.14   6 
  -5  -2   1  317.96   17.70   1 
  -2   5  -1  319.43   19.32   5 
  -2   5  -1  371.52   22.32   1 
  -5   0  -1  152.56   11.98   4 
  -5   0   1  145.88   11.54   4 
   0   5   1  139.25   10.73   2 
   5   0   1  156.38   11.07   3 
   0   5  -1  145.36   13.88   5 
   0   5  -1  153.94   12.48   1 
   5   0  -1  173.00   11.73   2 
  -5   0   1  148.97   12.23   1 
   5   0  -1  154.03   12.36   6 
   5   0   1  138.43   12.64   6 
  -5   0  -1  151.56   12.14   1 
   0   5   1  162.91   11.82   1 
   0  -5  -1  161.98   10.57   4 
   0  -5   1  144.48   10.78   4 
   5   0  -1  145.25   10.84   3 
   0   5  -1  167.11   10.99   2 
   5   0   1  170.02   11.53   2 
   0   5   1  126.86   13.06   5 
   2   5   1   55.95    8.33   2 
   2   5   1   64.37    9.44   5 
   5  -2   1   68.28    8.31   6 
   2   5  -1   49.27    7.52   2 
   2   5  -1   63.55    6.93   1 
  -2  -5   1   66.86    7.67   4 
   2   5  -1   62.10    6.76   3 
  -5   2   1   57.91    8.58   1 
   2   5  -1   71.65    9.62   5 
  -5   2  -1   65.70    7.68   4 
   5  -2  -1   71.71    8.84   6 
  -5   2  -1   51.38    8.25   1 
  -5   2   1   58.23    6.81   4 
  -2  -5  -1   64.44    7.14   4 
   2   5   1   65.85    7.24   3 
  -5   4  -1  184.50   17.85   1 
   4   5  -1  154.44   16.17   2 
   4   5   1  184.26   17.82   2 
   4   5   1  160.38   14.36   3 
  -4  -5   1  145.91   13.45   4 
  -5   4   1  183.62   17.28   1 
  -4  -5  -1  195.75   14.45   4 
   4   5  -1  153.38   13.04   3 
   6   5  -1  101.57   13.16   3 
  -6  -5   1   94.23   12.24   4 
   6   5   1   71.28   10.76   3 
  -6  -5  -1   73.94   10.39   4 
   6   3  -1   47.82    7.80   3 
   3  -6  -1   53.09    7.34   4 
   6   3   1   46.20    8.14   6 
  -3   6  -1   39.43    8.29   5 
  -3   6  -1   49.16   10.98   1 
   3  -6   1   40.59    6.56   4 
  -3   6   1   55.89    9.06   1 
  -3   6   1   55.43    8.66   5 
   6   3  -1   35.99    9.20   2 
  -6  -3  -1   31.19    7.66   4 
  -6  -3   1   39.48    8.64   4 
   6   3   1   37.97    9.18   2 
   6   3   1   58.91    8.59   3 
  -1   6   1  297.77   19.04   1 
   6   1  -1  247.66   16.81   3 
   6   1   1  286.79   18.27   2 
   6   1  -1  258.59   17.82   2 
  -6  -1   1  244.82   17.29   1 
  -1   6  -1  283.44   19.37   1 
   6   1  -1  269.14   18.08   6 
  -1   6   1  259.89   19.59   5 
  -6  -1  -1  277.41   17.56   1 
   6   1   1  272.12   17.36   3 
   1  -6   1  296.58   17.02   4 
  -1   6  -1  251.23   19.25   5 
   1  -6  -1  283.72   15.72   4 
   6   1   1  266.53   18.75   6 
  -1  -6  -1   64.56    7.80   4 
  -1  -6   1   47.95    6.73   4 
   6  -1  -1   41.77    7.38   6 
  -6   1   1   62.80    9.14   1 
  -6   1  -1   52.47    8.19   1 
   1   6   1   52.08    8.24   2 
   1   6  -1   41.37    6.72   1 
   1   6  -1   51.61    7.71   2 
   6  -1   1   62.58    6.83   3 
   6  -1  -1   79.32    7.90   3 
  -3  -6   1  165.66   13.48   4 
   3   6   1  157.51   16.85   2 
  -6   3   1  148.24   16.19   1 
   3   6   1  171.52   13.51   3 
  -6   3  -1  140.22   15.64   1 
   3   6  -1  172.65   12.87   3 
  -3  -6  -1  181.02   13.86   4 
   3   6  -1  169.06   16.22   2 
   5   6   1   15.38    7.52   2 
   5   6  -1   20.38    8.29   2 
  -5  -6   1   21.20    7.18   4 
   5   6  -1   21.19    7.50   3 
   5   6   1   22.55    7.67   3 
  -5  -6  -1   11.26    5.62   4 
   4  -7   1   40.07    9.33   4 
  -2   7  -1   41.79    9.62   1 
   2  -7   1   56.65    8.14   4 
   7   2  -1   59.22    9.14   6 
  -2   7   1   47.81    7.55   1 
   7   2   1   44.24    8.97   3 
  -7  -2  -1   34.72    8.53   4 
   7   2   1   36.10    9.14   6 
   7   2   1   46.89   10.06   2 
  -2   7  -1   41.64    9.97   5 
  -2   7   1   28.56    8.93   5 
   7   2  -1   44.54    9.29   3 
   7   2  -1   40.43    9.17   2 
   0   7  -1   93.41   10.69   1 
   7   0   1   77.38   10.70   6 
   0   7   1   99.79   14.49   5 
   0  -7  -1  108.53   10.00   4 
   7   0   1   92.08   10.37   3 
   0   7  -1  112.33   13.99   5 
   0  -7   1   92.58    9.97   4 
  -7   0   1   81.44   11.37   1 
  -7   0  -1   99.84   11.61   1 
   7   0  -1   77.44   10.99   6 
   7   0  -1  101.13   10.41   3 
  -7   2   1  114.33   14.26   1 
  -2  -7   1  126.13   12.22   4 
   2   7  -1  136.95   14.21   2 
  -2  -7  -1  129.02   11.84   4 
   2   7   1  159.77   15.81   2 
  -7   2  -1  143.23   15.29   1 
  -4  -7  -1   29.76    8.33   4 
  -7   4   1   29.80    8.82   1 
  -4  -7   1   15.25    5.84   4 
   4   7   1   17.95    6.67   2 
  -7   4  -1   24.20    9.19   1 
   4   7  -1   16.11    7.04   2 
  -1   8  -1   22.26    7.89   5 
   8   1   1   25.65    7.59   6 
  -1   8   1   33.98    9.19   5 
   8   1  -1   20.57    7.98   6 
   1  -8   1   23.66    7.14   4 
  -8  -1   1   17.24    5.88   1 
  -8   1   1   66.94   11.64   1 
  -8   1  -1   76.84   11.34   1 
  -1  -8   1   66.67    9.45   4 
   3   8   1   52.01   11.67   2 
   3   8  -1   46.55   10.69   2 
  -8   3   1   25.21    8.85   1 
  -8   3  -1   36.33   10.59   1 
   1   1   2 9728.36  204.68   5 
   1   1  -2 9484.62  192.13   6 
  -1   1   2 9449.63  180.03   4 
   1  -1   2 9074.76  193.82   6 
  -1   1  -2 9615.40  200.97   5 
   1  -1  -2 8919.64  194.03   6 
  -1  -1  -2 9819.68  196.37   6 
  -1   1   2 9214.64  204.40   5 
  -1   1  -2 9419.35  182.08   4 
  -1  -1  -2 9305.04  181.25   4 
  -1  -1   2 9331.33  182.14   4 
   1   1  -2 9286.46  202.92   5 
   2   0  -2  169.55    8.61   6 
   2   0   2  184.54    9.96   6 
  -2   0  -2  175.84    9.15   4 
   2   0   2  177.21    6.37   5 
   2   0  -2  171.90    7.50   5 
  -2   0   2  179.80    8.49   4 
   0  -2   2  186.80    5.14   6 
  -2   0   2  179.80    9.42   1 
   0  -2  -2  181.90    8.83   6 
   0   2   2  162.70   10.56   5 
   0  -2   2  167.00    8.73   4 
   0  -2  -2  175.25    7.18   4 
   0   2  -2  177.49    9.91   5 
   2   2   2   18.61    4.28   5 
   2  -2  -2   13.52    3.43   6 
  -2  -2  -2   13.81    3.11   4 
  -2  -2  -2    9.08    3.85   6 
  -2   2   2   12.60    2.97   4 
   2   2  -2    5.19    1.82   6 
  -2   2  -2   10.70    3.68   4 
  -2  -2   2   10.31    3.66   4 
   2  -2   2   11.07    2.98   6 
   2   2   2   18.01    3.93   3 
   2   2  -2   13.98    3.07   3 
  -2   2   2    9.41    3.91   5 
  -2   2  -2   10.53    2.50   5 
   2   2  -2   12.32    3.45   2 
   2   2   2   12.31    4.99   2 
   2   2  -2   10.20    3.18   5 
  -2   2   2   18.25    4.20   1 
  -2   2  -2   13.96    4.94   1 
  -2  -2   2    6.83    3.54   1 
  -3  -1   2 8848.64  178.19   4 
   3   1   2 8901.98  191.58   5 
   3   1   2 9011.26  179.12   3 
   3   1  -2 8745.38  192.64   5 
   1  -3   2 8705.04  183.11   6 
  -1   3  -2 8674.02  177.91   4 
   1  -3  -2 8680.07  187.40   6 
  -1   3   2 8396.26  201.13   5 
  -1   3  -2 8957.35  197.62   5 
   3   1  -2 9131.80  201.53   2 
   3   1  -2 8881.77  176.02   3 
  -1   3   2 8634.64  191.25   1 
  -3  -1   2 9160.84  190.12   1 
  -3  -1  -2 8916.63  179.07   4 
  -1   3  -2 8628.54  195.29   1 
   3   1  -2 8987.00  187.39   6 
   3   1   2 8993.50  204.03   2 
   3   1   2 8790.19  191.54   6 
   1   3  -2 7366.01  166.41   2 
   3  -1   2 6844.70  143.07   3 
   3  -1  -2 7247.98  157.88   6 
   1   3  -2 7113.42  158.31   1 
   3  -1   2 7160.31  158.81   6 
  -3   1   2 7404.26  146.97   4 
  -1  -3   2 7217.45  148.63   4 
   1   3   2 7175.30  169.11   5 
  -3   1  -2 7346.98  160.76   1 
   1   3   2 7257.77  147.31   3 
  -1  -3  -2 7140.91  144.66   4 
  -3   1  -2 7330.49  148.96   4 
  -3   1   2 7370.69  160.93   1 
  -3   1   2 7257.77  158.96   5 
   3  -1  -2 7254.29  142.55   3 
   1   3  -2 7477.58  167.37   5 
   1   3  -2 7338.07  142.52   3 
  -1  -3  -2 6857.05  155.97   6 
   1   3   2 7238.28  170.89   2 
   3   3  -2 6427.45  159.59   2 
   3   3  -2 6735.74  140.88   6 
  -3   3   2 6652.24  136.36   4 
   3  -3  -2 6501.82  147.22   6 
  -3   3  -2 6727.06  139.62   4 
  -3  -3   2 6621.88  140.66   4 
   3   3   2 6620.00  155.90   5 
  -3  -3   2 6684.38  146.88   1 
   3   3   2 6559.43  163.31   2 
   3   3  -2 6662.33  138.12   3 
   3   3   2 6652.10  141.99   3 
   3  -3   2 6632.27  145.88   6 
  -3   3   2 6425.09  152.38   5 
  -3   3   2 6638.09  154.67   1 
  -3   3  -2 6516.65  156.02   1 
  -3  -3  -2 6592.31  138.99   4 
   3   3  -2 6238.19  154.11   5 
  -3   3  -2 6807.82  147.62   5 
  -2   4   2   21.71    4.24   4 
   4   2  -2   17.97    4.26   6 
  -2   4  -2   19.48    4.59   5 
   4   2   2   13.24    4.90   2 
  -4  -2   2   21.98    5.07   4 
  -2   4   2   24.38    6.27   1 
   4   2  -2   25.59    5.47   3 
   4   2  -2   32.39    4.44   5 
   4   2  -2   22.53    5.66   2 
  -4  -2  -2   37.22    5.74   4 
   4   2   2   23.29    5.59   6 
  -2   4  -2   21.46    6.22   1 
  -2   4   2   30.67    5.67   5 
   4   2   2   21.72    5.33   3 
  -2   4  -2   26.57    5.55   4 
   4   2   2   21.94    3.63   5 
  -4  -2   2   21.07    4.72   1 
   2  -4   2   21.67    3.65   6 
  -4  -2  -2   24.22    3.75   1 
   2  -4  -2   21.05    4.83   6 
  -4   0   2  203.71   12.39   4 
   0   4  -2  204.01   14.08   5 
  -4   0   2  209.84    8.85   5 
   4   0   2  205.93   12.21   2 
   0   4   2  215.11   12.20   1 
   0   4   2  200.49   15.06   5 
  -4   0  -2  213.19   13.01   1 
   4   0  -2  220.83   12.08   2 
   4   0   2  212.38   11.81   3 
   4   0  -2  210.10   11.40   3 
   0   4   2  214.77   13.10   2 
   0   4   2  217.88   10.32   3 
  -4   0  -2  172.20   11.96   4 
   0  -4  -2  213.64   11.29   6 
   0   4  -2  209.15   11.16   2 
  -4   0   2  195.19   13.22   1 
   4   0  -2  211.80   12.81   6 
   0  -4  -2  201.51   10.49   4 
   4   0   2  198.61   13.54   6 
   0   4  -2  196.62   13.61   1 
   0  -4   2  193.15   11.89   4 
  -2  -4  -2   92.91    7.90   6 
   4  -2   2   83.49    8.37   6 
  -2  -4   2   96.51    8.47   4 
  -4   2  -2   87.78    8.43   4 
  -4   2  -2   81.12    9.41   1 
   2   4   2   76.96    7.77   3 
   2   4   2   88.94   10.09   5 
   2   4  -2   64.73    8.16   5 
   2   4   2   98.16   10.43   2 
   2   4  -2   71.41    6.52   3 
  -4   2   2   79.86    9.31   1 
  -4   2   2   81.11    7.52   4 
   4  -2  -2   84.70    5.93   3 
  -2  -4  -2   79.45    7.12   4 
   4  -2  -2   67.12    7.42   6 
   2   4  -2   84.24    7.80   1 
   2   4  -2   73.32    8.23   2 
   4   4  -2   -0.45    2.27   3 
  -4  -4   2    7.27    3.08   1 
   4   4   2   -4.24    2.29   6 
   4   4   2   -1.14    2.71   2 
   4   4  -2    0.88    2.27   5 
   4  -4   2    2.97    2.66   6 
  -4  -4   2    2.10    2.54   4 
  -4  -4  -2   -0.92    1.89   4 
   4   4   2    2.78    2.73   3 
  -4   4  -2    4.86    3.88   1 
  -4   4   2    2.34    2.13   4 
  -4   4   2    3.38    3.42   1 
   4   4  -2   -0.56    2.51   2 
   4   4   2    1.62    2.89   5 
   4  -4  -2    3.59    2.18   6 
   3  -5  -2 4058.01   99.79   6 
  -3   5   2 4030.98  106.29   5 
  -3   5   2 4001.63  108.11   1 
  -3   5   2 3985.84   92.11   4 
  -5  -3  -2 4080.65   98.45   4 
  -5  -3   2 4118.79  100.44   1 
   5   3  -2 4056.20   98.98   3 
   5   3  -2 4008.61  111.93   2 
   5   3   2 3991.96  114.48   2 
  -3   5  -2 4067.53  111.16   1 
   5   3   2 4171.35  103.84   6 
  -3   5  -2 4063.22  102.35   5 
   5   3   2 4031.91  101.29   3 
  -1   5  -2 4588.13  116.94   1 
  -1   5   2 4470.72  120.14   5 
   5   1   2 4594.06  118.11   2 
  -5  -1  -2 4541.44  106.56   4 
   5   1  -2 4762.06  117.64   2 
   1  -5  -2 4495.41   99.84   4 
   1  -5  -2 4655.33  106.03   6 
   5   1   2 4492.18  105.80   3 
  -1   5   2 4541.35  112.09   1 
  -5  -1  -2 4664.53  109.24   1 
  -5  -1   2 4614.64  112.09   1 
   5   1  -2 4573.18  104.74   3 
  -1   5  -2 4483.08  116.98   5 
   5   1  -2 4595.01  110.96   6 
   5   1   2 4510.76  113.60   6 
  -5  -1   2 4544.39  106.55   4 
   1  -5   2 4629.46  105.24   4 
  -5   1   2 5663.84  138.85   1 
   1   5   2 5682.14  142.55   2 
   5  -1   2 5404.10  136.63   6 
   1   5   2 5915.02  120.91   3 
   5  -1   2 5657.09  120.90   3 
  -1  -5   2 5719.04  125.43   4 
  -1  -5  -2 5843.56  121.96   4 
  -5   1   2 5736.21  124.78   4 
   1   5  -2 5489.21  143.95   5 
   1   5   2 5595.91  146.41   5 
  -5   1  -2 5914.05  138.31   1 
   1   5  -2 5662.38  139.03   2 
   5  -1  -2 5726.53  135.63   6 
   1   5  -2 5485.57  132.49   1 
   5  -1  -2 5766.00  120.39   3 
   3   5  -2 4097.78   94.99   3 
  -5   3  -2 4079.14  111.14   1 
   3   5   2 4008.21  115.04   2 
   3   5   2 4057.24   97.33   3 
  -3  -5   2 4053.62   99.83   1 
   3   5  -2 4038.47  111.78   2 
  -3  -5   2 3979.80   97.81   4 
  -3  -5  -2 4026.74   94.77   4 
  -5   3   2 3907.08  109.66   1 
  -5  -5  -2 2647.73   74.61   4 
   5   5  -2 2742.55   76.86   3 
   5   5   2 2644.60   78.22   3 
  -5   5   2 2707.75   87.43   1 
  -5  -5   2 2633.01   76.57   4 
   5   5  -2 2564.66   88.93   2 
  -5   5  -2 2750.26   88.86   1 
   5   5   2 2683.16   91.38   2 
   6   4  -2    3.70    4.39   3 
   6   4   2    5.88    3.85   2 
   6   4  -2   -1.33    2.81   2 
  -6  -4  -2    1.85    3.18   4 
   6   4   2    2.06    3.78   3 
  -4   6  -2    2.96    2.75   1 
  -4   6   2   11.04    5.13   1 
  -6  -4   2    2.84    4.14   4 
  -6  -2   2    2.04    2.30   1 
  -2   6  -2   -1.07    2.97   5 
  -6  -2  -2    0.17    2.47   4 
   6   2  -2    5.50    3.42   6 
  -2   6   2   -0.26    3.30   5 
   2  -6  -2   -3.39    1.82   4 
   6   2   2   -0.70    2.84   6 
   2  -6   2   -1.40    2.10   4 
  -2   6  -2    7.44    4.51   1 
   6   2   2    0.11    2.70   2 
  -2   6   2    1.86    3.42   1 
   6   2   2   -1.41    2.79   3 
   6   2  -2   -2.08    1.73   3 
   6   2  -2    8.15    4.53   2 
   6   0   2   41.75    7.43   6 
  -6   0   2   22.44    6.63   1 
   6   0  -2   30.98    6.28   3 
  -6   0  -2   32.38    6.89   1 
   0  -6   2   40.47    6.37   4 
   6   0   2   42.76    6.62   3 
   0   6  -2   44.71    7.58   1 
   6   0  -2   27.20    7.02   6 
   0   6   2   27.76    8.04   5 
   0   6  -2   24.46    7.73   5 
   0  -6  -2   35.56    5.44   4 
  -6   2   2    9.21    5.10   1 
   2   6   2   17.89    5.78   2 
  -2  -6   2    6.13    3.71   4 
  -6   2  -2    7.98    4.09   1 
  -2  -6  -2   12.67    4.55   4 
   2   6  -2    8.63    4.29   2 
   2   6  -2    9.63    3.59   1 
  -4  -6   2    3.64    4.23   4 
  -6   4   2   -2.06    2.11   1 
   4   6   2   -3.96    3.00   2 
  -4  -6  -2    4.71    3.85   4 
   4   6  -2    1.40    3.43   2 
  -6   4  -2   -2.24    3.75   1 
   4   6  -2   10.58    4.81   3 
   4   6   2   -2.24    3.52   3 
   6   6   2   -1.42    3.63   3 
   6   6  -2    5.98    5.30   3 
   7   5   2 1307.00   52.58   3 
   7   5  -2 1333.70   52.78   3 
   7   3   2 2268.11   79.52   2 
  -3   7   2 2401.08   76.57   5 
  -7  -3  -2 2277.56   70.20   4 
   3  -7   2 2251.27   66.53   4 
   7   3  -2 2166.60   78.61   2 
   7   3   2 2366.35   75.34   6 
  -3   7   2 2326.20   76.61   1 
  -7  -1   2 2634.13   78.79   1 
  -1   7   2 2644.96   86.42   5 
   7   1   2 2566.36   73.77   3 
  -1   7  -2 2641.51   79.19   1 
   1  -7   2 2565.03   70.67   4 
   7   1  -2 2657.95   80.03   6 
   7   1  -2 2488.26   71.77   3 
   7   1   2 2533.60   79.65   6 
  -7  -1  -2 2698.37   75.67   4 
  -1   7  -2 2586.97   81.84   5 
  -7   1  -2 2479.01   76.97   1 
  -7   1   2 2442.45   78.15   1 
   7  -1  -2 2438.51   76.95   6 
  -1  -7   2 2481.10   68.39   4 
   3   7  -2 2075.33   72.52   2 
  -7   3   2 1944.03   72.21   1 
   3   7   2 2089.73   74.18   2 
  -7   3  -2 1913.64   71.10   1 
  -3  -7   2 2099.91   62.34   4 
  -3  -7  -2 2068.76   60.15   4 
   5   7   2 1687.48   69.39   2 
   5   7   2 1697.24   57.65   3 
  -7   5  -2 1579.56   66.53   1 
   5   7  -2 1673.19   56.66   3 
   5   7  -2 1579.69   67.79   2 
   2  -8   2   12.67    4.41   4 
   8   0  -2   -1.56    4.78   6 
   0  -8   2    2.76    3.58   4 
   8   0   2    3.02    3.15   6 
  -8   0   2    3.48    4.46   1 
  -8   2   2    0.68    4.00   1 
  -8   2  -2    4.33    4.19   1 
   0   1   3  252.91   11.66   5 
  -1   0  -3  259.33   10.74   6 
   0  -1   3  253.86    9.71   4 
   0   1  -3  258.13    8.33   6 
   0  -1  -3  258.07   10.59   6 
   1   0  -3  260.20    9.68   6 
  -1   0  -3  259.17    8.94   4 
   0   1  -3  253.57   10.00   5 
  -1   0   3  261.57    8.20   4 
   1   0   3  258.24    9.34   5 
   1   0  -3  264.15   10.06   5 
   2   1  -3 1582.40   41.49   5 
  -1   2   3 1562.42   34.85   4 
   2   1   3 1596.46   41.55   3 
   1  -2  -3 1577.46   41.41   6 
   2   1   3 1609.46   47.43   2 
   2   1  -3 1588.17   43.38   2 
   1  -2   3 1649.95   38.09   6 
  -2  -1   3 1668.09   42.19   1 
  -2  -1  -3 1637.30   39.06   4 
  -2  -1   3 1576.21   38.86   4 
  -1   2  -3 1618.31   41.83   5 
   2   1   3 1603.33   42.02   5 
   2   1  -3 1675.40   38.26   3 
  -1   2  -3 1633.07   39.72   4 
  -1   2  -3 1631.25   45.89   1 
   2   1  -3 1591.06   38.49   6 
  -1   2   3 1631.72   46.46   5 
  -2  -1  -3 1548.07   43.03   6 
  -2   1   3  306.09   11.26   4 
  -2   1  -3  328.03   10.05   5 
   1   2  -3  314.54   14.02   5 
   1   2   3  291.45   14.97   5 
   1   2   3  292.22   13.35   3 
  -1  -2   3  307.33   12.97   4 
  -1  -2  -3  310.49   10.59   4 
   1   2  -3  305.80   13.33   2 
  -1  -2  -3  309.21   13.80   6 
   2  -1   3  318.03   13.56   6 
  -2   1   3  325.12   14.27   1 
  -2   1  -3  303.05   14.62   1 
   1   2  -3  315.69   13.96   1 
  -2   1   3  289.89   12.66   5 
   1   2   3  280.82   15.50   2 
  -2   1  -3  280.08   12.31   4 
   2  -1  -3  322.80   13.27   6 
   1   2  -3  320.37   11.23   3 
  -3  -2   3  324.94   15.24   4 
  -3  -2  -3  317.90   14.48   4 
   2  -3   3  320.70   12.98   6 
   3   2   3  311.63   16.45   3 
  -2   3   3  295.41   16.33   5 
  -2   3  -3  322.37   15.17   4 
  -2   3  -3  298.32   17.85   1 
  -2   3  -3  308.31   14.13   5 
   3   2  -3  320.58   12.80   6 
   3   2  -3  316.12   16.77   2 
  -3  -2  -3  290.77   15.92   6 
   3   2  -3  323.07   14.56   3 
  -2   3   3  298.40   16.67   1 
   3   2   3  310.50   15.21   5 
  -2   3   3  302.63   12.22   4 
   2  -3  -3  315.81   15.28   6 
   3   2  -3  329.37   15.53   5 
  -3  -2   3  309.75   15.20   1 
   3   2   3  293.87   18.11   2 
   3   0   3  628.97   21.53   3 
   3   0  -3  607.94   19.51   3 
  -3   0   3  607.02   22.85   1 
  -3   0  -3  630.62   22.22   1 
  -3   0   3  629.08   20.59   4 
   0   3   3  618.39   25.76   5 
   0  -3  -3  607.45   19.79   3 
   3   0   3  601.91   23.46   6 
   3   0   3  623.72   23.07   2 
   3   0  -3  603.50   19.00   5 
   3   0  -3  622.83   21.89   6 
   0   3   3  570.14   23.91   2 
   0   3  -3  617.73   24.28   1 
  -3   0  -3  580.64   21.40   4 
   0  -3  -3  639.85   18.03   4 
   0   3  -3  601.53   23.24   5 
   0  -3  -3  626.89   21.56   6 
   0  -3   3  593.37   21.55   4 
   0   3  -3  623.06   20.53   2 
   3  -2  -3   47.93    4.10   3 
   2   3  -3   48.01    6.00   2 
   3  -2  -3   49.96    5.85   6 
  -2  -3  -3   39.24    4.66   4 
  -2  -3  -3   51.19    6.11   6 
   2   3  -3   50.66    4.99   3 
  -3   2   3   52.26    5.06   4 
   2   3  -3   50.75    2.89   6 
  -3   2  -3   40.33    5.56   4 
  -3   2   3   50.18    5.80   5 
  -3   2  -3   46.32    6.73   1 
  -3   2  -3   55.67    3.92   5 
  -2  -3   3   42.28    5.36   4 
  -3   2   3   47.03    6.77   1 
   3  -2   3   43.04    5.37   6 
   2   3   3   51.08    7.33   2 
   2   3   3   37.33    6.19   5 
   2   3   3   47.54    5.88   3 
   2   3  -3   44.13    6.04   5 
  -3   4  -3  333.15   15.87   5 
   4   3   3  328.12   21.83   2 
  -3   4   3  337.99   15.13   4 
   4   3   3  338.88   18.55   5 
  -3   4   3  319.36   20.56   1 
  -3   4   3  342.09   19.18   5 
   3  -4  -3  325.09   17.58   6 
  -3   4  -3  328.99   17.77   4 
   4   3  -3  347.58   21.04   2 
   4   3  -3  309.07   17.24   3 
   3  -4   3  381.21   17.41   6 
   4   3  -3  358.43   18.82   5 
  -4  -3  -3  355.41   17.70   4 
   4   3   3  344.97   19.40   6 
  -4  -3   3  328.69   18.17   4 
  -4  -3   3  363.12   18.53   1 
  -3   4  -3  342.74   22.23   1 
   4   3   3  330.92   19.41   3 
   4   1   3   86.92    8.51   3 
   1  -4  -3   81.30    6.36   4 
   4   1   3   98.63    9.72   2 
  -1   4   3   95.81    8.13   2 
   4   1  -3   80.70    7.25   3 
  -4  -1  -3   70.74    7.68   4 
  -4  -1  -3   87.81    7.15   1 
   4   1  -3   91.48    6.47   5 
  -4  -1   3   81.89    8.23   1 
   4   1  -3   69.77    6.88   6 
   4   1   3   77.70    8.72   6 
   1  -4  -3  104.45    8.29   6 
  -1   4  -3   71.13    7.61   5 
   1  -4   3   79.04    7.93   4 
   4   1  -3   90.14    8.75   2 
  -1   4  -3   75.58    9.08   1 
  -1   4   3   80.09    9.66   5 
  -1   4   3   84.86    8.28   1 
  -4  -1   3   74.46    7.62   4 
   4  -1  -3  202.31   12.97   6 
  -4   1  -3  206.60   14.07   1 
  -4   1  -3  219.28   13.65   4 
  -4   1   3  226.40   10.82   5 
  -1  -4  -3  219.68   12.56   6 
   4  -1   3  222.59   11.52   3 
   4  -1   3  228.31   14.50   6 
   1   4  -3  207.66    9.93   3 
   1   4  -3  241.09   15.52   5 
  -1  -4   3  207.63   13.02   4 
  -4   1   3  219.10   12.25   4 
   4  -1  -3  220.22   11.07   3 
   1   4   3  219.99   16.12   5 
   1   4   3  212.41   12.34   3 
  -4   1   3  234.78   15.27   1 
   1   4   3  234.07   15.87   2 
   1   4  -3  231.95   14.58   1 
   1   4  -3  225.47   13.29   2 
  -4   3   3  281.18   15.18   5 
   4  -3  -3  300.11   16.96   6 
  -4   3  -3  266.99   19.18   1 
  -4   3   3  306.66   15.56   4 
  -3  -4  -3  296.54   16.69   6 
   4  -3   3  297.96   16.67   6 
  -3  -4   3  342.21   18.06   1 
  -4   3   3  304.47   19.87   1 
  -3  -4  -3  296.75   15.45   4 
  -3  -4   3  291.96   17.16   4 
   3   4  -3  285.90   15.32   3 
   3   4  -3  269.31   17.89   2 
   3   4   3  312.33   17.80   3 
  -4   3  -3  279.27   16.49   4 
   3   4   3  319.91   20.02   5 
   3   4   3  296.98   20.48   2 
   3   4  -3  278.45   18.08   5 
  -4   5   3  105.78   13.12   1 
   5   4  -3   98.13   10.98   3 
  -5  -4  -3  114.11   11.40   4 
  -5  -4   3  111.93   10.99   1 
   5   4   3  112.86   13.90   2 
   5   4   3  116.30   12.75   3 
   5   4   3  119.53   12.29   6 
   5   4  -3   90.13   11.99   2 
  -4   5  -3  104.69   13.43   1 
  -5  -2   3   69.55    8.58   4 
   5   2   3   68.69    9.31   2 
   2  -5  -3   83.84    7.39   4 
   5   2   3   67.45    9.39   6 
  -2   5   3   71.73    9.85   5 
   5   2  -3   85.60   10.27   2 
  -5  -2   3   62.28    7.92   1 
  -2   5  -3   66.74    9.97   1 
   2  -5   3   72.68    8.23   4 
  -5  -2  -3   66.63    8.31   4 
   5   2  -3   67.85    7.69   6 
   5   2  -3   61.84    7.81   3 
  -2   5  -3   68.62    8.28   5 
   2  -5  -3   67.59    7.21   6 
  -2   5   3   69.35    8.80   1 
   5   2   3   65.12    8.28   3 
   0   5   3  296.11   20.42   5 
  -5   0  -3  282.80   16.84   4 
   5   0  -3  291.23   17.64   6 
  -5   0  -3  272.06   16.79   1 
   0   5  -3  315.29   19.30   1 
  -5   0   3  287.86   16.29   4 
   0  -5  -3  278.78   15.18   6 
  -5   0   3  289.86   18.52   1 
   0   5   3  282.09   17.22   2 
   5   0   3  282.53   18.32   6 
   0   5  -3  285.88   14.80   2 
   0  -5   3  283.78   16.35   4 
   0  -5  -3  302.83   13.93   4 
   5   0  -3  280.28   15.29   3 
   5   0   3  296.11   15.86   3 
   5   0   3  305.22   16.45   2 
   0   5  -3  294.72   18.64   5 
  -5   2  -3  148.27   14.00   1 
  -5   2   3  170.24   15.05   1 
   2   5  -3  183.18   10.90   3 
   2   5   3  163.05   15.43   5 
   2   5   3  171.18   12.33   3 
   2   5  -3  168.54   13.74   2 
  -5   2   3  161.67   11.51   4 
   2   5  -3  170.03   14.89   5 
  -2  -5  -3  158.24   10.83   4 
  -2  -5   3  184.68   13.33   4 
   5  -2   3  167.52   13.50   6 
   2   5  -3  193.98   13.36   1 
   2   5   3  186.26   15.80   2 
   4   5  -3  110.41   10.99   3 
  -4  -5   3  104.74   10.41   1 
   4   5   3  106.77   14.27   2 
  -4  -5   3  113.48   11.83   4 
   4   5   3   98.73   11.33   3 
  -5   4   3   96.49   12.61   1 
  -4  -5  -3  113.75   10.61   4 
   4   5  -3   85.37   11.80   2 
  -5   4  -3   96.84   12.61   1 
  -6  -5   3   32.99    8.16   4 
   6   5   3   14.98    6.63   3 
   6   5  -3   22.84    7.72   3 
  -6  -5  -3   24.58    7.46   4 
   3  -6   3   77.49    9.43   4 
   6   3   3  101.80   13.48   2 
   6   3  -3  102.40   12.57   2 
  -6  -3   3   97.01   10.68   1 
  -6  -3  -3   93.87   10.72   4 
  -3   6   3   87.94   11.43   1 
   6   3   3  105.08   11.77   3 
   6   3   3  100.15   12.24   6 
   6   3  -3   94.55   10.75   3 
  -3   6  -3   75.12   10.70   1 
  -3   6   3  107.97   12.54   5 
   6   1   3  150.81   13.70   2 
   6   1  -3  130.94   11.57   3 
   6   1  -3  133.83   12.48   2 
  -6  -1  -3  147.38   13.09   4 
   1  -6   3  109.32   10.77   4 
  -1   6   3  139.86   14.65   5 
  -6  -1   3  116.22   12.05   1 
  -1   6  -3  134.37   13.86   1 
   6   1   3  104.65   12.14   6 
   6   1  -3  123.53   12.18   6 
  -1   6  -3  133.49   13.25   5 
   6   1   3  128.92   11.88   3 
   6  -1  -3  215.70   16.58   6 
  -1  -6  -3  233.78   13.60   4 
   1   6   3  207.62   16.31   2 
   6  -1  -3  251.77   14.41   3 
   1   6  -3  211.20   14.91   2 
  -6   1  -3  204.72   15.87   1 
  -6   1   3  192.41   16.95   1 
   1   6  -3  228.99   16.44   1 
  -1  -6   3  181.39   13.87   4 
   3   6   3   29.89    7.38   3 
  -3  -6   3   22.03    5.83   4 
   3   6  -3   24.99    5.79   3 
  -6   3  -3   26.99    8.46   1 
  -3  -6  -3   22.24    5.79   4 
  -3  -6   3   17.22    5.75   1 
   3   6  -3   15.37    5.86   2 
   3   6   3   18.54    7.49   2 
  -6   3   3   27.33    8.89   1 
  -5  -6   3   89.30   11.82   4 
  -6   5  -3  112.98   15.38   1 
   5   6  -3  100.05   11.51   3 
  -5  -6  -3   86.92   11.34   4 
   5   6  -3  106.58   14.59   2 
   5   6   3  102.60   15.39   2 
   5   6   3  108.11   13.22   3 
   7   4  -3   43.32   10.09   3 
   4  -7   3   23.90    5.99   4 
  -7  -2   3  155.39   15.15   1 
  -2   7   3  175.21   17.15   5 
   7   2   3  139.82   15.73   6 
   7   2   3  176.30   16.52   2 
  -2   7  -3  171.76   15.81   5 
   7   2  -3  165.01   15.12   6 
   2  -7   3  141.66   13.18   4 
   7   2  -3  146.47   14.28   3 
  -2   7  -3  163.02   16.40   1 
   7   2   3  135.05   13.82   3 
   7   2  -3  151.72   14.89   2 
  -7  -2  -3  149.46   14.58   4 
  -7   0   3   32.07    8.67   1 
   0   7  -3   30.66    8.81   5 
   0  -7   3   29.60    7.36   4 
   7   0   3   29.34    6.56   3 
   0   7   3   30.55    9.20   5 
   7   0  -3   38.20    6.33   3 
   7   0   3   29.62    7.94   6 
   0   7  -3   38.92    8.51   1 
  -7   0  -3   32.04    7.94   4 
   7   0  -3   27.20    7.82   6 
   2   7  -3   88.10   11.36   2 
  -7   2   3   76.50   12.03   1 
  -7   2  -3  102.56   13.14   1 
  -2  -7   3   84.88   10.53   4 
   7  -2  -3   87.52   11.99   6 
   2   7   3   86.68   12.81   2 
   4   7  -3   34.66    9.46   2 
   4   7   3   50.63   12.08   2 
   4   7   3   49.47    9.76   3 
  -7   4  -3   47.69   11.69   1 
   1  -8   3   50.91    9.66   4 
   8   1  -3   40.21   10.12   6 
  -8  -1   3   24.59    8.62   1 
  -8   1   3   27.13    8.62   1 
  -1  -8   3   21.19    6.39   4 
  -8   3   3   74.82   12.91   1 
  -8   3  -3   63.67   13.19   1 
   3   8   3   82.02   13.73   2 
   3   8  -3   73.51   11.35   2 
   0   0   4 8557.62  160.53   4 
   0   0  -4 8261.18  182.22   5 
   0   0  -4 8145.05  174.76   6 
  -1   1   4  560.77   20.48   5 
  -1  -1  -4  594.13   19.79   3 
  -1   1  -4  572.25   17.88   4 
  -1  -1  -4  587.93   15.89   4 
   1   1  -4  551.28   19.28   5 
  -1   1   4  573.19   13.61   4 
   1   1  -4  589.07   16.72   6 
   1  -1  -4  574.49   19.36   6 
  -1   1  -4  575.61   18.18   6 
  -1   1  -4  570.24   17.95   5 
  -1  -1   4  571.28   19.37   1 
   1   1   4  553.82   20.42   5 
  -1  -1  -4  599.08   21.03   6 
   1   1  -4  582.04   17.04   3 
  -1  -1   4  590.47   17.48   4 
   0  -2  -4 9600.77  203.21   6 
   0  -2  -4 9360.68  182.96   4 
  -2   0   4 9655.84  186.99   4 
   2   0  -4 9518.17  208.76   5 
   2   0   4 9926.20  206.80   5 
  -2   0  -4 9594.88  189.16   4 
  -2   0  -4 9709.73  190.46   3 
   0   2  -4 9579.32  210.52   5 
   2   0  -4 9992.27  186.91   3 
   0   2   4 8729.88  214.23   5 
  -2   0   4 9598.76  202.74   1 
   0  -2   4 9676.46  190.25   4 
   2   0  -4 9593.97  200.50   6 
   0  -2  -4 9467.37  188.31   3 
   0   2  -4 9385.13  205.45   1 
  -2   0  -4 9651.55  203.76   6 
   2  -2  -4 7868.82  172.71   6 
  -2  -2   4 7972.56  173.67   1 
   2   2  -4 8182.35  158.98   3 
   2   2  -4 8017.10  183.05   2 
   2   2  -4 7711.91  179.55   5 
   2   2   4 8121.34  189.13   2 
   2   2  -4 7921.66  164.92   6 
  -2  -2   4 7871.45  161.89   4 
  -2   2   4 7963.37  181.98   5 
  -2  -2  -4 7624.30  175.26   6 
  -2  -2  -4 8020.82  159.51   4 
  -2   2  -4 7926.00  177.85   1 
   2  -2   4 7677.65  170.18   6 
   2   2   4 8112.25  164.75   3 
  -2   2   4 7963.48  155.86   4 
   2   2   4 8225.54  181.43   5 
  -2   2   4 7986.54  174.97   1 
   2  -2  -4 8073.48  155.63   3 
  -2   2  -4 8079.77  174.46   5 
  -2   2  -4 7916.72  162.46   4 
  -3  -1  -4    0.87    2.29   4 
   3   1  -4   -4.54    1.04   6 
  -1   3   4   -0.40    2.81   5 
  -3  -1   4   -0.36    2.21   1 
  -1   3   4   -2.81    1.98   2 
   1  -3   4   -1.19    1.06   6 
   1  -3  -4    1.28    1.64   4 
  -1   3   4    1.33    2.36   1 
   3   1  -4   -1.70    1.97   5 
   1  -3  -4   -3.81    1.45   3 
   3   1  -4   -2.28    1.83   2 
   3   1  -4    2.29    2.25   3 
   3   1   4   -1.58    1.93   5 
  -1   3  -4   -4.39    1.90   1 
   3   1   4   -4.72    1.82   3 
  -1   3  -4   -0.17    2.33   4 
   3   1   4   -2.79    2.19   2 
  -3  -1   4   -2.99    1.55   4 
   1  -3  -4   -2.59    1.73   6 
  -3  -1  -4    2.54    3.05   6 
  -1   3  -4   -1.42    1.60   5 
  -1  -3   4    3.18    2.88   4 
   3  -1   4    7.47    3.67   6 
   1   3  -4    2.96    2.53   2 
   1   3  -4    4.56    3.31   1 
   3  -1   4    7.85    3.28   3 
   1   3   4    3.90    3.00   3 
  -1  -3  -4    1.52    1.91   4 
   1   3   4   -1.40    2.86   5 
  -3   1   4    0.26    2.15   5 
   1   3   4    5.30    3.57   2 
  -3   1  -4    1.09    2.89   1 
  -3   1   4    7.59    3.55   1 
  -3   1  -4    4.66    2.91   4 
   3  -1  -4    2.99    2.72   6 
  -3   1   4    2.22    2.23   4 
   3  -1  -4    4.82    2.54   3 
  -1  -3  -4    9.29    3.92   6 
   1   3  -4    5.07    2.29   3 
   1   3  -4    1.17    2.65   5 
  -3   3   4   63.37    7.41   5 
  -3  -3  -4   49.64    5.76   4 
   3   3   4   56.95    8.51   2 
   3   3   4   51.95    7.26   5 
  -3  -3   4   40.13    6.06   1 
   3  -3   4   55.97    6.11   6 
   3   3  -4   37.06    6.23   2 
   3   3  -4   53.93    5.95   3 
  -3   3   4   45.65    4.86   4 
   3  -3  -4   48.46    6.28   6 
  -3  -3  -4   54.11    7.11   6 
  -3   3  -4   45.67    7.78   1 
   3   3   4   45.32    6.87   3 
   3   3  -4   58.85    7.37   5 
  -3   3  -4   49.66    6.29   4 
  -3   3   4   49.76    7.11   1 
  -3   3  -4   51.71    4.99   5 
  -3  -3   4   42.72    5.67   4 
  -4  -2  -4 5288.58  116.36   4 
  -2   4  -4 5247.68  115.92   4 
   4   2   4 5242.16  118.88   3 
   2  -4  -4 5196.98  121.60   6 
  -2   4   4 5222.85  124.67   1 
  -4  -2   4 5210.67  122.43   1 
  -2   4   4 4827.11  129.78   5 
   4   2   4 5210.78  135.08   2 
  -2   4  -4 5384.40  124.25   5 
   4   2  -4 5237.84  130.78   2 
  -2   4  -4 5163.98  131.42   1 
   4   2  -4 5289.05  117.22   6 
   4   2  -4 5185.59  123.25   5 
  -4  -2   4 5267.10  116.36   4 
   4   2  -4 5240.60  114.09   3 
   4   2   4 5148.85  125.65   6 
   4   0   4 6101.99  145.47   6 
   0   4  -4 6012.86  146.76   1 
   4   0   4 6594.57  150.63   2 
   4   0   4 6227.54  133.19   3 
  -4   0   4 6365.00  133.05   4 
   4   0  -4 6352.69  130.80   3 
  -4   0   4 6294.86  141.19   5 
  -4   0  -4 6565.22  141.31   1 
   0   4   4 6182.01  155.36   5 
  -4   0   4 6362.21  144.81   1 
   0   4   4 6053.27  137.62   1 
   0   4   4 6232.06  131.22   3 
   0  -4  -4 6410.28  126.60   4 
   0   4   4 5932.19  152.52   2 
   0   4  -4 6249.82  148.76   5 
   0  -4  -4 6245.49  140.62   6 
   0  -4   4 6191.40  134.44   4 
   4   0  -4 6234.42  141.01   6 
  -4   0  -4 6355.97  135.49   4 
   2   4  -4 5424.01  129.49   1 
  -4   2   4 5530.08  117.24   4 
  -4   2   4 5609.09  134.04   1 
   4  -2   4 5426.49  128.75   6 
   2   4  -4 5546.17  115.74   3 
   2   4   4 5541.28  138.79   5 
  -4   2  -4 5507.40  134.22   1 
   2   4   4 5411.36  141.57   2 
  -4   2   4 5663.39  129.63   5 
  -2  -4  -4 5497.80  116.25   4 
   2   4  -4 5317.03  135.18   5 
   4  -2  -4 5602.68  113.12   3 
  -4   2  -4 5747.22  123.37   4 
   2   4  -4 5487.39  135.69   2 
   4  -2  -4 5285.39  128.23   6 
   2   4   4 5500.39  121.93   3 
  -2  -4  -4 5292.88  128.49   6 
  -2  -4   4 5308.49  121.61   4 
  -4  -4  -4 4513.43  105.28   4 
   4   4   4 4743.68  118.76   5 
   4   4   4 4581.19  114.35   6 
  -4   4   4 4452.85  119.76   1 
  -4  -4   4 4589.20  112.34   1 
   4   4   4 4517.80  109.99   3 
   4  -4   4 4731.76  110.21   6 
  -4   4  -4 4505.68  122.65   1 
   4   4  -4 4460.08  122.85   2 
   4   4  -4 4423.88  104.41   3 
   4   4   4 4475.44  126.62   2 
   4   4  -4 4384.48  118.06   5 
   5   3   4   64.02    9.18   3 
  -5  -3  -4   48.74    7.22   4 
  -3   5   4   51.27    8.89   1 
  -3   5  -4   38.09    9.61   1 
   5   3  -4   60.92    9.69   2 
  -3   5   4   50.45    8.57   5 
   5   3  -4   47.22    7.21   3 
  -5  -3   4   60.30    8.24   1 
  -3   5  -4   63.16    7.41   5 
   5   3   4   53.45    8.98   2 
   5   3   4   62.15    9.26   6 
   5   1   4    3.61    3.22   2 
   1  -5   4    2.69    2.79   4 
   5   1   4    8.16    4.04   3 
  -1   5   4    4.57    2.85   1 
  -1   5   4    6.90    4.78   5 
   5   1  -4    9.73    3.56   3 
  -5  -1   4    8.33    3.55   4 
  -5  -1  -4   12.52    4.43   4 
  -1   5  -4    2.64    2.88   5 
  -1   5  -4    5.50    3.39   1 
   1  -5  -4    0.81    2.04   6 
   5   1  -4    6.37    3.20   6 
   1  -5  -4    3.82    1.86   4 
  -5  -1   4    4.13    2.65   1 
   5   1   4    3.11    3.52   6 
   5  -1  -4   -1.56    2.02   3 
   5  -1   4    2.48    2.74   6 
   1   5  -4   -1.86    2.17   1 
  -5   1  -4   -0.70    1.88   4 
  -5   1  -4   -0.71    2.03   1 
  -1  -5  -4   -0.91    1.57   4 
   1   5  -4    3.04    2.79   5 
   5  -1   4   -0.18    1.99   3 
   5  -1  -4    1.38    2.15   6 
  -5   1   4   -1.78    1.42   4 
   1   5  -4   -0.44    1.55   2 
  -1  -5   4    0.59    2.51   4 
  -1  -5  -4    3.28    2.36   6 
   1   5   4   -0.70    2.00   5 
   1   5   4    1.15    2.72   2 
  -5   1   4    1.32    2.43   1 
   1   5   4   -1.57    1.83   3 
  -3  -5   4   19.04    5.68   1 
  -5   3  -4   20.24    6.94   1 
   3   5  -4   10.50    3.99   3 
  -3  -5   4   21.75    6.11   4 
   3   5   4   12.93    5.69   2 
  -5   3   4   30.48    6.03   4 
  -5   3   4   27.71    7.71   1 
   3   5  -4   11.25    5.41   2 
  -3  -5  -4   20.13    5.15   4 
   3   5   4   20.62    5.79   3 
   5   5   4   20.40    7.32   2 
  -5   5   4   35.90    9.37   1 
  -5   5  -4   26.68    8.99   1 
  -5  -5   4    8.74    3.95   1 
   5   5   4   38.29    9.04   3 
   5   5  -4   27.10    8.25   2 
  -5  -5  -4   26.14    6.61   4 
   5   5  -4   34.50    8.27   3 
  -5  -5   4   28.54    8.30   4 
   6   4   4 2057.40   67.37   3 
  -6  -4  -4 2085.28   64.40   4 
   6   4  -4 2138.32   66.95   3 
  -4   6   4 2153.10   72.99   1 
  -6  -4   4 2218.28   67.86   1 
  -2   6  -4 3381.00   98.58   1 
   2  -6   4 3360.34   87.26   4 
  -6  -2   4 3341.49   92.62   1 
  -2   6   4 3405.20   99.49   5 
   6   2  -4 3275.38   87.06   3 
   6   2   4 3344.85   99.75   2 
  -6  -2  -4 3358.09   88.43   4 
  -2   6  -4 3412.35   92.18   5 
   6   2  -4 3486.84   98.05   2 
   6   2  -4 3501.80   89.90   6 
   6   2   4 3406.75   90.25   3 
  -2   6   4 3355.30   91.49   1 
   6   2   4 3252.81   95.13   6 
   0   6  -4 3669.97  101.80   5 
  -6   0  -4 3581.79   92.13   4 
   0  -6   4 3656.03   90.78   4 
   6   0   4 3637.93   89.27   3 
  -6   0   4 3618.01   99.36   1 
   6   0   4 3666.31  100.68   6 
   0   6   4 3638.03   99.29   2 
  -6   0  -4 3568.71   93.48   1 
   0   6  -4 3438.07   98.48   1 
   6   0  -4 3700.09   97.12   6 
   6   0  -4 3710.56   88.72   3 
   0   6   4 3721.06  108.06   5 
   6  -2  -4 3177.79   90.26   6 
   2   6   4 3291.03   96.91   2 
  -6   2  -4 3188.90   92.24   1 
  -2  -6   4 3184.16   83.27   4 
   2   6  -4 3193.94   91.35   2 
   2   6  -4 3145.44   86.91   1 
  -6   2   4 3139.85   93.65   1 
   2   6   4 3235.21   80.06   3 
   4   6  -4 2355.63   80.49   2 
  -4  -6   4 2311.11   70.26   4 
   4   6   4 2385.28   70.17   3 
   4   6  -4 2300.20   65.41   3 
  -6   4  -4 2351.13   80.45   1 
   4   6   4 2377.21   82.60   2 
  -6   6  -4 1424.51   64.24   1 
   6   6   4 1476.94   55.29   3 
   6   6  -4 1489.30   53.80   3 
   3  -7   4    1.15    4.29   4 
  -7  -3  -4   -3.29    3.92   4 
  -3   7   4   15.40    6.39   5 
   7   3   4   11.14    6.09   6 
  -7  -3   4    4.33    4.52   1 
  -7  -1   4    2.95    4.19   1 
   7   1   4   -0.27    2.98   3 
  -1   7   4    1.11    4.43   5 
   7   1  -4    2.33    2.84   3 
   7   1   4   -1.88    3.17   6 
  -7  -1  -4    7.03    4.17   4 
  -1   7  -4   -2.27    3.68   5 
   1  -7   4    3.21    3.50   4 
  -1   7  -4    1.79    3.85   1 
   7   1  -4    5.57    5.25   6 
  -1  -7   4   15.70    5.36   4 
   1   7  -4   23.02    8.40   5 
   1   7   4   22.48    7.61   2 
   7  -1  -4   19.63    6.72   6 
  -7   1  -4   10.23    4.63   4 
   1   7  -4   13.91    4.97   1 
  -7   1  -4   14.28    5.53   1 
  -7   1   4   21.84    7.11   1 
  -7   3  -4    4.47    4.75   1 
   3   7  -4    1.30    3.15   2 
  -3  -7   4    4.56    3.68   4 
  -7   3   4    2.94    3.86   1 
   3   7   4   -1.37    3.74   2 
  -8  -2   4 1522.27   57.34   1 
  -8   0   4 1522.36   58.61   1 
  -8   2   4 1535.37   60.43   1 
  -8   2  -4 1673.56   59.17   1 
   2   8   4 1362.63   58.87   2 
  -1   0   5 1117.06   30.32   1 
  -1   0  -5 1105.86   32.21   6 
   0  -1  -5 1132.67   29.21   3 
   0   1  -5 1015.68   27.23   3 
   0  -1  -5 1076.63   31.82   6 
   1   0  -5 1099.70   30.49   6 
   0   1   5 1118.31   33.91   5 
   0   1  -5 1099.91   29.10   6 
   0   1  -5 1134.56   31.68   1 
  -1   0  -5 1093.15   26.85   4 
   0   1  -5 1110.42   31.53   5 
   1   0  -5 1132.33   32.33   5 
  -1   0  -5 1131.78   29.87   3 
   1   0  -5 1122.92   28.07   3 
  -1   0   5 1109.27   25.44   4 
   0  -1   5 1141.59   28.76   4 
   1   0   5 1101.72   31.02   5 
  -2  -1   5  169.39    9.00   4 
   1  -2   5  167.35    8.35   6 
   2   1   5  159.66   12.00   2 
  -1   2   5  166.61   11.46   5 
  -1   2  -5  163.67   11.48   1 
   1  -2  -5  182.97    8.88   3 
   2   1  -5  165.97    9.89   5 
  -2  -1  -5  178.83   11.76   6 
  -2  -1  -5  167.28   10.84   3 
  -1   2   5  179.72    9.84   1 
  -1   2  -5  144.01    9.09   4 
  -2  -1  -5  184.67    9.42   4 
  -2  -1   5  165.88   10.35   1 
  -1   2  -5  157.35    9.10   5 
   2   1   5  165.74   10.22   5 
   2   1  -5  178.60    8.84   6 
   1  -2  -5  172.66   10.51   6 
   2   1  -5  161.84    9.14   3 
  -2   1   5  134.41    9.18   5 
  -2   1  -5  131.81    8.36   3 
   1   2  -5  142.13    5.85   6 
  -2   1  -5  120.26    8.09   4 
   1   2   5  115.15    9.82   2 
   1   2  -5  134.06    7.37   3 
  -1  -2  -5  137.22   10.13   6 
  -1  -2   5  118.11    8.24   4 
   2  -1  -5  127.60    8.79   6 
  -2   1  -5  130.68    7.05   5 
   1   2  -5  146.90    9.47   5 
  -2   1  -5  120.15    9.23   1 
   2  -1  -5  122.70    7.25   3 
   1   2  -5  127.53    9.47   1 
  -2   1   5  134.78    6.48   4 
  -1  -2  -5  137.07    6.28   4 
  -1  -2  -5  131.88    9.31   3 
   1   2   5  129.91   10.33   5 
  -2   1   5  120.48    8.67   1 
  -2   3  -5  648.51   23.31   5 
  -2   3   5  630.54   28.30   5 
   3   2  -5  676.95   25.66   5 
  -3  -2  -5  658.19   27.47   6 
   2  -3  -5  666.29   20.59   3 
   3   2  -5  650.70   26.69   2 
  -2   3  -5  638.83   24.42   4 
   3   2   5  618.79   26.17   3 
   2  -3   5  693.71   21.93   6 
  -3  -2   5  647.53   23.99   4 
   3   2   5  669.67   30.25   2 
  -2   3   5  668.26   26.39   1 
  -2   3   5  684.05   18.80   4 
   3   2  -5  631.20   20.68   6 
   2  -3  -5  651.10   25.46   6 
  -3  -2   5  635.88   25.48   1 
   3   2  -5  644.69   22.82   3 
  -2   3  -5  588.44   28.62   1 
  -3  -2  -5  626.44   22.97   4 
   3   2   5  724.09   26.58   5 
   3   0  -5   84.53    6.75   3 
  -3   0  -5   78.42    7.22   4 
  -3   0  -5   86.24    7.28   1 
   0   3  -5   80.56    7.79   5 
   3   0   5   93.61    5.91   5 
   3   0   5   95.40    8.21   3 
   0   3  -5   97.12    9.56   1 
   0  -3   5  102.55    8.43   4 
   0  -3  -5  109.86    8.72   6 
   0   3   5   81.84    9.41   5 
  -3   0   5   98.94    8.61   1 
   0   3   5   98.95    9.67   2 
   0  -3  -5   88.06    7.71   3 
   0  -3  -5   94.58    4.77   4 
  -3   0   5   95.45    6.91   4 
   3   0  -5  100.90    7.78   6 
   0   3  -5  106.24    5.85   3 
   3   0   5  100.90    9.16   6 
   3   0   5  103.54    9.50   2 
   3   0  -5   93.96    7.22   5 
  -3   2   5  437.20   21.12   1 
   3  -2  -5  481.48   16.25   3 
  -3   2  -5  425.76   22.51   1 
  -2  -3   5  443.47   21.07   1 
   3  -2  -5  427.17   19.74   6 
   2   3   5  448.83   20.44   3 
   2   3   5  431.32   23.79   2 
  -3   2   5  447.59   15.81   4 
  -3   2   5  448.56   20.26   5 
  -2  -3  -5  443.42   21.40   6 
   2   3   5  457.82   22.38   5 
  -3   2  -5  402.56   18.57   4 
   2   3  -5  433.62   21.27   5 
  -2  -3   5  413.06   19.07   4 
   2   3  -5  435.88   20.36   2 
  -2  -3  -5  429.68   16.03   4 
   2   3  -5  432.86   16.94   3 
   3  -2   5  427.74   18.93   6 
  -3   2  -5  461.28   15.32   5 
  -3   4  -5   98.40    8.20   5 
   4   3  -5  110.02   10.13   5 
   3  -4   5  113.56    8.70   6 
  -4  -3   5   95.35    9.70   4 
   4   3  -5   97.59   10.89   2 
   4   3  -5   84.49    8.40   3 
  -3   4  -5   86.57   11.49   1 
  -3   4   5  118.15   11.83   1 
  -3   4   5   97.21   10.97   5 
  -4  -3  -5  115.59    9.91   4 
   3  -4  -5   87.86    9.11   6 
   4   3   5   88.99    9.94   3 
   4   3   5  100.73   12.08   2 
  -4  -3   5   87.38    9.59   1 
  -3   4  -5  117.64   10.31   4 
   1  -4   5  392.68   19.82   4 
  -4  -1  -5  409.41   19.27   4 
  -1   4   5  393.04   23.17   5 
  -4  -1   5  417.78   18.92   4 
   1  -4  -5  426.22   17.31   3 
   4   1  -5  399.30   18.13   3 
  -1   4  -5  412.51   19.76   5 
   4   1  -5  424.81   18.52   6 
   4   1   5  418.09   21.81   6 
   4   1  -5  416.17   17.67   5 
   4   1   5  374.31   19.79   3 
   1  -4  -5  388.37   18.91   6 
   4   1   5  423.85   22.94   2 
  -1   4  -5  386.59   22.80   1 
  -4  -1   5  401.34   20.44   1 
  -1   4   5  426.89   21.38   2 
  -1   4   5  436.78   19.27   1 
  -4   1   5  328.20   15.81   5 
  -4   1   5  319.13   18.54   1 
   1   4   5  370.73   22.31   5 
   4  -1  -5  348.50   14.96   3 
   1   4  -5  333.25   18.50   5 
   4  -1   5  329.79   15.72   3 
   1   4  -5  349.83   19.49   1 
   4  -1   5  334.29   19.05   6 
   1   4  -5  337.34   13.85   3 
  -4   1  -5  328.58   18.32   1 
  -1  -4  -5  345.40   13.20   4 
   1   4   5  339.56   16.88   3 
   1   4   5  345.84   20.92   2 
  -1  -4  -5  336.08   17.89   6 
  -4   1   5  342.69   15.31   4 
   1   4  -5  323.11   16.90   2 
  -4   1  -5  325.42   17.43   4 
  -1  -4   5  310.29   16.85   4 
   4  -1  -5  318.82   17.09   6 
  -4   3   5   70.79    9.67   1 
   4  -3   5   55.25    7.05   6 
   3   4   5   58.13    9.31   2 
   3   4   5   56.25    7.94   3 
  -3  -4  -5   70.04    8.68   6 
   4  -3  -5   59.45    7.71   6 
  -4   3   5   66.13    6.38   4 
  -3  -4   5   73.60    8.70   4 
  -3  -4   5   72.44    8.94   1 
   3   4   5   71.83    9.22   5 
  -4   3   5   75.91    8.49   5 
  -4   3  -5   52.37    8.94   1 
   3   4  -5   76.50    7.37   3 
   3   4  -5   73.93    9.19   5 
  -4   3  -5   49.41    6.84   4 
   3   4  -5   51.45    7.36   2 
  -3  -4  -5   62.45    6.64   4 
  -4   5  -5   73.16   12.31   1 
   5   4  -5   77.84   11.00   2 
   5   4   5   78.06   10.54   3 
  -5  -4   5  100.70   11.39   1 
  -5  -4  -5   74.69    9.36   4 
   5   4   5   98.75   12.99   2 
   5   4   5  106.73   12.29   6 
   5   4  -5   73.55    9.51   3 
  -4   5   5   99.60   12.23   1 
  -5  -2   5  134.77   12.25   1 
   5   2  -5  157.14   11.48   6 
   2  -5   5  149.44   12.86   4 
   5   2   5  140.59   13.77   6 
   5   2   5  154.40   13.65   3 
  -2   5   5  180.92   16.03   5 
  -2   5   5  201.27   14.81   1 
   5   2  -5  131.38   11.26   3 
  -2   5  -5  138.16   14.86   1 
  -2   5  -5  138.45   11.65   5 
   5   2   5  136.88   14.30   2 
   2  -5  -5  169.22   12.76   6 
  -5  -2  -5  144.61   12.40   4 
   0  -5  -5  134.41   10.98   6 
  -5   0   5  112.14   11.50   1 
   0   5  -5  129.53   12.84   1 
   5   0   5  121.48   10.70   3 
   5   0  -5  133.81   10.28   3 
   0   5   5  121.91   11.95   2 
  -5   0   5  122.68   10.21   4 
   0   5   5  124.42   13.78   5 
   5   0   5  130.41   12.38   6 
  -5   0  -5  121.65   10.27   1 
   5   0  -5  110.79   10.61   6 
   0   5  -5  120.93   11.82   5 
  -5   0  -5  120.16   10.88   4 
   0  -5   5  126.58   11.19   4 
   5  -2  -5  224.80   16.15   6 
   2   5  -5  235.15   16.35   2 
   2   5   5  247.09   15.95   3 
   2   5   5  243.80   18.85   2 
   2   5  -5  266.92   17.79   1 
  -5   2   5  233.20   13.59   4 
   2   5  -5  235.32   12.70   3 
  -2  -5  -5  242.02   16.10   6 
   5  -2  -5  245.51   13.15   3 
  -5   2  -5  245.53   17.31   4 
  -5   2  -5  239.96   17.86   1 
  -5   2   5  240.15   18.29   1 
  -5   4   5   49.72   10.45   1 
   4   5   5   63.32    9.33   3 
  -4  -5   5   54.25    8.34   1 
   4   5   5   48.05   11.22   2 
   4   5  -5   35.31    8.86   2 
   4   5  -5   44.97    6.88   3 
  -4  -5  -5   40.76    6.47   4 
  -5   4  -5   47.30   11.06   1 
   6   5   5   73.16   11.36   3 
  -5   6  -5   82.75   13.24   1 
   6   5  -5   79.80   11.18   3 
  -6  -5  -5   85.75   10.55   4 
   3  -6   5  122.57   12.91   4 
  -6  -3  -5  146.23   13.27   4 
  -3   6   5  172.27   16.28   5 
   6   3   5  110.77   14.28   2 
  -3   6  -5  117.75   14.63   1 
  -6  -3   5  132.13   13.71   1 
   6   3   5  112.38   12.56   3 
  -3   6   5  108.63   12.20   1 
   6   3   5  140.52   14.97   6 
   6   3  -5  129.39   12.48   3 
   6   3  -5  128.77   14.13   2 
   6   1  -5   34.96    7.40   3 
   6   1   5   27.77    7.49   6 
  -6  -1   5   44.17    7.82   1 
  -1   6  -5   38.45    9.21   1 
   1  -6   5   40.32    8.43   4 
   6   1   5   36.94    8.11   2 
   6   1   5   45.06    7.46   3 
  -1   6  -5   45.68    7.89   5 
   6   1  -5   35.45    7.67   6 
  -1   6   5   48.65   10.99   5 
  -6  -1  -5   32.59    7.57   4 
   1   6  -5  116.84   12.63   5 
   6  -1  -5  100.87   11.33   6 
   1   6  -5  103.31   12.02   1 
  -6   1  -5   97.47   11.00   1 
  -6   1   5  110.07   12.95   1 
  -1  -6   5  119.43   11.68   4 
   6  -1  -5   96.84    9.43   3 
  -6   1  -5   95.98   10.59   4 
   1   6   5   94.35   11.84   2 
  -3  -6   5  108.04   12.00   4 
  -3  -6   5  138.67   13.81   1 
   3   6  -5  124.33   13.60   2 
   3   6   5  131.71   12.31   3 
  -6   3   5  148.93   15.60   1 
  -6   3  -5  125.98   14.79   1 
   3   6   5  133.80   15.65   2 
   5   6  -5   53.30   12.17   2 
  -6   5  -5   63.24   14.22   1 
   5   6   5   47.70   11.46   2 
   5   6  -5   60.95    9.47   3 
   5   6   5   73.36   10.63   3 
   7   4  -5   93.16   12.06   3 
  -2   7   5   31.16    9.33   5 
   7   2   5   44.82    8.43   2 
   7   2   5   26.61    9.04   6 
  -7  -2   5   23.16    7.60   1 
  -7  -2  -5   41.42    9.06   4 
  -2   7  -5   36.14    8.37   5 
   2  -7   5   40.21    8.62   4 
   7   0  -5  116.71   13.24   6 
   0  -7   5  126.88   13.29   4 
  -7   0  -5   82.74   10.76   4 
   7   0   5  112.20   11.53   3 
  -7   0   5  119.77   14.00   1 
   0   7   5  120.98   15.54   5 
   7   0   5  138.98   15.43   6 
   0   7  -5  122.09   14.14   5 
   7   0  -5  116.93   11.69   3 
   0   7  -5  131.27   14.02   1 
   7  -2  -5   25.86    8.36   6 
  -7   2  -5   35.68    8.91   1 
  -7   2   5   39.90   10.28   1 
   2   7   5   27.23    8.00   2 
  -2  -7   5   31.99    8.35   4 
   2   7  -5   30.02    7.99   1 
   4   7   5   80.09   12.94   2 
   4   7   5  114.92   12.98   3 
   4   7  -5   81.41   12.41   2 
  -7   4  -5   95.98   14.09   1 
  -8  -1   5  104.94   13.79   1 
  -8   1   5   45.87   11.71   1 
   0   0  -6   -4.92    1.74   3 
   0   0   6   -2.12    1.85   4 
   0   0  -6   -5.65    2.03   6 
   0   0  -6   -7.65    1.48   5 
  -1   1  -6 8298.37  177.47   6 
   1  -1  -6 8154.10  179.04   6 
  -1   1  -6 8414.29  165.83   4 
  -1   1   6 8344.68  159.98   4 
  -1  -1  -6 8661.42  169.08   3 
  -1  -1   6 8230.00  165.00   4 
  -1   1   6 8227.70  175.96   1 
   1   1   6 8280.32  186.96   5 
  -1   1  -6 8363.47  179.47   1 
  -1  -1  -6 8537.31  182.23   6 
   1   1  -6 8290.50  175.08   6 
  -1   1  -6 8511.87  164.75   3 
   1  -1  -6 8332.34  164.39   3 
   1   1  -6 8225.59  163.89   3 
   1   1  -6 8167.34  185.91   5 
  -1  -1   6 8272.56  178.91   1 
  -1   1   6 7978.32  188.01   5 
  -1   1  -6 8131.81  183.19   5 
  -1  -1  -6 8347.73  161.16   4 
   2   0  -6    0.50    1.98   3 
  -2   0  -6   -1.99    1.83   3 
   0   2  -6   -1.96    1.72   5 
   0  -2  -6    1.98    2.60   3 
   2   0   6   -3.54    1.51   5 
  -2   0   6   -3.63    1.39   4 
   2   0  -6   -0.43    2.07   5 
   0   2  -6   -3.10    2.16   1 
   0  -2  -6   -2.32    1.91   6 
  -2   0   6   -2.45    1.68   1 
  -2   0  -6   -1.71    1.68   4 
   2   0  -6   -3.00    1.53   6 
  -2   0  -6    0.23    2.34   6 
   0   2  -6   -2.49    1.23   6 
   0  -2   6   -2.82    1.95   4 
   0   2  -6   -3.52    1.32   3 
   0   2   6   -1.27    2.37   5 
  -2   2  -6   -0.69    1.58   5 
   2   2  -6   -0.42    1.31   3 
  -2   2  -6    0.44    2.49   1 
  -2   2  -6    2.74    2.12   3 
   2   2  -6    4.21    2.91   5 
   2   2  -6   -2.74    1.20   6 
   2   2   6   -2.27    2.28   5 
   2  -2   6   -1.57    1.56   6 
  -2  -2   6   -1.97    1.74   4 
  -2  -2  -6    0.15    2.24   6 
  -2  -2   6   -1.13    1.70   1 
  -2  -2  -6   -0.60    1.83   3 
   2  -2  -6   12.13    4.24   6 
  -2   2  -6    2.33    2.02   4 
  -2   2   6    0.28    2.11   1 
  -2   2   6    0.36    1.15   4 
  -2   2   6    6.88    3.37   5 
   2   2   6   -2.79    1.97   2 
  -2  -2  -6   -3.21    1.22   4 
   2  -2  -6   -2.52    1.15   3 
  -1   3  -6 5836.84  114.23   3 
  -3  -1   6 5532.46  119.96   4 
   3   1   6 6105.70  132.44   5 
   1  -3   6 5650.64  123.16   4 
   3   1  -6 5572.68  132.55   5 
   1  -3  -6 5627.57  118.49   3 
  -3  -1   6 5509.23  130.49   1 
   3   1  -6 5738.00  125.62   6 
   3   1   6 5872.87  143.05   2 
   3   1   6 5704.14  125.32   3 
  -1   3  -6 5528.47  135.16   1 
  -3  -1  -6 5623.53  120.39   4 
   3   1  -6 5693.02  120.34   3 
   1  -3   6 5806.69  121.34   6 
  -3  -1  -6 5526.44  133.30   6 
  -1   3   6 5359.39  140.32   5 
  -1   3  -6 5710.85  132.59   5 
   1  -3  -6 5635.57  130.39   6 
  -1   3   6 5654.27  127.24   1 
  -1  -3  -6 7905.86  157.90   4 
  -3   1   6 7998.04  160.92   4 
   1   3   6 8030.57  191.28   5 
  -3   1   6 7973.45  183.37   5 
  -1  -3   6 7759.18  167.80   4 
   1   3  -6 7856.85  185.57   5 
  -3   1  -6 8109.71  179.74   1 
   1   3   6 8143.80  195.42   2 
  -3   1   6 8202.80  179.86   1 
  -1  -3  -6 7893.07  180.89   6 
   3  -1   6 8661.25  187.59   2 
   1   3  -6 7735.73  181.88   1 
  -3   1  -6 8228.05  167.28   4 
  -1  -3  -6 7893.88  168.11   3 
   3  -1  -6 8168.81  161.87   3 
   3  -1   6 7735.80  178.41   6 
   3  -1  -6 8015.42  177.40   6 
   1   3  -6 8147.30  160.88   3 
   3  -1   6 8313.37  176.65   5 
   3  -1   6 8488.13  166.18   3 
   3   3   6 5367.57  127.32   5 
  -3   3   6 5118.14  123.34   1 
  -3  -3  -6 4897.40  123.69   6 
   3  -3  -6 4926.20  120.25   6 
   3   3  -6 4960.97  109.51   3 
   3  -3   6 5009.80  116.72   6 
   3   3  -6 4985.86  125.33   5 
  -3  -3   6 4990.54  114.21   4 
  -3   3  -6 5088.01  115.00   4 
  -3   3  -6 5180.97  116.94   5 
  -3  -3  -6 4912.50  109.10   4 
  -3   3   6 5041.55  126.85   5 
   3   3   6 5161.06  117.03   3 
  -3   3  -6 5042.85  129.12   1 
   3   3   6 4939.91  132.62   2 
  -3  -3   6 4987.38  122.73   1 
   3  -3  -6 5056.32  105.44   3 
  -2   4  -6    1.70    2.67   1 
   2  -4  -6    3.47    2.38   6 
  -4  -2   6    5.08    2.38   4 
  -2   4   6    4.23    3.36   1 
  -2   4  -6   -1.10    1.86   4 
   4   2  -6   -0.62    1.63   6 
  -4  -2  -6    1.80    2.40   4 
   4   2   6    2.14    3.08   3 
  -2   4   6    4.24    3.91   5 
   4   2   6   -3.08    1.91   2 
   4   2  -6   -1.05    1.67   5 
  -2   4  -6   -0.37    1.94   5 
  -4  -2   6    2.73    2.50   1 
   4   2  -6    3.03    1.93   3 
   4   0   6    2.74    2.92   3 
  -4   0   6    1.85    2.15   1 
   0  -4   6    0.85    1.68   4 
   0  -4  -6    1.16    1.78   6 
   4   0  -6    2.54    2.02   3 
  -4   0   6    0.36    1.87   5 
   4   0  -6    3.24    2.06   6 
   4   0   6   -1.07    1.57   6 
  -4   0   6    4.14    2.59   4 
   0   4   6   -3.47    1.79   5 
  -4   0  -6   -2.48    1.51   4 
   0   4  -6    2.32    2.33   5 
   4   0   6   11.03    4.36   2 
   0   4   6    2.58    2.16   2 
   0  -4  -6    5.09    2.47   3 
   0   4  -6    2.59    2.67   1 
  -4   2  -6   -1.44    2.43   1 
  -4   2   6    0.39    1.92   1 
   2   4  -6    1.10    2.42   5 
   2   4   6   -0.02    2.19   5 
  -2  -4   6    1.05    1.75   4 
   2   4  -6   -0.67    1.43   3 
   2   4  -6   -1.87    2.10   1 
  -4   2   6   -0.04    2.13   5 
  -2  -4  -6   -1.29    1.14   4 
   4  -2   6    1.16    1.76   6 
  -2  -4  -6    2.48    2.91   6 
   2   4   6    0.21    1.98   3 
  -4   2   6   -0.15    1.57   4 
   2   4   6    1.42    2.77   2 
  -4   2  -6   -0.91    1.53   4 
   4  -2  -6    1.27    2.49   6 
   4  -2  -6    1.15    1.77   3 
   4   4   6    4.35    3.14   2 
  -4   4   6    2.20    4.04   5 
   4  -4   6    0.51    1.91   6 
  -4  -4   6   -0.59    2.15   1 
  -4   4  -6    0.22    3.59   1 
  -4  -4  -6    2.21    2.80   4 
   4   4  -6   -1.83    1.94   3 
   4   4  -6    2.76    2.62   2 
   4   4   6    4.13    3.39   3 
  -4   4   6   -0.95    2.83   1 
  -3   5   6 3444.42   94.27   1 
   5   3   6 3390.92  102.39   2 
   5   3  -6 3345.04   85.57   3 
   5   3   6 3258.83   89.53   3 
  -3   5   6 3443.11   97.48   5 
   5   3   6 3390.22   95.30   6 
  -5  -3   6 3383.32   92.59   1 
  -5  -3  -6 3382.87   84.80   4 
  -3   5  -6 3332.42  100.20   1 
   5   1  -6 5238.25  119.97   6 
   5   1   6 4911.36  126.81   6 
  -1   5  -6 5108.40  126.07   5 
  -5  -1  -6 4905.33  115.15   4 
  -1   5   6 4842.20  128.64   2 
   1  -5  -6 5033.68  121.20   6 
  -5  -1   6 4871.06  123.92   1 
  -1   5   6 5106.35  136.10   5 
   5   1  -6 4973.38  112.92   3 
   5   1   6 4991.74  117.27   3 
   5   1   6 5108.93  131.71   2 
  -1   5  -6 4964.04  130.01   1 
   5  -1   6 3320.52   78.28   3 
   1   5  -6 3213.42   89.61   1 
  -1  -5  -6 3250.62   84.98   6 
  -5   1   6 3148.78   76.29   4 
   5  -1  -6 3234.49   75.96   3 
  -5   1  -6 3124.41   81.17   4 
   5  -1  -6 3153.56   84.73   6 
   1   5   6 3247.82   79.91   3 
   1   5   6 3183.28   93.46   2 
  -5   1  -6 3354.00   86.04   1 
  -5   1   6 3118.54   89.43   1 
  -3  -5   6 3697.27   99.69   1 
  -3  -5  -6 3512.04   96.18   6 
   3   5   6 3704.77   91.76   3 
  -5   3  -6 3584.30   92.86   4 
   3   5  -6 3627.12  102.18   2 
  -5   3  -6 3717.44  102.71   1 
   3   5   6 3538.07  106.82   2 
  -5   3   6 3586.32  100.77   1 
   3   5  -6 3635.78   85.44   3 
  -5  -5   6 2362.39   73.83   1 
   5   5  -6 2305.06   67.85   3 
   5   5   6 2236.55   70.86   3 
  -5   5  -6 2383.38   82.84   1 
  -6  -4  -6    0.62    3.54   4 
   6   4  -6    0.46    3.16   3 
   4  -6   6    0.57    3.95   4 
  -6  -4   6   -1.28    4.10   1 
   6   4   6    7.94    5.33   6 
  -4   6   6    3.02    3.58   1 
  -6  -2  -6   -0.88    2.79   4 
   6   2   6   -1.04    2.33   3 
   6   2   6    0.14    4.06   6 
   6   2  -6    1.79    2.15   3 
  -2   6  -6    0.87    3.37   5 
  -6  -2   6    2.04    3.50   1 
   6   2   6   -5.75    2.35   2 
  -2   6   6    1.90    4.54   5 
  -2   6  -6    4.56    3.52   1 
   2  -6   6    2.15    3.29   4 
   6   0  -6    0.83    2.68   6 
   0   6  -6    0.76    2.78   5 
   6   0  -6   -0.08    1.93   3 
  -6   0  -6    5.67    3.13   4 
   0   6   6    2.76    4.31   5 
  -6   0   6   -0.73    2.67   1 
   0  -6   6    2.31    2.99   4 
   0   6  -6    1.76    2.96   1 
   0   6   6    0.75    3.09   2 
   6   0   6   -2.71    2.54   3 
   2   6   6    4.09    4.22   2 
  -2  -6   6   -0.83    2.94   4 
   2   6   6   -3.71    2.84   3 
  -6   2  -6    0.32    3.08   4 
  -6   2  -6   -0.67    3.12   1 
  -6   2   6    2.91    2.97   1 
   6  -2  -6   -1.17    2.73   6 
   2   6  -6    2.48    3.38   1 
  -4  -6   6    0.21    3.61   1 
  -6   4  -6   -0.58    4.70   1 
   4   6  -6    2.62    3.56   3 
   4   6   6   -0.29    3.55   2 
   4   6   6    2.40    4.00   3 
   7   3   6 1730.14   64.55   6 
  -3   7   6 1743.11   64.95   5 
  -7  -3   6 1673.28   62.10   1 
  -7  -3  -6 1695.89   56.48   4 
   7   1  -6 2207.52   69.51   6 
   7   1   6 2209.91   75.03   6 
  -7  -1  -6 2233.62   67.11   4 
   1  -7   6 2206.95   67.03   4 
  -7  -1   6 2128.29   73.15   1 
  -1   7   6 2183.31   78.95   5 
  -1   7  -6 2182.63   72.03   5 
   7   1   6 2218.51   67.95   3 
   7  -1  -6 2512.69   77.04   6 
   1   7   6 2481.70   80.06   2 
  -1  -7   6 2370.74   71.60   4 
  -7   1  -6 2460.85   72.79   4 
   7  -1  -6 2382.54   66.32   3 
   1   7  -6 2451.22   81.54   5 
  -7   1   6 2279.18   79.09   1 
   3   7   6 1990.75   74.00   2 
  -7   3  -6 2011.15   70.65   1 
  -3  -7   6 2042.71   67.10   1 
  -8  -2   6   -0.95    4.21   1 
  -8   0   6    4.32    3.98   1 
  -8   2   6   -0.62    4.26   1 
  -2  -8   6   12.99    5.26   1 
   2   8   6   -8.72    3.67   2 
   0  -1   7  765.51   23.36   4 
   1   0  -7  788.98   23.98   3 
   0   1  -7  775.62   23.04   3 
  -1   0  -7  757.91   21.59   4 
   0  -1  -7  779.96   24.47   3 
  -1   0  -7  724.01   26.58   6 
   1   0  -7  729.23   25.07   6 
   0   1  -7  751.89   26.21   5 
  -1   0   7  813.68   25.39   1 
   1   0  -7  781.96   27.31   5 
   0   1   7  737.78   28.03   5 
   1   0   7  749.64   26.09   5 
  -1   0   7  774.30   19.81   4 
   0   1  -7  780.88   26.34   1 
   0   1  -7  781.22   24.63   6 
   0  -1  -7  763.25   27.22   6 
  -1   0  -7  762.79   25.25   3 
   2   1   7  221.75   12.98   5 
  -1   2  -7  195.85   13.54   1 
  -2  -1  -7  215.36   10.37   4 
   2   1  -7  215.10   12.98   5 
  -1   2   7  207.71   14.30   5 
   1  -2  -7  204.45   12.75   6 
  -2  -1   7  206.24   12.79   1 
   2   1  -7  211.79   11.11   6 
  -1   2  -7  205.37   11.85   5 
  -1   2  -7  220.50   10.71   3 
   2   1  -7  210.60   11.18   3 
   1  -2  -7  203.52   10.96   3 
  -1   2  -7  213.28   12.07   4 
  -1   2   7  233.98   11.70   1 
  -1   2  -7  211.36   10.56   6 
  -2  -1  -7  196.64   13.08   3 
  -2  -1  -7  213.60   14.21   6 
  -2  -1   7  220.42   10.72   4 
  -2   1  -7  104.23    7.88   4 
   2  -1  -7  118.64    7.75   3 
   1   2  -7  118.08    6.74   6 
   2  -1  -7  100.45    8.61   6 
  -2   1   7   97.39    8.26   1 
  -2   1  -7  104.79    7.53   5 
  -2   1  -7  101.77    8.55   6 
  -2   1  -7  110.93    8.90   1 
   1   2  -7  107.77    9.06   5 
  -1  -2  -7  108.98    9.25   3 
   1   2   7   98.46    9.82   5 
  -2   1  -7   92.11    7.87   3 
  -1  -2  -7  100.05    5.01   4 
  -2   1   7   97.59    8.88   5 
  -1  -2  -7  100.80    9.58   6 
  -1  -2   7  107.92    8.48   4 
   1   2  -7  110.59    7.24   3 
   1   2  -7  105.01    9.41   1 
  -2   1   7  111.78    5.60   4 
  -2   3  -7  524.70   21.41   5 
   2  -3  -7  551.02   24.32   6 
  -3  -2  -7  554.65   26.61   6 
  -2   3  -7  502.64   26.29   1 
   3   2   7  535.77   24.66   3 
   3   2  -7  558.90   24.23   5 
   3   2   7  549.82   24.21   5 
  -2   3  -7  516.23   22.65   4 
  -3  -2  -7  529.84   20.60   4 
   2  -3  -7  514.21   19.62   3 
   2  -3   7  568.02   20.22   6 
  -2   3   7  529.18   26.51   5 
   3   2   7  509.37   27.01   2 
   3   2  -7  550.22   21.37   3 
  -2   3   7  580.34   24.00   1 
  -3  -2   7  494.91   23.81   1 
   3   2  -7  555.61   19.74   6 
  -3  -2   7  517.56   21.43   4 
   0  -3  -7   90.74    9.28   6 
   0   3  -7   87.59    8.61   5 
   0  -3   7   96.67    8.75   4 
   0   3  -7   91.74    9.67   1 
   3   0   7  104.08    7.41   5 
   3   0  -7   99.73    7.90   3 
   3   0   7   95.11    9.60   2 
   3   0  -7   87.91    7.98   6 
  -3   0   7  109.32    9.60   1 
   0   3  -7   99.20    6.76   3 
  -3   0  -7  104.05    9.67   6 
   0   3   7  102.10   10.80   5 
  -3   0   7   95.34    7.35   4 
  -3   0  -7   75.05    6.82   1 
   0  -3  -7   94.32    8.45   3 
  -3   0  -7   87.12    7.74   4 
  -3   2  -7  282.68   18.16   1 
   2   3   7  282.34   17.96   5 
   3  -2   7  337.41   17.10   6 
  -3   2  -7  320.09   13.65   5 
   3  -2  -7  326.96   14.39   3 
  -2  -3   7  331.60   17.37   4 
  -3   2  -7  314.52   17.03   4 
   2   3  -7  336.13   18.50   5 
  -3   2   7  312.93   18.20   5 
   2   3   7  276.63   19.74   2 
   2   3  -7  309.08   14.53   3 
   2   3   7  310.03   17.95   3 
  -2  -3  -7  275.79   17.77   6 
  -2  -3  -7  328.64   13.43   4 
  -3   2   7  322.22   18.11   1 
   3  -2  -7  316.02   17.60   6 
  -2  -3   7  309.45   18.72   1 
   4   3  -7   98.09   10.44   5 
   4   3  -7   79.89    8.30   3 
   4   3   7   72.43    9.30   3 
  -4  -3   7   81.24   10.19   1 
  -3   4  -7   81.77    9.40   4 
  -4  -3  -7   92.88    9.03   4 
  -3   4   7   80.66   10.38   5 
   4   3   7   67.52   10.49   2 
  -3   4  -7   94.50   11.85   1 
  -3   4   7   95.94   10.81   1 
  -4  -1  -7  342.63   17.30   4 
  -4  -1   7  338.79   16.72   4 
   4   1   7  320.92   18.96   3 
   1  -4  -7  336.72   16.43   3 
   4   1   7  326.66   21.22   2 
  -1   4   7  296.79   19.32   2 
  -4  -1   7  329.88   19.19   1 
   1  -4   7  307.76   18.02   4 
  -1   4  -7  304.20   17.38   5 
   1  -4  -7  316.28   17.93   6 
   4   1  -7  327.19   16.57   6 
  -1   4  -7  309.00   20.95   1 
  -1   4   7  341.78   22.46   5 
   4   1  -7  325.06   17.12   5 
   4   1   7  336.90   20.46   6 
   4   1  -7  322.32   16.56   3 
   4  -1  -7  255.67   16.07   6 
   4  -1   7  273.21   15.64   3 
   4  -1  -7  279.11   14.06   3 
  -1  -4   7  265.27   16.22   4 
  -4   1   7  268.67   15.72   5 
  -4   1   7  269.17   17.51   1 
   1   4  -7  265.82   12.77   3 
   1   4   7  272.97   19.25   5 
  -4   1   7  272.52   13.30   4 
   4  -1   7  281.37   17.52   6 
  -4   1  -7  264.43   16.48   1 
   1   4  -7  283.35   17.85   5 
  -1  -4  -7  257.55   16.66   6 
  -4   1  -7  250.94   15.89   4 
   1   4  -7  288.72   19.39   1 
   1   4   7  282.72   19.28   2 
   1   4   7  268.00   16.20   3 
   3   4   7   62.88    9.67   2 
  -4   3   7   47.65    7.65   5 
   4  -3   7   65.42    7.69   6 
   3   4   7   60.56    8.02   3 
  -4   3   7   57.36    8.49   1 
   3   4   7   64.76    9.05   5 
  -4   3  -7   63.82    9.94   1 
  -3  -4  -7   59.54    8.64   6 
  -4   3  -7   52.95    7.82   4 
   3   4  -7   53.32    6.78   3 
  -3  -4   7   44.00    7.91   1 
   5   4   7   63.83   10.18   6 
  -4   5   7   88.14   11.23   1 
   5   4  -7   89.00    9.84   3 
  -5  -4   7   96.54   12.29   1 
  -4   5  -7   90.11   13.58   1 
   5   4   7   73.54   11.59   2 
   5   4   7   87.73   11.43   3 
  -2   5  -7  126.74   11.55   5 
  -5  -2  -7  109.17   10.63   4 
   5   2   7  118.94   13.32   6 
   5   2  -7  115.30   10.93   3 
  -5  -2   7  121.31   12.52   1 
  -2   5  -7  118.37   14.16   1 
  -2   5   7  111.37   13.02   5 
   5   2   7   98.63   12.43   2 
   5   2   7  107.15   11.53   3 
  -5   0  -7  100.27   10.19   4 
   0   5   7  110.22    9.77   3 
   5   0  -7  116.75   10.98   6 
   5   0  -7  113.18    9.92   3 
  -5   0   7   99.03   11.48   1 
   0   5   7  110.50   11.95   2 
   5   0   7  125.07   11.51   3 
   0   5  -7  110.91   12.79   1 
   0   5  -7  112.67   11.71   5 
   0  -5  -7  113.12   10.92   6 
  -5   0   7  121.76   10.03   4 
  -5   2  -7  219.17   17.24   1 
   2   5   7  210.94   18.40   2 
   2   5  -7  226.06   17.78   1 
   5  -2  -7  236.77   17.20   6 
  -2  -5  -7  238.09   16.99   6 
   2   5   7  194.12   14.68   3 
   2   5  -7  210.74   12.34   3 
  -5   2  -7  226.93   16.17   4 
   5  -2  -7  223.61   13.17   3 
  -5   2   7  189.06   16.49   1 
   4   5   7   44.93    9.33   3 
   4   5  -7   41.98    8.34   3 
  -5   4   7   36.85    9.04   1 
  -5   4  -7   36.59    9.99   1 
  -5   4  -7   45.04    9.66   4 
  -4  -5   7   51.98    8.73   1 
   4   5   7   46.76   11.15   2 
  -5   6  -7  109.93   16.30   1 
   6   5  -7   76.69   10.84   3 
  -6  -5   7   87.60   11.98   1 
   6   5   7   65.12   10.49   3 
  -6  -3  -7  128.14   12.28   4 
   6   3   7  117.25   14.43   2 
   6   3   7  120.15   13.30   3 
  -3   6   7  125.32   15.23   5 
   6   3  -7  127.23   12.70   3 
  -6  -3   7  122.87   13.83   1 
   6   3   7  129.60   15.09   6 
   3  -6   7  122.25   13.62   4 
   6   1  -7   31.24    7.25   6 
   6   1   7   34.90    9.16   6 
   6   1  -7   29.86    7.02   3 
  -1   6  -7   31.80    7.79   5 
  -1   6  -7   33.00    9.03   1 
  -1   6   7   32.17    9.72   5 
  -6  -1  -7   36.58    7.69   4 
   6   1   7   28.36    7.10   3 
  -6  -1   7   34.36    8.77   1 
   1   6  -7  104.46   12.48   1 
   6  -1  -7   99.11    9.68   3 
   6  -1  -7   97.63   11.78   6 
  -6   1  -7  109.36   12.20   4 
   1   6   7  113.48   13.73   2 
  -6   1   7  105.76   12.85   1 
   1   6  -7  100.69   12.68   5 
  -6   3   7   85.39   12.00   1 
   3   6   7  105.48   11.77   3 
  -6   3  -7  130.81   14.90   1 
  -6   3  -7  102.01   12.22   4 
   3   6   7   94.66   13.65   2 
  -3  -6   7  108.53   13.07   1 
   5   6   7   73.04   10.50   3 
   5   6  -7   66.61    9.93   3 
  -5  -6   7   62.85   10.27   1 
  -6   5  -7   63.45   13.73   1 
   5   6   7   68.67   12.15   2 
   7   4  -7   67.81   10.92   3 
  -7  -4   7   70.20   11.33   1 
  -7  -2   7   20.79    7.44   1 
  -2   7  -7   41.98    9.38   5 
   7   2   7   35.34    9.83   6 
   2  -7   7   37.86    8.68   4 
  -7  -2  -7   41.21    9.24   4 
  -2   7   7   33.30    9.97   5 
   7   0  -7  112.06   13.44   6 
   0   7   7  126.93   16.07   5 
  -7   0  -7   97.56   11.69   4 
  -7   0   7  102.30   13.33   1 
   0  -7   7   99.70   12.59   4 
   7   0   7   63.13    8.88   3 
   7   0  -7  105.18   11.09   3 
   0   7  -7  119.37   14.04   5 
   7  -2  -7   12.78    6.21   6 
  -2  -7   7   17.00    6.18   4 
  -7   2  -7   22.27    6.46   4 
   2   7   7   11.15    6.36   2 
  -7   4  -7   97.27   14.93   1 
   4   7   7   99.27   14.98   2 
   4   7   7  109.32   12.37   3 
  -4  -7   7   79.09   10.66   1 
  -8  -1   7   77.63   12.43   1 
  -8   1   7   44.73   10.95   1 
   0   0  -8 6108.33  143.60   6 
   0   0   8 6752.53  128.72   4 
   0   0   8 6366.60  140.33   1 
   0   0  -8 6582.50  133.72   3 
   1  -1  -8  132.97    8.94   3 
  -1  -1  -8  151.02   11.88   6 
  -1   1   8  133.75    8.90   1 
  -1  -1   8  146.38   10.52   1 
  -1   1  -8  136.18    8.90   4 
   1   1  -8  141.01   10.57   5 
  -1   1  -8  147.80   10.11   6 
   1   1  -8  141.88    9.19   6 
  -1  -1  -8  125.78   10.21   3 
  -1   1   8  151.89   11.86   5 
  -1   1  -8  129.87    9.63   5 
  -1  -1   8  150.28    8.86   4 
  -1   1  -8  147.42   10.26   1 
   1   1   8  137.20   10.81   5 
   1  -1  -8  118.78    9.67   6 
  -1  -1  -8  132.08    6.48   4 
  -1   1  -8  149.25    9.48   3 
   1   1  -8  135.42    9.17   3 
  -2   0   8 7200.08  161.86   1 
   2   0  -8 7209.74  149.58   3 
   0  -2  -8 7493.61  152.46   3 
   2   0  -8 7307.98  161.23   6 
  -2   0  -8 7246.21  153.74   3 
   2   0   8 7267.06  166.05   5 
   0   2  -8 6977.24  167.64   5 
   0  -2  -8 7160.66  164.44   6 
   0  -2   8 7445.75  152.02   4 
  -2   0   8 7400.78  145.22   4 
   0   2  -8 7389.70  147.94   3 
  -2   0  -8 7234.18  164.92   6 
   0   2   8 7173.82  173.60   5 
  -2   0  -8 7304.06  148.38   4 
   2   0  -8 7240.09  169.15   5 
   0   2  -8 7296.66  156.38   6 
   0   2  -8 7220.33  165.39   1 
  -2   0  -8 7567.93  156.77   1 
  -2  -2  -8 5839.69  117.71   4 
  -2   2  -8 5835.16  122.29   3 
   2   2   8 5943.97  140.12   5 
   2  -2  -8 5689.50  134.18   6 
   2   2  -8 5626.80  138.36   5 
   2  -2  -8 5802.00  120.67   3 
  -2  -2  -8 5499.10  138.00   6 
  -2   2  -8 5919.41  136.72   1 
  -2  -2   8 5832.56  123.76   4 
   2   2  -8 5861.84  121.66   3 
  -2  -2   8 5581.22  134.69   1 
  -2   2   8 5676.75  141.11   5 
  -2   2  -8 5800.82  132.98   5 
  -2   2   8 5739.13  131.33   1 
   2  -2   8 5594.80  129.85   6 
  -2   2  -8 5466.08  124.20   4 
   2   2  -8 5924.47  125.20   6 
  -2  -2  -8 5711.15  128.16   3 
   2   2   8 5777.82  145.96   2 
  -1   3  -8    3.25    1.92   3 
   3   1   8    1.68    2.90   5 
   3   1   8    1.61    2.66   2 
   1  -3   8    3.45    2.01   4 
   3   1  -8    0.37    1.45   3 
  -1   3  -8   -0.43    1.61   5 
  -3  -1   8    0.12    1.64   4 
  -1   3  -8    1.13    2.21   1 
  -1   3   8    2.48    3.01   5 
  -3  -1   8    2.95    2.14   1 
   3   1  -8   -0.10    1.25   5 
  -3  -1  -8   -1.05    1.39   4 
   1  -3  -8    1.90    1.78   6 
   3   1  -8    1.83    1.89   6 
  -3  -1  -8    3.03    2.55   6 
   1  -3  -8    2.10    2.25   3 
   1   3  -8    7.29    3.95   1 
   1   3  -8    6.80    3.11   5 
  -3   1  -8    4.84    2.91   4 
   3  -1  -8    4.80    3.19   6 
   1   3   8    3.29    2.72   2 
  -1  -3  -8    6.18    3.29   3 
  -3   1   8    3.97    2.53   1 
   3  -1   8    5.55    2.44   5 
  -3   1  -8    5.05    2.73   3 
  -3   1  -8    4.63    2.47   1 
  -1  -3   8    1.13    1.99   4 
   3  -1  -8    0.94    2.11   3 
  -1  -3  -8    6.66    3.27   6 
   1   3   8    6.94    3.35   5 
  -3   1   8    2.34    2.65   5 
   3  -1   8    2.06    2.48   6 
   1   3  -8    5.15    1.83   3 
   3  -3  -8   20.06    4.49   3 
  -3  -3   8   12.88    4.98   1 
  -3   3  -8   24.89    6.05   4 
  -3  -3   8   14.83    4.40   4 
  -3   3   8   33.91    7.48   1 
   3   3  -8   17.85    5.45   5 
   3   3  -8   16.29    4.27   3 
   3   3   8   25.36    6.64   3 
   3   3   8   12.77    5.86   2 
   3  -3   8   19.08    4.37   6 
   3   3   8   17.17    5.53   5 
  -3   3   8   20.94    6.15   5 
  -3  -3  -8   20.97    6.29   6 
  -3   3  -8   24.29    7.11   1 
  -3   3  -8   13.18    3.84   5 
  -2   4  -8 3881.16  108.49   1 
  -2   4   8 3952.12  100.32   1 
  -2   4  -8 3978.20  100.41   5 
   4   2   8 4089.95  113.53   2 
  -2   4   8 3831.26  109.43   5 
   4   2  -8 3979.12  103.60   5 
   4   2   8 3972.28   99.27   3 
  -4  -2  -8 4083.40   92.39   4 
  -4  -2   8 3941.60  103.50   1 
   4   2  -8 3956.90   92.79   3 
  -4  -2   8 3880.67   93.93   4 
   4   0   8 5048.91  125.39   2 
   0   4  -8 4643.77  122.66   1 
  -4   0   8 4776.48  118.07   5 
   0  -4  -8 4728.37  109.57   3 
   0   4   8 4564.77  127.36   2 
   0  -4  -8 4643.48  117.58   6 
   4   0  -8 4879.12  114.53   6 
  -4   0  -8 4879.66  108.77   4 
   4   0  -8 4657.09  105.85   3 
  -4   0   8 4801.55  118.94   1 
   0   4  -8 4815.25  120.52   5 
   4   0   8 4820.34  110.77   3 
  -4   0   8 4816.38  104.50   4 
   2   4  -8 3984.61   89.00   3 
  -4   2   8 3899.43  102.56   5 
   4  -2  -8 3916.95  100.82   6 
  -4   2  -8 4040.66  104.47   1 
   4  -2   8 3759.30  100.63   6 
   4  -2  -8 3891.32   88.49   3 
  -4   2  -8 4023.71   96.14   4 
   2   4   8 3872.19  111.43   2 
  -2  -4   8 3927.96  105.49   1 
  -4   2   8 4035.26  103.12   1 
   2   4   8 3954.24   96.78   3 
   4   4  -8 3405.72   85.41   3 
  -4  -4   8 3469.56   97.16   1 
  -4   4  -8 3450.38   90.82   4 
  -4   4   8 3392.55   96.51   1 
  -4   4   8 3526.34   98.08   5 
   4   4   8 3503.14   92.47   3 
  -4   4  -8 3487.69  102.62   1 
   4   4   8 3554.48  106.23   2 
  -5  -3   8   42.99    9.46   1 
  -3   5  -8   38.07   11.02   1 
   5   3   8   33.87    8.49   6 
   5   3   8   43.13    8.74   3 
   5   3   8   37.18    9.36   2 
  -3   5   8   26.96    8.12   5 
   5   3  -8   27.81    6.92   3 
  -5  -1   8    2.52    3.52   1 
   5   1  -8   -0.04    2.40   3 
  -1   5   8    4.80    4.68   5 
   5   1   8   10.43    4.57   3 
   5   1   8    4.92    4.19   2 
   5   1  -8    6.94    3.88   6 
  -1   5   8   -3.35    2.92   2 
  -1   5  -8    0.95    2.81   5 
  -5  -1  -8    5.75    3.24   4 
   5   1   8    5.73    3.47   6 
  -1   5  -8    9.03    4.81   1 
   5  -1   8    4.68    3.17   3 
   1   5   8   -0.69    2.38   3 
   1   5  -8    2.02    3.95   1 
   5  -1  -8    0.79    2.52   3 
   5  -1  -8    1.39    2.49   6 
  -5   1   8   -2.86    2.10   1 
  -5   1  -8    0.45    3.05   4 
   1   5  -8   -1.29    2.32   5 
   1   5   8    2.94    3.38   2 
   3   5   8    5.22    5.29   2 
  -5   3   8    6.20    4.40   1 
   3   5   8    7.69    4.27   3 
  -5   3  -8   17.94    6.10   4 
  -5   3  -8   -1.41    3.95   1 
  -3  -5   8   10.77    5.35   1 
   3   5  -8    7.15    3.04   3 
  -5  -5   8   23.12    7.68   1 
   5   5  -8   13.78    5.28   3 
   5   5   8   22.64    6.73   3 
  -5   5  -8   11.16    6.88   1 
   6   4  -8 1590.97   55.83   3 
   6   4   8 1806.52   63.89   6 
  -4   6  -8 1611.10   67.55   1 
  -6  -4   8 1729.82   62.92   1 
   6   2  -8 2598.67   73.06   3 
   6   2   8 2600.37   76.57   3 
   6   2   8 2584.86   83.01   6 
  -2   6  -8 2624.67   76.36   5 
  -6  -2  -8 2611.69   72.29   4 
  -6  -2   8 2638.27   80.81   1 
   6   2   8 2600.94   85.13   2 
  -2   6   8 2593.16   86.38   5 
   6   0  -8 2914.58   75.54   3 
   0   6   8 3043.50   89.44   2 
  -6   0   8 2793.89   86.08   1 
   6   0   8 2795.88   77.43   3 
  -6   0  -8 2822.93   78.10   4 
   6   0  -8 2922.94   81.85   6 
   0   6  -8 2703.36   87.35   1 
   0   6  -8 2854.53   85.40   5 
  -6   2   8 2396.60   79.64   1 
   2   6   8 2401.19   81.68   2 
   2   6   8 2405.03   69.50   3 
   6  -2  -8 2461.58   76.61   6 
  -6   2  -8 2612.34   77.12   1 
  -6   2  -8 2464.72   72.61   4 
   4   6   8 1720.17   67.43   2 
   4   6  -8 1679.21   52.68   3 
  -6   4  -8 1826.65   66.35   1 
  -4  -6   8 1609.32   60.92   1 
   4   6   8 1709.17   57.19   3 
  -7  -3   8    4.53    4.20   1 
   1  -7   8   -1.56    2.76   4 
  -7  -1   8   -1.31    2.80   1 
   7   1   8    1.67    4.06   6 
  -1   7  -8   -6.08    3.25   5 
  -7  -1  -8    2.57    3.73   4 
  -1   7   8    6.84    5.64   5 
  -7   1  -8   17.09    7.26   4 
  -7   1   8   10.27    5.57   1 
   1   7  -8    0.32    4.19   5 
   1   7   8   15.26    7.27   2 
   7  -1  -8   12.82    6.76   6 
  -7   3  -8    1.10    4.75   1 
  -3  -7   8    5.14    4.77   1 
   3   7   8    5.10    5.97   2 
   0  -1   9  215.42   11.47   4 
  -1   0  -9  206.63   13.63   6 
   1   0   9  208.91   13.55   5 
   0  -1  -9  218.11   14.37   6 
   0   1  -9  224.03   13.83   5 
   0   1   9  225.09   15.05   5 
   0   1   9  226.27   10.58   1 
  -1   0  -9  203.78   12.78   3 
  -1   0   9  203.28   12.17   1 
  -1   0   9  220.07    8.74   4 
   0  -1  -9  201.69   12.06   3 
  -1   0  -9  197.49    9.96   4 
   0   1  -9  204.84   13.04   1 
   0   1  -9  221.87   12.08   3 
   1   0  -9  193.65   12.56   6 
  -1   0  -9  224.74   11.43   1 
   1   0  -9  202.09   11.60   3 
   0   1  -9  232.09   12.63   6 
  -1   2  -9  588.90   24.20   5 
  -2  -1   9  623.14   21.10   4 
   1  -2  -9  588.53   22.99   3 
  -1   2  -9  608.17   26.35   1 
  -2  -1   9  586.11   25.24   1 
   2   1   9  608.52   25.93   5 
  -2  -1  -9  640.41   20.50   4 
   1  -2   9  581.19   23.25   4 
  -1   2   9  623.00   28.84   5 
  -2  -1  -9  622.28   28.17   6 
  -1   2  -9  638.00   22.95   6 
   2   1  -9  600.56   22.63   6 
   2   1  -9  594.78   22.51   3 
  -2  -1  -9  606.68   26.63   3 
   2   1  -9  637.29   26.47   5 
  -1   2   9  644.56   22.44   1 
  -1   2  -9  597.96   22.12   3 
   1  -2  -9  608.27   26.22   6 
   1   2  -9  164.59    9.69   6 
  -2   1  -9  160.84   11.31   1 
  -2   1  -9  166.70   11.03   5 
   1   2   9  158.80   12.84   5 
  -2   1   9  144.37   12.40   5 
   2  -1  -9  157.32   11.80   6 
  -1  -2   9  169.24   11.27   4 
  -2   1  -9  167.49   11.55   3 
  -2   1   9  157.93   10.99   1 
  -1  -2  -9  165.69   13.09   6 
   1   2  -9  151.70   10.32   3 
   2  -1  -9  153.01   10.26   3 
  -2   1  -9  162.39   12.02   6 
  -2   1  -9  148.38   10.37   4 
  -1  -2   9  168.07   12.71   1 
  -1  -2  -9  176.91   12.86   3 
   1   2  -9  165.47   12.46   5 
   3   2  -9  225.96   15.41   5 
  -3  -2  -9  208.32   16.46   6 
   3   2  -9  210.61   13.14   3 
  -2   3  -9  201.23   16.34   1 
  -2   3   9  226.86   14.68   1 
   3   2   9  176.10   14.46   3 
   2  -3  -9  210.90   12.62   3 
  -3  -2   9  203.54   15.40   1 
  -2   3  -9  213.46   14.80   4 
   3   2   9  220.34   18.51   2 
  -3  -2   9  214.95   13.23   4 
   2  -3  -9  174.66   14.00   6 
  -2   3   9  221.88   17.39   5 
   3   2   9  192.66   14.61   5 
  -2   3  -9  215.08   13.48   5 
   0   3  -9  283.25   16.97   5 
   3   0   9  313.08   15.65   5 
  -3   0   9  251.09   12.43   4 
   0  -3  -9  270.89   15.92   3 
   0   3  -9  273.38   18.64   1 
   3   0  -9  263.04   15.49   6 
   3   0   9  273.18   18.05   2 
  -3   0  -9  265.65   14.69   4 
   0  -3  -9  275.21   17.65   6 
   0   3  -9  309.65   13.98   3 
  -3   0  -9  298.94   17.56   3 
   0   3   9  266.36   18.94   5 
  -3   0  -9  298.41   18.48   6 
   0  -3   9  283.89   16.35   4 
  -3   0   9  281.41   16.86   5 
   3   0  -9  309.77   15.48   3 
  -3   0   9  292.49   17.40   1 
   3  -2   9   57.92    7.17   6 
  -3   2  -9   63.87    6.43   5 
  -2  -3   9   46.99    7.62   1 
   2   3  -9   48.38    7.46   5 
  -2  -3  -9   46.92    7.53   3 
  -2  -3  -9   47.03    7.69   6 
   2   3  -9   49.35    5.90   3 
  -3   2  -9   49.61    7.12   4 
  -3   2  -9   43.59    6.28   3 
   2   3   9   52.66    8.82   2 
  -3   2   9   57.67    8.24   5 
   2   3   9   59.76    8.42   5 
  -2  -3   9   52.60    6.95   4 
   3  -2  -9   55.08    6.15   3 
  -3   2  -9   62.22    8.52   1 
   3  -2  -9   47.43    7.32   6 
  -3   2   9   54.73    7.30   1 
   4   3   9  180.61   16.98   2 
  -3   4  -9  166.82   17.49   1 
  -3   4   9  199.52   17.20   5 
   4   3   9  178.12   15.35   3 
  -4  -3   9  194.39   16.82   1 
  -3   4   9  184.07   15.03   1 
  -3   4  -9  202.10   15.49   4 
   4   3  -9  193.69   13.60   3 
   1  -4  -9   83.63    8.83   3 
  -1   4   9   73.04   10.79   5 
   4   1   9   86.53   10.93   2 
  -1   4   9   73.35    9.89   2 
   4   1   9   57.93    8.46   3 
  -1   4  -9   60.75    9.55   1 
  -4  -1   9   75.76    7.49   4 
   4   1  -9   70.36    8.06   3 
  -4  -1   9   84.80   10.19   1 
   4   1  -9   81.79    9.23   5 
  -1   4  -9   73.00    8.52   5 
   4   1  -9   79.20    8.53   6 
  -4  -1  -9   63.10    7.60   4 
  -4   1  -9  110.54   10.46   1 
   1   4  -9  143.26   14.23   1 
   4  -1  -9  161.56   11.54   3 
  -4   1   9  167.07   13.26   5 
  -4   1   9  146.57   13.32   1 
   1   4  -9  151.75   10.20   3 
   1   4  -9  170.02   14.20   5 
   1   4   9  137.87   14.45   2 
   4  -1   9  167.03   12.74   3 
   4  -1  -9  160.08   13.01   6 
  -4   1  -9  152.90   12.19   4 
  -1  -4  -9  151.22   12.98   3 
  -4   3  -9  169.55   16.42   1 
   3   4   9  155.13   16.24   2 
  -4   3   9  188.92   15.64   1 
  -4   3   9  167.49   14.89   5 
   3   4   9  166.85   14.54   3 
  -3  -4   9  177.57   16.19   1 
   3   4  -9  150.48   11.47   3 
  -4   3  -9  154.43   14.11   4 
  -4   5  -9   64.28   10.42   4 
   5   4   9   69.45    9.87   3 
  -5  -4   9   58.57   10.10   1 
  -4   5  -9   77.60   13.05   1 
   5   4  -9   77.39    9.46   3 
  -4   5   9   53.09    8.60   1 
  -4   5   9   63.95   10.78   5 
   5   4   9   71.41   11.34   6 
  -2   5  -9   50.50    7.69   5 
   5   2   9   46.96    9.50   3 
  -2   5  -9   26.86    9.16   1 
   5   2  -9   40.27    6.43   3 
   5   2   9   39.06    9.76   2 
   5   2   9   60.10    9.62   6 
  -5  -2   9   53.73    9.20   1 
  -2   5   9   46.43   10.99   5 
  -5  -2  -9   45.06    6.51   4 
   5   0  -9  153.10   13.61   6 
   5   0  -9  159.69   12.43   3 
  -5   0   9  150.03   14.40   1 
   0   5  -9  160.01   15.60   1 
   0   5  -9  156.37   14.02   5 
   5   0   9  161.86   14.03   3 
   0  -5  -9  167.91   13.33   3 
   0   5   9  201.08   17.21   2 
  -5   0  -9  184.20   14.59   4 
   2   5  -9  108.38    9.05   3 
  -5   2  -9  159.82   14.32   1 
   5  -2  -9  117.54   10.25   3 
  -2  -5   9  117.11   13.82   1 
   2   5   9  137.88   12.63   3 
   5  -2  -9  124.81   12.80   6 
  -5   2  -9  116.59   12.22   4 
  -5   2   9  107.16   12.52   1 
   2   5   9  131.04   14.62   2 
  -5   4   9   73.10   10.85   1 
  -5   4  -9   71.93   10.96   4 
   4   5   9   64.14    9.87   3 
   4   5  -9   62.10    8.48   3 
  -4  -5   9   61.89   10.39   1 
  -5   4  -9   76.35   12.34   1 
   6   3   9   90.57   13.07   6 
  -3   6  -9   67.49   14.68   1 
   6   3  -9   76.02    9.85   3 
  -6  -3   9   80.79   11.71   1 
  -3   6   9   85.32   13.30   5 
  -1   6  -9   82.81   10.39   5 
  -1   6  -9  111.02   14.03   1 
  -6  -1  -9   77.13    9.50   4 
   6   1   9   70.04   11.45   6 
   6   1   9   48.83    7.85   3 
  -6  -1   9   81.32   11.58   1 
   6   1  -9   95.28   10.10   3 
  -1   6   9   71.33   12.58   5 
  -6   1   9  133.42   14.73   1 
  -6   1  -9  137.25   13.90   4 
   1   6   9  154.69   16.44   2 
   1   6  -9  139.37   14.79   5 
   6  -1  -9  145.39   11.97   3 
   1   6  -9  109.44   13.94   1 
   6  -1  -9  125.98   13.88   6 
   6  -3  -9   43.10    9.96   6 
  -3  -6   9   12.91    6.34   1 
   3   6   9   14.45    5.70   3 
   3   6   9    9.69    6.44   2 
  -6   3  -9    7.87    5.74   1 
  -6   3  -9    4.89    4.84   4 
  -7  -2   9  110.76   14.23   1 
   0   7  -9   22.27    6.62   5 
  -7   0   9   16.73    7.08   1 
   7   0  -9   36.00    9.51   6 
  -7   0  -9   24.37    6.62   4 
  -2  -7   9   44.10   11.09   1 
   2   7   9   64.87   11.75   2 
   0   0 -10    2.92    2.10   3 
   0   0  10    3.03    2.15   5 
   0   0 -10    0.36    1.95   6 
   0   0  10    4.59    1.97   1 
   1  -1 -10 5612.13  135.01   6 
   1   1 -10 5627.01  140.18   5 
  -1  -1 -10 5811.13  128.60   3 
  -1   1 -10 5833.28  124.46   3 
   1   1  10 5853.72  141.62   5 
  -1   1 -10 5776.98  138.41   5 
  -1  -1 -10 5702.25  137.39   6 
   1  -1 -10 5742.38  124.38   3 
  -1   1 -10 5833.73  133.49   1 
   1  -1  10 5888.29  122.93   4 
  -1   1  10 5827.48  144.25   5 
   1   1 -10 5852.23  131.81   6 
   1   1 -10 5852.07  124.59   3 
  -1  -1  10 5951.08  120.69   4 
  -1   1 -10 5786.90  133.75   6 
  -1  -1  10 5552.40  133.12   1 
  -1   1  10 5710.49  129.69   1 
  -2   0 -10   73.43    8.71   6 
   0   2  10   30.13    7.38   5 
  -2   0  10   26.85    6.05   1 
   0  -2 -10   32.44    7.25   6 
   2   0 -10   21.99    5.04   3 
   0   2 -10   27.19    4.31   6 
   0   2 -10   34.30    6.13   5 
  -2   0  10   23.92    5.95   5 
   0  -2  10   28.55    5.77   4 
   0  -2 -10   36.95    5.74   3 
   0   2 -10   26.17    5.18   3 
   2   0 -10   24.10    5.39   6 
   2   0  10   23.63    5.52   5 
  -2   0 -10   37.36    5.98   3 
   0   2 -10   21.45    5.91   1 
  -2   0 -10   26.58    4.30   4 
   2   2 -10    3.31    2.06   3 
  -2  -2 -10    2.88    2.73   6 
  -2   2 -10   -3.52    2.01   1 
   2   2  10    2.92    3.10   2 
  -2  -2 -10    1.74    3.18   3 
   2  -2 -10    7.70    3.10   3 
  -2  -2  10   -0.11    2.18   1 
   2   2  10    9.01    4.20   5 
   2  -2 -10    2.21    2.07   6 
  -2   2 -10   -1.72    2.08   3 
  -2   2 -10    1.71    2.33   6 
  -2   2  10    1.78    3.15   5 
  -2  -2  10    5.53    2.75   4 
  -2   2 -10    1.49    2.38   5 
  -2   2  10    3.08    2.65   1 
   2   2 -10    2.20    2.46   5 
  -2   2 -10    5.96    3.12   4 
   3   1 -10 4591.33  121.49   5 
  -3  -1  10 4779.30  104.45   4 
   3   1  10 4844.25  127.17   2 
  -3  -1  10 4635.50  117.26   1 
   1  -3 -10 4727.94  107.51   3 
  -1   3  10 4520.47  126.97   5 
   3   1  10 4811.47  117.27   5 
   1  -3  10 4813.59  110.86   4 
   3   1 -10 4776.26  107.34   3 
  -3  -1 -10 4598.73  112.73   3 
  -3  -1 -10 4806.36  120.96   6 
  -1   3 -10 4874.15  104.49   3 
  -1   3 -10 4752.44  117.92   5 
  -1   3 -10 4889.03  121.39   1 
   3   1 -10 4725.89  112.33   6 
  -3   1 -10 4239.45  105.46   6 
  -1  -3  10 4190.56   98.99   4 
  -3   1 -10 4190.05   99.91   3 
   3  -1 -10 4137.95  104.48   6 
   1   3 -10 4149.93   93.53   3 
  -1  -3 -10 4222.58  101.48   3 
  -3   1  10 4151.81  109.22   5 
  -3   1 -10 4278.34   97.81   4 
   1   3 -10 4156.12  109.92   1 
  -3   1  10 4149.35  104.27   1 
   3  -1 -10 4092.65   94.59   3 
   1   3  10 4089.14  115.81   2 
  -3   1 -10 4313.45  103.21   1 
   1   3 -10 4055.44  108.70   5 
  -3   3  10 3792.58  105.42   5 
   3   3  10 3631.28   96.29   3 
  -3   3  10 3748.76   97.84   1 
  -3   3 -10 3798.45  102.18   1 
   3   3  10 3493.51  107.65   2 
  -3  -3  10 3668.21  101.54   1 
   3   3 -10 3753.21   89.14   3 
   3   3  10 3893.59  102.58   5 
  -3   3 -10 3887.84   94.94   4 
   3  -3 -10 3721.57   87.35   3 
   4   2  10   15.81    6.32   2 
  -4  -2  10    4.99    3.15   1 
  -2   4  10   -1.22    3.46   5 
   4   2  10    6.38    3.42   3 
  -2   4 -10   13.22    6.62   1 
   2  -4 -10   11.60    4.52   3 
   4   2 -10    4.40    2.96   3 
  -2   4 -10   16.29    5.66   5 
   4   0 -10   68.60    7.88   3 
   4   0  10   82.09    9.75   3 
   4   0  10   59.02    9.58   2 
  -4   0 -10   71.81    8.48   4 
   0   4  10   52.24    8.70   2 
  -4   0  10   63.57    8.96   1 
   0   4 -10   62.75    9.80   1 
   4   0 -10   73.04    8.97   6 
  -4   0  10   75.09    9.21   5 
   0  -4 -10   79.90    9.38   3 
   0   4 -10   66.28    8.92   5 
  -2  -4  10   24.21    7.41   1 
   2   4 -10   32.53    6.24   3 
  -4   2  10   41.39    8.91   5 
  -4   2  10   39.01    8.35   1 
   4  -2 -10   30.11    7.47   6 
   4  -2 -10   30.70    6.38   3 
  -4   2 -10   37.89    8.67   1 
  -4   2 -10   34.55    7.66   4 
   2   4  10   19.05    6.43   2 
   2   4  10   29.20    7.47   3 
   4   4  10    0.80    2.50   2 
   4   4  10   -2.97    2.86   3 
  -4  -4  10    7.16    4.37   1 
  -4   4 -10   -0.60    3.62   4 
   4   4 -10    3.70    2.79   3 
  -4   4  10    3.02    3.43   1 
  -4   4 -10   11.47    5.97   1 
  -4   4  10   -0.32    4.94   5 
  -5  -3  10 2350.80   76.48   1 
  -3   5  10 2432.68   79.90   5 
   5   3 -10 2358.86   67.52   3 
   5   3  10 2352.44   81.75   2 
   5   3  10 2380.79   77.13   6 
  -3   5 -10 2423.79   82.44   1 
  -1   5  10 2719.84   88.78   5 
  -5  -1 -10 2856.81   72.58   4 
  -1   5 -10 2756.12   79.94   5 
  -1   5  10 2670.51   86.48   2 
   5   1 -10 2613.61   72.63   3 
   5   1 -10 2708.12   75.59   6 
  -1   5 -10 2695.55   86.10   1 
  -5  -1  10 2638.19   81.49   1 
   5   1  10 2756.02   76.80   3 
  -5  -1  10 2752.30   79.12   5 
   5   1  10 2831.49   85.45   2 
  -5   1  10 3186.39   91.67   1 
   1   5  10 3150.27   82.54   3 
   1   5  10 3156.91   97.38   2 
   5  -1 -10 3209.07   88.08   6 
  -5   1 -10 3274.63   84.29   4 
   1   5 -10 3062.63   91.95   5 
   5  -1 -10 3069.20   78.34   3 
   1   5 -10 3073.01   93.54   1 
  -5   3 -10 2387.74   71.31   4 
   5  -3 -10 2241.55   72.80   6 
   3   5  10 2312.29   69.00   3 
  -5   3 -10 2399.94   74.43   1 
  -3  -5  10 2261.62   75.46   1 
   3   5  10 2101.95   77.21   2 
   3   5 -10 2288.51   61.72   3 
  -5   3  10 2135.65   72.06   1 
  -5   5 -10 1627.20   65.52   1 
  -5  -5  10 1598.35   62.44   1 
   5   5 -10 1554.25   52.23   3 
   5   5  10 1542.17   56.34   3 
   6   4 -10   -1.75    3.59   3 
  -4   6 -10    6.59    7.11   1 
  -6  -4  10   -0.34    3.70   1 
  -2   6 -10    6.40    4.66   5 
  -6  -2  10    4.38    3.94   1 
  -2   6 -10    3.83    4.61   1 
   6   2  10    5.27    3.96   2 
  -2   6  10   10.76    6.49   5 
   6   2  10   -1.91    4.71   6 
   6   0 -10   23.63    6.05   3 
  -6   0 -10   27.81    7.87   4 
   6   0  10   16.19    5.11   3 
   6   0 -10   19.56    6.63   6 
   0   6  10   13.74    6.45   2 
   0   6 -10   13.86    5.53   5 
  -6   2 -10   15.54    6.76   4 
   6  -2 -10    6.03    5.27   6 
   2   6  10    3.96    4.81   2 
  -2  -6  10    9.12    5.54   1 
   2   6  10   11.82    4.88   3 
   4   6  10    2.77    3.77   3 
  -4  -6  10    1.28    4.29   1 
   4   6  10    5.20    5.02   2 
   4   6 -10    1.81    3.59   3 
  -6   4 -10    5.79    5.30   1 
  -7  -1  10 1506.49   59.70   1 
   1   7  10 1651.43   64.01   2 
   0   1 -11  187.03   14.24   5 
   0  -1  11  200.78   11.47   4 
   0  -1 -11  201.08   13.22   3 
   1   0  11  193.78   14.01   5 
  -1   0 -11  197.55   13.73   3 
  -1   0  11  200.07   12.76   1 
  -1   0  11  212.80   15.44   5 
   0  -1 -11  195.34   14.55   6 
   1   0 -11  204.77   12.89   3 
   1   0 -11  204.00   14.04   6 
   0  -1  11  213.07   13.66   1 
   0   1 -11  197.55   13.03   6 
  -1   0 -11  193.41   14.26   6 
   0   1  11  180.50   14.43   5 
   0   1 -11  202.65   12.64   3 
  -2  -1 -11   77.90    9.47   3 
   1  -2  11   84.08    8.51   4 
  -1   2  11   70.77   10.04   5 
   2   1 -11   77.81    9.56   5 
  -2  -1  11   97.18    9.84   1 
  -2  -1 -11   84.67   10.45   6 
  -1   2 -11   95.77   10.15   1 
  -1   2 -11   94.97    8.78   3 
   2   1 -11  105.91    9.40   6 
   2   1 -11   74.20    7.85   3 
  -1   2 -11   75.86    8.71   5 
   1  -2 -11   86.08    8.35   3 
   2   1  11   84.38    9.59   5 
   1  -2 -11   81.36    9.58   6 
  -1   2 -11   80.60    7.96   6 
  -1  -2  11  352.67   17.78   4 
  -2   1  11  385.22   22.70   5 
   1   2 -11  341.97   17.60   3 
   2  -1  11  382.29   19.15   5 
   2  -1 -11  366.89   19.70   6 
  -2   1 -11  388.12   19.00   1 
  -1  -2 -11  343.99   20.03   3 
   1   2 -11  359.40   20.85   5 
  -2   1 -11  407.37   18.78   4 
  -2   1  11  382.04   18.93   1 
  -1  -2  11  380.50   21.10   1 
   1   2  11  389.17   22.63   5 
   2  -1 -11  370.81   18.23   3 
  -2   1 -11  375.78   20.50   6 
  -1  -2 -11  373.46   22.78   6 
  -2   1 -11  348.12   18.93   3 
  -3  -2  11   48.63    6.32   4 
   3   2  11   42.87   10.38   2 
   2  -3 -11   51.99    6.71   3 
   3   2  11   45.85    7.22   5 
   3   2 -11   39.50    6.00   3 
  -3  -2  11   47.83    7.92   1 
  -2   3  11   54.20    9.22   5 
  -2   3 -11   53.06    7.51   5 
  -2   3 -11   53.79    8.67   1 
   3   0 -11  219.93   14.00   3 
   0   3 -11  206.55   15.33   5 
  -3   0 -11  213.89   16.24   6 
  -3   0 -11  196.77   13.28   4 
  -3   0  11  186.48   14.60   1 
   0   3 -11  208.73   12.93   3 
   0  -3  11  201.11   14.28   4 
  -3   0  11  200.48   15.92   5 
   3   0 -11  219.88   14.73   6 
   0  -3 -11  205.68   14.77   3 
  -3   0 -11  211.98   15.55   3 
   0   3 -11  225.35   17.25   1 
  -3   2 -11  244.54   16.03   3 
   3  -2 -11  199.72   13.37   3 
  -3   2 -11  249.51   16.07   4 
  -3   2  11  224.26   15.65   1 
   2   3  11  232.16   20.31   2 
  -2  -3 -11  230.31   17.14   3 
   3  -2  11  253.33   16.14   6 
  -3   2 -11  231.35   16.83   1 
   3  -2 -11  238.79   16.80   6 
  -2  -3  11  266.24   16.47   4 
  -3   2  11  250.45   18.54   5 
   2   3 -11  249.87   14.78   3 
  -2  -3  11  223.85   17.66   1 
  -4  -3  11   80.13   11.40   1 
   4   3  11   79.55   11.99   2 
   4   3  11   53.68    8.38   3 
  -3   4  11   80.17   11.75   5 
   4   3 -11   73.65    8.67   3 
  -3   4 -11   86.65   12.57   1 
  -4  -1 -11  130.81   13.84   6 
  -4  -1  11  138.27   13.61   1 
   1  -4 -11  143.52   12.11   3 
   4   1  11  145.98   15.01   2 
  -1   4  11  141.40   15.55   5 
  -1   4 -11  138.18   14.48   1 
   4   1 -11  136.31   11.77   6 
   4   1 -11  130.59   11.43   3 
   4   1  11  152.21   13.70   3 
  -1   4 -11  162.25   13.45   5 
  -1  -4 -11  101.70   11.40   3 
   1   4 -11  108.09   11.95   5 
  -4   1  11  124.62   12.60   1 
   1   4 -11  114.61    9.53   3 
   1   4 -11   79.72   11.87   1 
  -4   1 -11  111.75   11.50   4 
   4  -1  11   99.66   10.58   3 
   4  -1 -11   97.04    9.68   3 
  -4   1  11  106.07   11.70   5 
   1   4  11   81.81   12.11   2 
   4  -1 -11  103.92   11.20   6 
   3   4  11   92.44   12.50   2 
  -3  -4  11  141.73   15.09   1 
   4  -3 -11  127.42   13.68   6 
  -4   3 -11  120.66   13.52   1 
   3   4  11  107.56   12.17   3 
  -4   3  11   94.65   12.39   5 
  -4   3 -11  110.76   11.90   4 
  -4   3  11  112.98   12.28   1 
   3   4 -11   98.52    9.80   3 
   4  -3 -11  125.90   10.59   3 
  -4   5 -11   55.83   13.65   1 
   5   4  11   50.60   10.15   3 
  -5  -4  11   56.35   12.50   1 
   5   4 -11   55.04    8.26   3 
  -4   5  11   44.31   11.11   5 
   5   2 -11  162.02   13.46   3 
  -2   5 -11  119.61   15.12   1 
   5   2  11  160.43   16.08   2 
   5   2  11  162.36   16.73   6 
  -2   5  11  182.63   18.31   5 
  -5  -2  11  126.12   14.59   1 
   5   2  11  163.62   14.72   3 
  -2   5 -11  184.29   15.46   5 
   0   5  11   73.73   11.47   2 
   0   5 -11   92.41   11.41   5 
  -5   0  11   83.82   11.29   1 
  -5   0 -11   67.44    9.20   4 
   5   0 -11   64.49    9.06   6 
   0  -5 -11   84.46    9.43   3 
   0   5 -11   61.65   10.81   1 
   5   0  11   64.20    8.66   3 
   5   0 -11   72.11    8.29   3 
  -5   0  11   77.90   10.28   5 
  -5   2 -11   29.84    7.61   4 
   5  -2 -11   43.36    6.33   3 
  -5   2  11   33.06    8.13   1 
   2   5  11   43.95   10.10   2 
   5  -2 -11   44.09    9.84   6 
   2   5  11   41.32    8.93   3 
  -2  -5  11   41.79   10.13   1 
  -4  -5  11  115.46   14.48   1 
  -5   4 -11  119.02   15.63   1 
  -5   4 -11   78.97   10.99   4 
   4   5  11   95.64   11.90   3 
   4   5 -11   89.44    9.91   3 
  -3   6 -11   24.58    9.26   1 
   6   3 -11   27.13    7.02   3 
  -6  -3  11   17.64    6.90   1 
  -1   6 -11   99.18   14.13   1 
  -1   6  11  146.59   17.38   5 
  -1   6 -11  124.37   13.67   5 
   6  -1 -11   37.40    9.47   6 
   1   6 -11   32.31    8.34   5 
  -6   1 -11   45.17   10.34   4 
   1   6  11   27.97    6.80   3 
   1   6  11   34.21    9.34   2 
   3   6  11  108.74   12.25   3 
  -3  -6  11   86.85   12.84   1 
   3   6  11   84.82   13.41   2 
   0   0 -12 5885.19  139.29   6 
   0   0  12 5934.38  133.37   1 
   0   0 -12 5758.22  129.09   3 
  -1  -1 -12   -0.89    2.45   6 
  -1   1 -12   14.44    4.59   1 
  -1   1 -12    2.96    2.57   3 
  -1  -1 -12    4.95    2.97   3 
   1  -1 -12    4.89    3.44   6 
   1   1 -12    1.73    2.86   6 
  -1   1  12    1.85    2.22   1 
   1  -1 -12    5.71    2.56   3 
   1   1 -12    0.02    2.03   3 
  -1   1 -12    4.43    3.00   6 
   1   1  12    2.77    2.65   5 
  -1  -1  12   -0.11    2.15   1 
   0   2 -12 3524.00   95.78   5 
   0  -2  12 3642.57   85.63   4 
   0   2 -12 3574.36   94.93   1 
  -2   0 -12 3524.70   95.14   6 
   0  -2 -12 3527.94   88.05   3 
  -2   0  12 3552.09   91.79   1 
  -2   0  12 3550.37   99.41   5 
   2   0 -12 3520.81   85.20   3 
   0   2 -12 3579.73   85.03   3 
   0  -2 -12 3551.19   96.21   6 
  -2   0 -12 3491.41   89.27   3 
   2   0 -12 3648.54   92.61   6 
   2   0  12 3612.51   95.37   5 
   2  -2  12 3764.27   91.96   4 
  -2   2 -12 3782.73   94.86   6 
   2  -2 -12 3732.60   89.76   3 
   2   2  12 3918.02  110.57   2 
  -2  -2 -12 3761.26   97.07   3 
  -2   2  12 3787.05  106.52   5 
  -2   2 -12 3867.88   98.79   5 
  -2  -2  12 3787.42  100.37   1 
  -2   2 -12 3668.86   98.37   1 
  -2   2  12 3701.22   94.00   1 
   2  -2 -12 3716.35   99.54   6 
  -2   2 -12 3690.90   90.99   3 
   2   2 -12 3895.48   90.77   3 
  -1   3  12   -3.22    2.67   5 
   3   1 -12   -0.72    2.66   6 
  -3  -1  12    1.54    2.46   1 
   3   1  12    0.66    2.43   5 
  -1   3 -12    3.17    3.04   1 
  -1   3 -12    0.57    2.30   3 
  -3  -1 -12   -2.24    2.68   6 
  -3  -1 -12   -2.74    2.14   3 
   3   1 -12    1.68    2.32   3 
   1  -3 -12    2.19    3.00   3 
  -1   3 -12    2.19    3.06   5 
   3   1  12    1.71    3.15   2 
   3  -1 -12    2.89    3.04   6 
   1   3 -12    1.56    1.98   3 
  -3   1 -12    3.09    3.51   4 
  -1  -3 -12   -2.46    2.64   3 
   3  -1 -12    1.07    2.31   3 
  -3   1 -12   -0.46    2.28   6 
  -3   1  12   -0.60    2.62   1 
  -1  -3  12    1.14    2.91   4 
  -3   1 -12   -1.78    2.33   3 
  -3   1  12    0.46    2.73   5 
   1   3 -12    0.60    2.90   5 
  -1  -3  12   -1.48    2.38   1 
   1   3  12   -0.65    3.52   2 
   3  -3 -12    2.27    2.47   3 
  -3   3  12    0.72    3.69   5 
   3  -3 -12    5.68    3.49   6 
   3   3  12   -7.69    2.49   3 
  -3   3 -12    3.23    3.41   1 
   3   3  12    0.75    2.47   2 
  -3   3 -12    3.06    3.30   4 
   3   3 -12    1.41    2.22   3 
  -3  -3  12   -1.43    2.29   1 
  -4  -2  12 3039.92   90.12   1 
   2  -4 -12 3052.71   79.50   3 
   4   2  12 2969.87   83.44   3 
   4   2  12 3228.13   96.91   2 
  -2   4  12 2756.72   93.34   5 
  -2   4 -12 3166.13   85.68   5 
  -2   4 -12 3120.07   92.95   1 
   4   2 -12 3027.76   79.10   3 
   0  -4 -12 2977.02   81.19   3 
   4   0  12 3196.18   92.72   2 
  -4   0  12 3044.10   87.56   5 
  -4   0  12 3013.99   86.76   1 
   4   0 -12 3030.58   77.65   3 
   0   4 -12 2999.66   91.00   1 
   4   0 -12 3035.90   82.84   6 
  -4   0 -12 3016.59   88.04   6 
   0   4 -12 3003.59   87.63   5 
   0   4  12 2817.03   91.88   2 
   4   0  12 2913.93   79.72   3 
  -4   2  12 2937.87   88.06   5 
   4  -2 -12 2909.03   75.17   3 
  -4   2 -12 3057.38   81.72   4 
   4  -2 -12 2857.43   84.23   6 
   2   4  12 3026.23   82.92   3 
   2   4  12 2852.98   94.09   2 
  -2  -4  12 2824.93   89.00   1 
  -4   2  12 2964.62   85.06   1 
   2   4 -12 2919.91   74.53   3 
  -4   4 -12 1691.15   63.09   1 
  -4   4 -12 1647.31   57.67   4 
  -4   4  12 1639.68   62.29   5 
   4   4  12 1592.40   57.20   3 
   4   4 -12 1592.22   51.62   3 
  -4  -4  12 1609.60   63.33   1 
  -3   5 -12    3.72    4.38   1 
  -5  -3  12    1.77    4.05   1 
  -3   5  12    5.02    5.23   5 
   5   3 -12    7.60    4.27   3 
   5   1  12   -1.05    3.15   2 
  -1   5 -12    7.68    5.10   1 
  -5  -1  12    0.94    2.80   1 
  -5  -1  12    4.15    4.33   5 
  -1   5  12   -4.83    4.73   5 
   5   1 -12    4.17    2.67   3 
  -1   5  12    5.06    4.33   2 
   5   1  12    4.16    2.46   3 
  -1   5 -12   -0.14    4.23   5 
   1   5  12    0.15    3.32   2 
  -5   1  12    0.23    2.65   1 
   1   5 -12   -2.25    3.41   5 
   1   5  12    2.43    4.01   3 
  -5   1 -12   -4.61    3.68   4 
   5  -1 -12    3.80    3.74   6 
   5  -1 -12    1.77    2.24   3 
   3   5  12    4.97    4.33   2 
   3   5  12    3.26    4.49   3 
  -5   3 -12    2.09    4.47   4 
   3   5 -12    0.19    3.07   3 
  -3  -5  12    5.25    4.94   1 
   5  -3 -12    3.94    4.04   6 
  -6  -2  12 1422.44   58.43   1 
  -2   6 -12 1458.18   62.40   1 
   0   6  12 1697.00   63.20   2 
   6   0 -12 1563.98   55.26   6 
   0   6 -12 1367.92   55.81   5 
   2   6  12 1689.24   56.33   3 
   2   6  12 1617.64   64.75   2 
  -2  -6  12 1679.94   66.22   1 
  -1   0 -13  126.55   12.47   6 
   0  -1  13  146.25   12.11   1 
  -1   0  13  141.36   11.59   1 
  -1   0 -13  141.79   12.21   3 
   0  -1 -13  117.09   11.26   3 
   0   1 -13  154.44   12.62   6 
   0   1 -13  128.11   11.27   3 
   1   0 -13   90.52    9.35   3 
   1   0 -13  133.19   12.27   6 
   0  -1 -13  133.85   13.54   6 
  -2  -1 -13   79.70   10.43   3 
   2   1 -13  107.79   10.55   6 
   1  -2 -13   93.64    9.83   3 
  -1   2 -13   93.35   10.68   5 
  -2  -1 -13   99.39   11.88   6 
  -1   2 -13   85.02    9.51   3 
   1  -2 -13  107.24   11.94   6 
   2   1 -13   81.60    8.76   3 
  -1   2 -13  102.77   10.86   1 
  -2  -1  13   89.23   10.61   1 
  -1  -2 -13  278.91   18.75   3 
  -2   1 -13  294.71   18.42   3 
  -2   1  13  291.64   17.26   1 
   1   2 -13  293.85   17.16   3 
   2  -1 -13  289.75   18.77   6 
   2  -1 -13  265.71   17.00   3 
  -1  -2  13  325.31   20.27   1 
  -2   1  13  311.69   21.29   5 
   1   2 -13  308.41   20.56   5 
  -2   1 -13  279.40   18.58   6 
  -1  -2 -13  298.14   20.86   6 
   3   2  13   43.53   10.49   2 
   3   2 -13   41.44    6.85   3 
  -3  -2 -13   39.64    8.95   3 
  -2   3 -13   43.36    7.66   5 
  -2   3  13   31.67    8.75   5 
   2  -3 -13   33.85    7.88   6 
   2  -3 -13   37.97    7.51   3 
  -2   3 -13   37.16    8.87   1 
  -3  -2  13   25.90    7.39   1 
   0  -3 -13  202.63   15.28   3 
  -3   0 -13  190.39   15.89   6 
   0   3 -13  198.61   17.43   1 
  -3   0  13  192.61   16.68   5 
   3   0 -13  182.88   13.68   3 
   0   3 -13  173.59   15.12   5 
  -3   0 -13  176.00   15.25   3 
   0   3 -13  175.57   12.89   3 
  -3   0  13  186.80   15.18   1 
   3   0 -13  180.47   14.54   6 
  -2  -3 -13  161.66   14.67   3 
  -3   2  13  125.57   14.26   5 
   2   3  13  117.60   14.73   2 
  -2  -3  13  139.51   14.41   1 
   3  -2 -13  121.01   12.34   6 
  -3   2 -13  162.21   13.54   4 
   2   3 -13  148.81   12.00   3 
   3  -2 -13  132.12   11.57   3 
  -3   2  13  168.31   13.79   1 
   4   3 -13   65.62    8.82   3 
  -3   4  13   77.59   12.17   5 
  -3   4 -13   82.37   12.07   1 
  -4  -1  13  113.80   13.42   5 
   1  -4 -13   92.09   10.31   3 
   4   1  13  102.94   11.41   3 
   4   1 -13  104.49   10.95   3 
  -4  -1 -13  107.57   13.17   6 
   4   1  13  116.77   13.87   2 
  -1   4 -13  100.42   11.77   5 
  -4  -1  13  103.45   12.09   1 
  -1   4  13   98.40   14.19   5 
  -1   4 -13  125.24   15.15   1 
   1   4 -13   62.44   10.38   5 
   4  -1  13   69.03    8.80   3 
  -4   1  13   70.81   10.41   5 
   1   4  13   58.28   11.08   2 
  -1  -4 -13   57.16    8.34   3 
   4  -1 -13   69.65    8.25   3 
   4  -1 -13   71.66    9.86   6 
   1   4 -13   71.74    8.51   3 
  -4   1  13   63.38    9.66   1 
  -1  -4  13   46.52   10.46   1 
  -4   3 -13  110.37   12.64   1 
   4  -3 -13   88.81   11.69   6 
   3   4  13   82.28   11.51   3 
   4  -3 -13  109.04   10.85   3 
   3   4 -13   91.50   10.39   3 
  -4   3 -13  107.31   12.72   4 
  -4   3  13  111.40   14.02   5 
  -4   3  13  106.27   12.12   1 
  -4   5 -13   58.49   13.11   1 
  -5  -4  13   70.76   11.99   1 
   5   4 -13   56.11    9.05   3 
  -2   5  13  131.93   16.39   5 
  -2   5 -13   94.69   13.88   1 
  -5   0  13   56.11   10.31   5 
   0   5 -13   67.46   11.77   1 
   0   5  13   67.22   12.04   2 
   5   0  13   60.09    9.03   3 
   0  -5 -13   63.33    8.73   3 
   0   5 -13   68.64   11.05   5 
   5   0 -13   60.81    9.60   6 
   2   5  13   29.42    9.17   2 
   2   5  13   26.52    7.43   3 
  -5   2 -13   41.24    9.51   4 
   5  -2 -13   29.22    7.95   6 
  -4  -5  13   75.31   12.54   1 
   4   5 -13   67.09    9.31   3 
   4   5  13  100.02   12.60   3 
  -5   4 -13   91.72   13.09   1 
  -1   6 -13  102.98   15.18   1 
   1   6  13   34.32    9.90   2 
   1   6  13   43.91    8.78   3 
   0   0 -14    2.13    3.27   6 
   0   0 -14    1.62    2.69   3 
   1  -1 -14 3155.35   83.38   3 
   1  -1 -14 3369.31   92.06   6 
   1   1 -14 3290.26   86.84   6 
  -1  -1  14 3359.47   88.35   1 
   1   1 -14 3279.99   83.87   3 
  -1  -1 -14 3368.19   93.25   6 
  -1   1 -14 3368.69   89.37   6 
  -1  -1 -14 3214.83   86.27   3 
  -1   1 -14 3149.57   84.21   3 
  -2   0  14    7.44    4.72   5 
   2   0 -14    4.53    4.14   6 
   0   2 -14    1.84    3.77   5 
  -2   0 -14    1.70    4.06   6 
   0   2 -14    3.26    3.17   3 
  -2   0  14   11.24    4.80   1 
   2   0 -14    1.14    2.18   3 
   0  -2 -14    5.22    3.02   3 
   0  -2  14    2.89    3.55   1 
   0  -2 -14    9.29    5.13   6 
  -2   0 -14    3.30    3.03   3 
   2  -2 -14   -2.40    1.57   3 
  -2   2 -14   -2.74    2.94   1 
   2   2 -14    2.64    2.91   3 
   2  -2 -14   -5.16    2.54   6 
  -2  -2 -14    0.34    3.18   6 
  -2   2 -14    2.84    4.12   3 
  -2   2  14    2.19    3.46   5 
  -2  -2  14    1.60    1.93   1 
  -2  -2 -14   -0.92    3.30   3 
  -1   3 -14 2945.27   77.22   3 
   3   1  14 2997.41   93.98   2 
   1  -3 -14 2925.98   86.80   6 
  -3  -1 -14 2880.73   82.61   3 
  -3  -1  14 2869.58   84.40   1 
  -3  -1 -14 2992.31   88.37   6 
   3   1 -14 2872.46   77.99   3 
  -1   3 -14 2889.48   86.08   1 
  -1   3 -14 2975.61   85.72   5 
  -3  -1  14 2806.10   88.40   5 
   1  -3 -14 2872.72   79.09   3 
   1   3  14 2280.72   79.00   2 
  -1  -3 -14 2311.33   70.29   3 
  -3   1 -14 2371.42   69.46   3 
   1   3 -14 2358.16   64.08   3 
  -3   1  14 2245.99   76.18   5 
  -3   1  14 2351.97   70.01   1 
   1   3 -14 2321.77   74.41   5 
   3  -1 -14 2290.85   70.70   6 
  -1  -3  14 2298.70   74.10   1 
   3  -1 -14 2369.70   66.06   3 
  -3   1 -14 2330.74   70.70   6 
  -3   3 -14 2263.13   71.11   1 
   3   3 -14 2119.46   62.54   3 
  -3   3  14 2132.60   75.72   5 
   3  -3 -14 2024.19   60.90   3 
   3  -3 -14 2178.00   70.70   6 
  -2   4 -14   -1.01    4.32   5 
   4   2 -14   -0.10    2.59   3 
   2  -4 -14    4.08    3.00   3 
  -2   4 -14    3.42    5.03   1 
  -2   4  14    4.17    4.82   5 
   4   0 -14   28.64    6.90   6 
   4   0  14   21.82    5.54   3 
   0   4 -14   20.96    7.58   1 
  -4   0  14   29.73    8.58   5 
   0   4 -14   23.78    7.61   5 
   0   4  14   20.05    8.02   2 
   4   0  14   17.75    6.07   2 
  -4   0  14   19.05    5.99   1 
  -4   0 -14   33.24    8.67   6 
   0  -4 -14   23.95    6.47   3 
  -4   2  14   19.22    6.15   1 
   2   4  14   11.21    6.44   2 
   2   4 -14   12.44    4.89   3 
  -4   2  14   15.61    6.94   5 
   4  -2 -14   26.21    7.40   6 
  -4   4 -14    4.72    3.67   1 
   4   4 -14    4.71    3.49   3 
   4   4  14    2.04    4.11   3 
  -3   5 -14 1544.11   61.71   1 
   5   3 -14 1453.92   51.51   3 
  -1   5 -14 1584.23   58.24   5 
  -5  -1  14 1594.13   59.94   5 
  -1   5  14 1640.93   65.73   2 
  -1   5 -14 1580.87   63.67   1 
   5  -1 -14 2072.69   67.13   6 
   1   5  14 1975.09   75.44   2 
   3   5  14 1350.25   51.31   3 
   3   5  14 1316.75   58.26   2 
   3   5 -14 1396.92   46.81   3 
   0   6  14    0.03    4.92   2 
   0   6 -14   -2.53    6.03   1 
   1   0 -15   92.59   11.54   6 
  -1   0 -15  106.27   11.76   3 
   0  -1 -15   86.36   11.36   6 
   0   1 -15   80.25    9.81   3 
  -1   0 -15   93.33   11.46   6 
   0  -1  15   93.76   10.11   1 
   0   1 -15  105.93   11.30   6 
   0  -1 -15   94.78   11.08   3 
   1   0 -15  102.54   11.12   3 
  -2  -1  15  212.24   16.67   1 
   1  -2 -15  230.33   17.17   3 
   1  -2 -15  221.06   17.94   6 
   1  -2  15  214.94   16.93   1 
  -1   2 -15  211.77   16.14   3 
  -2  -1 -15  219.50   18.92   6 
  -2  -1 -15  194.30   17.26   3 
  -2  -1  15  197.99   18.42   5 
   2   1 -15  197.40   15.24   3 
  -1  -2 -15  114.35   12.25   3 
  -2   1 -15  104.38   11.88   6 
  -2   1  15   86.67   12.44   5 
   1   2 -15   91.29   10.42   3 
  -1  -2 -15  109.35   13.60   6 
   2  -1 -15   91.74   11.60   6 
  -2   1 -15  113.89   11.96   3 
  -1  -2  15  100.97   11.52   1 
   1   2 -15   86.17   11.67   5 
   2  -1 -15   76.13    9.36   3 
  -2   3  15   73.74   12.70   5 
   2  -3 -15   65.69    9.03   3 
  -2   3 -15   69.30   10.22   5 
  -3  -2 -15   62.73   10.10   3 
  -2   3 -15   87.34   12.04   1 
  -3  -2 -15   75.38   12.06   6 
   3   2 -15   78.53    9.76   3 
   2  -3 -15   79.36   11.49   6 
   0   3 -15  132.75   14.39   5 
   3   0 -15  158.96   14.85   6 
  -3   0  15  138.70   15.74   5 
   0   3 -15  137.03   12.53   3 
  -3   0  15  116.27   12.71   1 
   3   0 -15  135.78   12.94   3 
  -3   0 -15  125.96   13.56   3 
   0  -3  15  123.67   14.10   1 
   0  -3 -15  119.27   12.48   3 
   0  -3 -15  135.61   14.91   6 
  -3   0 -15  133.11   14.32   6 
  -3   2  15   25.33    8.58   5 
   3  -2 -15   30.22    8.14   6 
   2   3 -15   31.92    7.20   3 
  -3   4 -15  142.14   16.53   1 
   4   3 -15   94.54   11.05   3 
  -4  -1 -15   42.83    9.79   6 
  -1   4 -15   34.26    9.54   1 
  -4  -1  15   37.31   10.28   5 
  -1   4 -15   39.76    9.89   5 
  -4   1  15   89.66   13.10   5 
   4  -1 -15   45.11   10.09   6 
   1   4 -15   64.16    8.62   3 
   1   4  15   56.69   13.10   2 
   1   4 -15   66.90   10.59   5 
   3   4 -15   79.84    9.96   3 
   3   4  15   80.66   11.41   3 
   5   2 -15   22.25    6.63   3 
  -2   5 -15   36.84   10.44   1 
   0   5  15  101.23   14.54   2 
   2   5  15   64.54   11.08   2 
   2   5  15   47.34    9.95   3 
   0   0 -16 2357.81   69.99   3 
   0   0 -16 2364.22   73.31   6 
  -1  -1 -16   18.44    6.06   3 
  -1   1 -16   13.29    5.79   3 
   1  -1 -16   18.15    6.19   3 
   1   1 -16   19.48    6.12   3 
  -1   1 -16   32.89    7.83   6 
  -1  -1  16   32.66    7.51   1 
   1  -1 -16   24.99    7.55   6 
  -1  -1 -16   26.81    7.97   6 
  -2   0 -16 2334.77   71.09   3 
   0  -2 -16 2445.31   78.04   6 
  -2   0  16 2216.83   69.56   1 
  -2   0  16 2422.19   81.13   5 
  -2   0 -16 2333.91   73.42   6 
   2   0 -16 2390.08   72.23   6 
   0  -2  16 2395.19   72.49   1 
   0   2 -16 2254.53   66.64   3 
   2   2 -16 1915.75   60.34   3 
  -2   2 -16 2047.78   63.26   3 
  -2   2  16 2046.22   74.19   5 
  -2  -2 -16 2041.19   70.40   6 
   2  -2 -16 1950.21   67.21   6 
  -2  -2 -16 1970.25   65.70   3 
   1  -3 -16   -0.17    3.56   6 
  -3  -1  16    3.48    4.92   5 
  -1   3 -16   -5.17    3.49   5 
  -3  -1 -16   -3.76    3.78   6 
   3   1 -16   -1.03    2.70   3 
  -3  -1 -16   -0.41    3.69   3 
   1   3  16   -2.33    4.20   2 
  -3   1 -16    3.14    4.37   3 
   1   3 -16   11.08    5.52   5 
  -3   1  16   -2.23    3.82   5 
   1   3 -16    0.07    2.89   3 
   3  -1 -16    2.70    4.28   6 
  -3   1 -16   12.92    5.27   6 
  -1  -3 -16   -1.11    3.77   6 
   3   3 -16    4.82    3.90   3 
   4   2 -16 1403.74   50.11   3 
  -2   4 -16 1458.50   57.62   1 
   0   4  16 1479.35   60.93   2 
   2   4 -16 1536.77   49.81   3 
   2   4  16 1414.15   62.81   2 
  -1   0 -17  143.25   14.68   6 
   1   0 -17  132.43   14.20   6 
   0  -1 -17  122.72   13.44   3 
   1   0 -17  124.64   13.04   3 
  -1   0 -17  113.38   12.61   3 
   0  -1 -17  120.29   14.00   6 
   0   1 -17  137.73   13.77   3 
  -2  -1 -17   53.71   10.99   3 
  -1   2 -17   52.82    8.76   3 
  -2  -1 -17   57.27   12.29   6 
   2   1 -17   51.90    8.57   3 
   1  -2 -17   60.14   10.60   6 
  -2  -1  17   49.61   11.37   5 
  -1  -2 -17   57.00   11.91   6 
  -2   1  17   46.22   10.87   5 
   2  -1 -17   43.62   10.02   6 
  -2   1 -17   44.16   10.08   3 
   1   2 -17   31.65    7.84   3 
   3   2 -17   98.22   11.55   3 
  -3  -2 -17  111.44   13.20   3 
  -3   0 -17   56.57   11.02   3 
  -3   0 -17   37.53    8.95   6 
   0   3 -17   50.80    9.66   3 
   2   3 -17  118.86   12.51   3 
  -1   4  17   89.31   14.20   2 
   1   4  17   47.43   11.74   2 
   0   0 -18    3.11    4.64   6 
   0   0 -18    1.71    3.55   3 
   1   1 -18 1587.47   53.22   3 
   1  -1 -18 1312.32   54.50   6 
  -1   1 -18 1536.58   53.96   3 
  -1  -1 -18 1476.41   54.43   3 
  -2   0 -18   -4.29    3.44   3 
   0   2 -18    1.24    3.65   3 
   2   0 -18    1.55    2.97   3 
  -2  -2 -18    3.34    4.05   3 
   2   2 -18   -4.47    2.86   3 
  -2   2 -18   -2.83    3.19   3 
   3   1 -18 1159.84   45.63   3 
  -3  -1 -18 1242.42   49.64   3 
   1   3  18 1465.99   63.91   2 
   1   3 -18 1546.11   52.38   3 
  -3   1 -18 1617.68   56.72   3 
   0  -1 -19   74.93   10.82   3 
   0   1 -19   85.29   11.31   3 
   1   0 -19   53.09   10.74   3 
  -1   0 -19   89.30   12.04   3 
   0   0   0    0.00    0.00   0 
;
_shelx_hkl_checksum              65094
loop_
_space_group_symop_operation_xyz
'x, y, z'
'-x+1/2, -y, z+1/2'
'-y+3/4, x+1/4, z+1/4'
'y+3/4, -x+3/4, z+3/4'
'x+1/2, y+1/2, z+1/2'
'-x+1, -y+1/2, z+1'
'-y+5/4, x+3/4, z+3/4'
'y+5/4, -x+5/4, z+5/4'
'-x, -y, -z'
'x-1/2, y, -z-1/2'
'y-3/4, -x-1/4, -z-1/4'
'-y-3/4, x-3/4, -z-3/4'
'-x+1/2, -y+1/2, -z+1/2'
'x, y+1/2, -z'
'y-1/4, -x+1/4, -z+1/4'
'-y-1/4, x-1/4, -z-1/4'
loop_
_atom_site_label
_atom_site_type_symbol
_atom_site_fract_x
_atom_site_fract_y
_atom_site_fract_z
_atom_site_U_iso_or_equiv
_atom_site_adp_type
_atom_site_occupancy
_atom_site_site_symmetry_order
_atom_site_calc_flag
_atom_site_refinement_flags_posn
_atom_site_refinement_flags_adp
_atom_site_refinement_flags_occupancy
_atom_site_disorder_assembly
_atom_site_disorder_group
Eu1 Eu 0.0000 0.2500 0.6250 0.01119(11) Uani 1 4 d S T P . .
Mo1 Mo 0.0000 0.2500 0.1250 0.01000(10) Uani 1 4 d S T P . .
O1 O 0.1366(3) 0.0119(3) 0.20631(14) 0.0158(3) Uani 1 1 d . . . . .
loop_
_atom_site_aniso_label
_atom_site_aniso_U_11
_atom_site_aniso_U_22
_atom_site_aniso_U_33
_atom_site_aniso_U_23
_atom_site_aniso_U_13
_atom_site_aniso_U_12
Eu1 0.01131(12) 0.01131(12) 0.01094(14) 0.000 0.000 0.000
Mo1 0.00912(12) 0.00912(12) 0.01178(18) 0.000 0.000 0.000
O1 0.0147(7) 0.0161(8) 0.0164(7) 0.0025(6) 0.0010(6) 0.0022(6)
loop_
_atom_type_symbol
_atom_type_description
_atom_type_scat_dispersion_real
_atom_type_scat_dispersion_imag
_atom_type_scat_source
O O 0.0106 0.0060 'International Tables Vol C Tables 4.2.6.8 and 6.1.1.4'
Mo Mo -1.6832 0.6857 'International Tables Vol C Tables 4.2.6.8 and 6.1.1.4'
Eu Eu -0.1578 3.6682 'International Tables Vol C Tables 4.2.6.8 and 6.1.1.4'
loop_
_geom_angle_atom_site_label_1
_geom_angle_atom_site_label_2
_geom_angle_atom_site_label_3
_geom_angle
_geom_angle_site_symmetry_1
_geom_angle_site_symmetry_3
O1 Eu1 O1 128.17(5) 14_556 3_455
O1 Eu1 O1 128.17(5) 14_556 8_444
O1 Eu1 O1 76.35(8) 3_455 8_444
O1 Eu1 O1 76.35(8) 14_556 9_556
O1 Eu1 O1 128.17(5) 3_455 9_556
O1 Eu1 O1 128.17(5) 8_444 9_556
O1 Eu1 O1 149.51(7) 14_556 16_556
O1 Eu1 O1 67.87(4) 3_455 16_556
O1 Eu1 O1 77.73(6) 8_444 16_556
O1 Eu1 O1 74.19(3) 9_556 16_556
O1 Eu1 O1 74.19(3) 14_556 11_666
O1 Eu1 O1 77.73(6) 3_455 11_666
O1 Eu1 O1 67.87(4) 8_444 11_666
O1 Eu1 O1 149.51(7) 9_556 11_666
O1 Eu1 O1 135.98(8) 16_556 11_666
O1 Eu1 O1 77.73(6) 14_556 2
O1 Eu1 O1 149.51(7) 3_455 2
O1 Eu1 O1 74.19(3) 8_444 2
O1 Eu1 O1 67.87(4) 9_556 2
O1 Eu1 O1 98.07(3) 16_556 2
O1 Eu1 O1 98.07(3) 11_666 2
O1 Eu1 O1 67.87(4) 14_556 5_455
O1 Eu1 O1 74.19(3) 3_455 5_455
O1 Eu1 O1 149.51(7) 8_444 5_455
O1 Eu1 O1 77.73(6) 9_556 5_455
O1 Eu1 O1 98.07(3) 16_556 5_455
O1 Eu1 O1 98.07(3) 11_666 5_455
O1 Eu1 O1 135.98(8) 2 5_455
O1 Eu1 Mo1 126.13(4) 14_556 5_445
O1 Eu1 Mo1 79.32(4) 3_455 5_445
O1 Eu1 Mo1 100.68(4) 8_444 5_445
O1 Eu1 Mo1 53.87(4) 9_556 5_445
O1 Eu1 Mo1 23.78(4) 16_556 5_445
O1 Eu1 Mo1 156.22(4) 11_666 5_445
O1 Eu1 Mo1 98.54(4) 2 5_445
O1 Eu1 Mo1 81.46(4) 5_455 5_445
O1 Eu1 Mo1 53.87(4) 14_556 5
O1 Eu1 Mo1 100.68(4) 3_455 5
O1 Eu1 Mo1 79.32(4) 8_444 5
O1 Eu1 Mo1 126.13(4) 9_556 5
O1 Eu1 Mo1 156.22(4) 16_556 5
O1 Eu1 Mo1 23.78(4) 11_666 5
O1 Eu1 Mo1 81.46(4) 2 5
O1 Eu1 Mo1 98.54(4) 5_455 5
Mo1 Eu1 Mo1 180.0 5_445 5
O1 Eu1 Mo1 100.68(4) 14_556 5_545
O1 Eu1 Mo1 126.13(4) 3_455 5_545
O1 Eu1 Mo1 53.87(4) 8_444 5_545
O1 Eu1 Mo1 79.32(4) 9_556 5_545
O1 Eu1 Mo1 81.46(4) 16_556 5_545
O1 Eu1 Mo1 98.54(4) 11_666 5_545
O1 Eu1 Mo1 23.78(4) 2 5_545
O1 Eu1 Mo1 156.22(4) 5_455 5_545
Mo1 Eu1 Mo1 90.0 5_445 5_545
Mo1 Eu1 Mo1 90.0 5 5_545
O1 Eu1 Mo1 79.32(4) 14_556 5_455
O1 Eu1 Mo1 53.87(4) 3_455 5_455
O1 Eu1 Mo1 126.13(4) 8_444 5_455
O1 Eu1 Mo1 100.68(4) 9_556 5_455
O1 Eu1 Mo1 98.54(4) 16_556 5_455
O1 Eu1 Mo1 81.46(4) 11_666 5_455
O1 Eu1 Mo1 156.22(4) 2 5_455
O1 Eu1 Mo1 23.78(4) 5_455 5_455
Mo1 Eu1 Mo1 90.0 5_445 5_455
Mo1 Eu1 Mo1 90.0 5 5_455
Mo1 Eu1 Mo1 180.0 5_545 5_455
O1 Mo1 O1 107.65(5) 15 6_454
O1 Mo1 O1 113.18(11) 15 12_666
O1 Mo1 O1 107.65(5) 6_454 12_666
O1 Mo1 O1 107.65(5) 15 .
O1 Mo1 O1 113.18(11) 6_454 .
O1 Mo1 O1 107.65(5) 12_666 .
O1 Mo1 Eu1 36.32(5) 15 5_444
O1 Mo1 Eu1 102.61(5) 6_454 5_444
O1 Mo1 Eu1 143.68(5) 12_666 5_444
O1 Mo1 Eu1 77.39(5) . 5_444
O1 Mo1 Eu1 143.68(5) 15 5_554
O1 Mo1 Eu1 77.39(5) 6_454 5_554
O1 Mo1 Eu1 36.32(5) 12_666 5_554
O1 Mo1 Eu1 102.61(5) . 5_554
Eu1 Mo1 Eu1 180.0 5_444 5_554
O1 Mo1 Eu1 102.61(5) 15 5_544
O1 Mo1 Eu1 143.68(5) 6_454 5_544
O1 Mo1 Eu1 77.39(5) 12_666 5_544
O1 Mo1 Eu1 36.32(5) . 5_544
Eu1 Mo1 Eu1 90.0 5_444 5_544
Eu1 Mo1 Eu1 90.0 5_554 5_544
O1 Mo1 Eu1 77.39(5) 15 5_454
O1 Mo1 Eu1 36.32(5) 6_454 5_454
O1 Mo1 Eu1 102.61(5) 12_666 5_454
O1 Mo1 Eu1 143.68(5) . 5_454
Eu1 Mo1 Eu1 90.0 5_444 5_454
Eu1 Mo1 Eu1 90.0 5_554 5_454
Eu1 Mo1 Eu1 180.0 5_544 5_454
Mo1 O1 Eu1 135.31(8) . 9_556
Mo1 O1 Eu1 119.90(8) . 5_544
Eu1 O1 Eu1 102.27(6) 9_556 5_544
loop_
_geom_bond_atom_site_label_1
_geom_bond_atom_site_label_2
_geom_bond_distance
_geom_bond_site_symmetry_2
Eu1 O1 2.5763(17) 14_556
Eu1 O1 2.5763(17) 3_455
Eu1 O1 2.5763(17) 8_444
Eu1 O1 2.5763(17) 9_556
Eu1 O1 2.6046(17) 16_556
Eu1 O1 2.6046(17) 11_666
Eu1 O1 2.6046(17) 2
Eu1 O1 2.6046(17) 5_455
Eu1 Mo1 3.81194(7) 5_445
Eu1 Mo1 3.81194(6) 5
Eu1 Mo1 3.81194(7) 5_545
Eu1 Mo1 3.81194(6) 5_455
Mo1 O1 1.7728(17) 15
Mo1 O1 1.7728(17) 6_454
Mo1 O1 1.7728(17) 12_666
Mo1 O1 1.7729(17) .
Mo1 Eu1 3.81194(7) 5_444
Mo1 Eu1 3.81194(7) 5_554
Mo1 Eu1 3.81194(7) 5_544
Mo1 Eu1 3.81194(7) 5_454
O1 Eu1 2.5763(17) 9_556
O1 Eu1 2.6046(17) 5_544
