#------------------------------------------------------------------------------
#$Date: 2021-04-08 11:30:00 +0300 (Thu, 08 Apr 2021) $
#$Revision: 263977 $
#$URL: file:///home/coder/svn-repositories/cod/cif/1/56/15/1561562.cif $
#------------------------------------------------------------------------------
#
# This file is available in the Crystallography Open Database (COD),
# http://www.crystallography.net/
#
# All data on this site have been placed in the public domain by the
# contributors.
#
data_1561562
loop_
_publ_author_name
'King, Nacole'
'Sullivan, Ian'
'Watkins-Curry, Pilanda'
'Chan, Julia Y.'
'Maggard, Paul A.'
_publ_section_title
;
 Flux-mediated syntheses, structural characterization and low-temperature
 polymorphism of the p-type semiconductor Cu2Ta4O11
;
_journal_name_full               'Journal of Solid State Chemistry'
_journal_page_first              10
_journal_page_last               18
_journal_paper_doi               10.1016/j.jssc.2015.08.041
_journal_volume                  236
_journal_year                    2016
_chemical_formula_sum            'Cu2.06 O11 Ta4'
_chemical_formula_weight         1030.69
_space_group_IT_number           9
_space_group_name_Hall           'C -2yc'
_space_group_name_H-M_alt        'C 1 c 1'
_symmetry_cell_setting           monoclinic
_symmetry_space_group_name_H-M   'C 1 c 1'
_cell_angle_alpha                90
_cell_angle_beta                 106.070(4)
_cell_angle_gamma                90
_cell_formula_units_Z            4
_cell_length_a                   10.7337(14)
_cell_length_b                   6.2506(3)
_cell_length_c                   12.8869(14)
_cell_volume                     830.82(15)
_computing_structure_refinement
'GSAS-II (Toby & Von Dreele, J. Appl. Cryst. 46, 544-549, 2013)'
_diffrn_ambient_pressure         100
_diffrn_ambient_temperature      300
_diffrn_radiation_polarisn_ratio 0.7000
_diffrn_radiation_probe          x-ray
_diffrn_radiation_type           K\a~1,2~
_pd_calc_method                  'Rietveld Refinement'
_pd_instr_location               ' ?'
_pd_meas_2theta_range_inc        0.00976
_pd_meas_2theta_range_max        80.04000
_pd_meas_2theta_range_min        10.00000
_pd_meas_number_of_points        7005
_pd_proc_info_datetime           2015-04-11T15:53
_pd_proc_info_excluded_regions   ' ?'
_pd_proc_ls_background_function
; Background function: "chebyschev" function with 4 terms:
    1045(3), 54(7), -134(5), -25(9), 
;
_pd_proc_ls_pref_orient_corr
'March-Dollase correction coef. = 1.000 axis = [0, 0, 1]'
_pd_proc_ls_profile_function
; Finger-Cox-Jephcoat function parameters U, V, W, X, Y, SH/L:
  peak variance(Gauss) = Utan(Th)^2^+Vtan(Th)+W:
  peak HW(Lorentz) = X/cos(Th)+Ytan(Th); SH/L = S/L+H/L
  U, V, W in (centideg)^2^, X & Y in centideg
    4(2), -4.1(19), 4.4(4), 0(6), 0.0(5), 0.002, 
  Crystallite size model "isotropic" for RDS009_Cc (microns)
  parameters: Size, G/L mix
    1(6), 1.000, 
  Mustrain model "isotropic" for RDS009_Cc (10^6^)
    parameters: Mustrain, G/L mix
    1000.000, 1.000, 

;
_pd_proc_ls_prof_R_factor        0.06712
_pd_proc_ls_prof_wR_expected     0.05447
_pd_proc_ls_prof_wR_factor       0.08587
_pd_spec_mounting                ' ?'
_refine_ls_goodness_of_fit_all   2.517
_refine_ls_matrix_type           full
_refine_ls_number_parameters     82
_refine_ls_R_Fsqd_factor         0.09653
_refine_ls_wR_factor_obs         0.08587
_reflns_d_resolution_high        1.199
_reflns_d_resolution_low         6.192
_reflns_limit_h_max              5
_reflns_limit_h_min              5
_reflns_limit_k_max              1
_reflns_limit_k_min              1
_reflns_limit_l_max              -10
_reflns_limit_l_min              -10
_reflns_number_total             250
_cod_data_source_file            JSSC-2016-236-10.cif
_cod_data_source_block           -50_RDS009_new_1.bak56
_cod_original_cell_volume        830.82(12)
_cod_database_code               1561562
_refine_ls_r_f_factor            0.11993
_gsas_proc_ls_prof_r_b_factor    0.06588
_gsas_proc_ls_prof_wr_b_factor   0.08418
loop_
_space_group_symop_id
_space_group_symop_operation_xyz
1 x,y,z
2 x,-y,1/2+z
3 1/2+x,1/2+y,z
4 1/2+x,1/2-y,1/2+z
loop_
_atom_site_label
_atom_site_type_symbol
_atom_site_fract_x
_atom_site_fract_y
_atom_site_fract_z
_atom_site_occupancy
_atom_site_adp_type
_atom_site_U_iso_or_equiv
_atom_site_symmetry_multiplicity
CU1 Cu 0.820(7) 0.501(6) 0.294(4) 0.67(6) Uiso 0.067(19) 4
CU2 Cu 0.363(7) 0.482(5) 0.305(4) 0.67(5) Uiso 0.024(15) 4
CU3 Cu 0.611(7) 0.240(5) 0.786(4) 0.71(15) Uiso 0.012(8) 4
O1 O 0.493(9) -0.251(12) 0.485(5) 1.000 Uiso 0.020 4
O2 O 0.329(9) -0.001(6) 0.520(6) 1.000 Uiso 0.020 4
O3 O 0.480(7) 0.371(8) 0.591(5) 1.000 Uiso 0.020 4
O4 O 0.544(8) 0.050(11) 0.691(6) 1.000 Uiso 0.020 4
O5 O 0.492(9) 0.116(10) 0.369(8) 1.000 Uiso 0.020 4
O6 O 0.203(8) 0.403(12) 0.539(9) 1.000 Uiso 0.020 4
O7 O 0.266(9) 0.628(11) 0.384(7) 1.000 Uiso 0.020 4
O8 O 0.417(9) 0.343(12) 0.205(7) 1.000 Uiso 0.020 4
O9 O 0.669(8) 0.441(10) 0.201(7) 1.000 Uiso 0.020 4
O10 O 0.590(8) 0.481(11) 0.883(7) 1.000 Uiso 0.020 4
O11 O 0.179(9) 0.741(13) 0.553(5) 1.000 Uiso 0.020 4
TA1 Ta 0.521(6) 0.0694(17) 0.534(3) 1.000 Uiso 0.022(3) 4
TA2 Ta 0.160(6) 0.0671(13) 0.535(4) 1.000 Uiso 0.019(3) 4
TA3 Ta 0.343(6) 0.6092(6) 0.540(4) 1.000 Uiso 0.0229(17) 4
TA4 Ta 0.603(6) 0.243(2) 0.286(4) 1.000 Uiso 0.0305(15) 4
loop_
_atom_type_symbol
_atom_type_number_in_cell
Cu 8.24
O 44
Ta 16
loop_
_diffrn_radiation_wavelength
_diffrn_radiation_wavelength_wt
_diffrn_radiation_wavelength_id
1.54060 1.0 1
1.54439 0.5000 2
loop_
_geom_angle_atom_site_label_1
_geom_angle_atom_site_label_2
_geom_angle_atom_site_label_3
_geom_angle
_geom_angle_site_symmetry_1
_geom_angle_site_symmetry_2
_geom_angle_site_symmetry_3
_geom_angle_publ_flag
O7 CU2 O8 166(6) 1_555 1_555 1_555 yes
TA1 O1 TA2 113(3) 1_555 1_555 3_545 yes
TA1 O1 TA3 111(3) 1_555 1_555 1_545 yes
TA2 O1 TA3 110(3) 3_545 1_555 1_545 yes
TA1 O2 TA2 153(2) 1_555 1_555 1_555 yes
TA1 O3 TA3 137(3) 1_555 1_555 1_555 yes
CU3 O4 TA1 127(4) 1_555 1_555 1_555 yes
TA1 O5 TA4 131(4) 1_555 1_555 1_555 yes
CU2 O7 TA3 113(4) 1_555 1_555 1_555 yes
CU2 O7 TA4 132(3) 1_555 1_555 3_455 yes
TA3 O7 TA4 104(2) 1_555 1_555 3_455 yes
CU2 O8 TA3 122(3) 1_555 1_555 2_564 yes
CU2 O8 TA4 104(5) 1_555 1_555 1_555 yes
TA3 O8 TA4 112(2) 2_564 1_555 1_555 yes
CU1 O9 TA2 116(3) 1_555 1_555 4_554 yes
CU1 O9 TA4 99(4) 1_555 1_555 1_555 yes
TA2 O9 TA4 132(3) 4_554 1_555 1_555 yes
TA1 O11 TA2 91(2) 3_455 1_555 1_565 yes
TA1 O11 TA3 150(3) 3_455 1_555 1_555 yes
TA2 O11 TA3 117(4) 1_565 1_555 1_555 yes
O1 TA1 O2 18.4(13) 1_555 1_555 1_555 yes
O1 TA1 O3 32.3(14) 1_555 1_555 1_555 yes
O2 TA1 O3 21.1(10) 1_555 1_555 1_555 yes
O1 TA1 O4 101(2) 1_555 1_555 1_555 yes
O2 TA1 O4 92(2) 1_555 1_555 1_555 yes
O3 TA1 O4 71(2) 1_555 1_555 1_555 yes
O1 TA1 O5 74.2(18) 1_555 1_555 1_555 yes
O2 TA1 O5 83.3(18) 1_555 1_555 1_555 yes
O3 TA1 O5 104(2) 1_555 1_555 1_555 yes
O4 TA1 O5 175(2) 1_555 1_555 1_555 yes
O1 TA1 O11 163.5(18) 1_555 1_555 3_545 yes
O2 TA1 O11 178.1(12) 1_555 1_555 3_545 yes
O3 TA1 O11 158.0(14) 1_555 1_555 3_545 yes
O4 TA1 O11 87(2) 1_555 1_555 3_545 yes
O5 TA1 O11 97.9(17) 1_555 1_555 3_545 yes
O1 TA2 O2 73(2) 3_455 1_555 1_555 yes
O1 TA2 O9 44.6(19) 3_455 1_555 4_455 yes
O2 TA2 O9 108.1(9) 1_555 1_555 4_455 yes
O1 TA2 O10 52.1(16) 3_455 1_555 4_454 yes
O2 TA2 O10 97.5(7) 1_555 1_555 4_454 yes
O9 TA2 O10 73.0(4) 4_455 1_555 4_454 yes
O1 TA2 O11 129(3) 3_455 1_555 1_545 yes
O2 TA2 O11 158(2) 1_555 1_555 1_545 yes
O9 TA2 O11 92(2) 4_455 1_555 1_545 yes
O10 TA2 O11 96.3(13) 4_454 1_555 1_545 yes
O1 TA3 O3 124.7(15) 1_565 1_555 1_555 yes
O1 TA3 O6 145(2) 1_565 1_555 1_555 yes
O3 TA3 O6 90.4(18) 1_555 1_555 1_555 yes
O1 TA3 O7 83(2) 1_565 1_555 1_555 yes
O3 TA3 O7 115(3) 1_555 1_555 1_555 yes
O6 TA3 O7 86(4) 1_555 1_555 1_555 yes
O1 TA3 O8 25.8(9) 1_565 1_555 2_565 yes
O3 TA3 O8 125.3(18) 1_555 1_555 2_565 yes
O6 TA3 O8 130(2) 1_555 1_555 2_565 yes
O7 TA3 O8 104.0(19) 1_555 1_555 2_565 yes
O1 TA3 O11 80(2) 1_565 1_555 1_555 yes
O3 TA3 O11 147(2) 1_555 1_555 1_555 yes
O6 TA3 O11 65(2) 1_555 1_555 1_555 yes
O7 TA3 O11 86(3) 1_555 1_555 1_555 yes
O8 TA3 O11 67(2) 2_565 1_555 1_555 yes
O5 TA4 O7 70.7(18) 1_555 1_555 3_545 yes
O5 TA4 O8 75(2) 1_555 1_555 1_555 yes
O7 TA4 O8 122(2) 3_545 1_555 1_555 yes
O5 TA4 O9 161(3) 1_555 1_555 1_555 yes
O7 TA4 O9 127.9(18) 3_545 1_555 1_555 yes
O8 TA4 O9 89(3) 1_555 1_555 1_555 yes
loop_
_geom_bond_atom_site_label_1
_geom_bond_atom_site_label_2
_geom_bond_distance
_geom_bond_site_symmetry_1
_geom_bond_site_symmetry_2
_geom_bond_publ_flag
CU1 O5 1.96(9) 1_555 3_555 yes
CU1 O9 1.77(7) 1_555 1_555 yes
CU1 TA4 2.81(4) 1_555 1_555 yes
CU2 O7 1.88(7) 1_555 1_555 yes
CU2 O8 1.78(9) 1_555 1_555 yes
CU3 O4 1.71(8) 1_555 1_555 yes
CU3 O10 2.01(9) 1_555 1_555 yes
O1 TA1 2.10(8) 1_555 1_555 yes
O1 TA2 2.08(7) 1_555 3_545 yes
O1 TA3 2.12(7) 1_555 1_545 yes
O2 TA1 2.07(8) 1_555 1_555 yes
O2 TA2 1.92(8) 1_555 1_555 yes
O2 TA3 2.45(4) 1_555 1_545 yes
O3 TA1 2.12(6) 1_555 1_555 yes
O3 TA3 2.07(5) 1_555 1_555 yes
O4 CU3 1.71(8) 1_555 1_555 yes
O4 TA1 1.98(7) 1_555 1_555 yes
O4 TA4 2.20(6) 1_555 2_555 yes
O5 CU1 1.96(9) 1_555 3_445 yes
O5 TA1 2.08(9) 1_555 1_555 yes
O5 TA4 1.98(7) 1_555 1_555 yes
O6 TA1 2.19(5) 1_555 3_455 yes
O6 TA2 2.15(8) 1_555 1_555 yes
O6 TA3 1.98(7) 1_555 1_555 yes
O7 CU2 1.88(7) 1_555 1_555 yes
O7 TA3 1.95(8) 1_555 1_555 yes
O7 TA4 1.99(8) 1_555 3_455 yes
O8 CU2 1.78(9) 1_555 1_555 yes
O8 TA3 2.07(10) 1_555 2_564 yes
O8 TA4 2.08(10) 1_555 1_555 yes
O9 CU1 1.77(7) 1_555 1_555 yes
O9 TA2 2.11(8) 1_555 4_554 yes
O9 TA4 1.92(7) 1_555 1_555 yes
O10 CU3 2.01(9) 1_555 1_555 yes
O10 TA2 1.91(7) 1_555 4_555 yes
O10 TA4 2.16(7) 1_555 2_565 yes
O11 TA1 1.96(8) 1_555 3_455 yes
O11 TA2 2.06(8) 1_555 1_565 yes
O11 TA3 1.99(8) 1_555 1_555 yes
TA1 O1 2.10(8) 1_555 1_555 yes
TA1 O2 2.07(8) 1_555 1_555 yes
TA1 O3 2.12(6) 1_555 1_555 yes
TA1 O4 1.98(7) 1_555 1_555 yes
TA1 O5 2.08(9) 1_555 1_555 yes
TA1 O6 2.19(5) 1_555 3_545 yes
TA1 O11 1.96(8) 1_555 3_545 yes
TA2 O1 2.08(7) 1_555 3_455 yes
TA2 O2 1.92(8) 1_555 1_555 yes
TA2 O6 2.15(8) 1_555 1_555 yes
TA2 O9 2.11(8) 1_555 4_455 yes
TA2 O10 1.91(7) 1_555 4_454 yes
TA2 O11 2.06(8) 1_555 1_545 yes
TA3 O1 2.12(7) 1_555 1_565 yes
TA3 O2 2.45(4) 1_555 1_565 yes
TA3 O3 2.07(5) 1_555 1_555 yes
TA3 O6 1.98(7) 1_555 1_555 yes
TA3 O7 1.95(8) 1_555 1_555 yes
TA3 O8 2.07(10) 1_555 2_565 yes
TA3 O11 1.99(8) 1_555 1_555 yes
TA4 CU1 2.81(4) 1_555 1_555 yes
TA4 O4 2.20(6) 1_555 2_554 yes
TA4 O5 1.98(7) 1_555 1_555 yes
TA4 O7 1.99(8) 1_555 3_545 yes
TA4 O8 2.08(10) 1_555 1_555 yes
TA4 O9 1.92(7) 1_555 1_555 yes
TA4 O10 2.16(7) 1_555 2_564 yes
loop_
_pd_meas_intensity_total
_pd_calc_intensity_total
_pd_proc_intensity_bkg_calc
_pd_proc_ls_weight
1199 0 0 0
1212 0 0 0
1218 0 0 0
1235 0 0 0
1238 0 0 0
1246 0 0 0
1216 0 0 0
1266 0 0 0
1201 0 0 0
1219 0 0 0
1195 0 0 0
1205 0 0 0
1239 0 0 0
1219 0 0 0
1198 0 0 0
1175 0 0 0
1165 0 0 0
1189 0 0 0
1190 0 0 0
1201 0 0 0
1225 0 0 0
1196 0 0 0
1165 0 0 0
1166 0 0 0
1173 0 0 0
1180 0 0 0
1173 0 0 0
1164 0 0 0
1158 0 0 0
1156 0 0 0
1146 0 0 0
1159 0 0 0
1179 0 0 0
1178 0 0 0
1150 0 0 0
1161 0 0 0
1166 0 0 0
1183 0 0 0
1207 0 0 0
1158 0 0 0
1179 0 0 0
1184 0 0 0
1197 0 0 0
1149 0 0 0
1135 0 0 0
1176 0 0 0
1147 0 0 0
1123 0 0 0
1107 0 0 0
1186 0 0 0
1172 0 0 0
1196 0 0 0
1189 0 0 0
1163 0 0 0
1134 0 0 0
1193 0 0 0
1184 0 0 0
1182 0 0 0
1142 0 0 0
1140 0 0 0
1122 0 0 0
1200 0 0 0
1210 0 0 0
1167 0 0 0
1149 0 0 0
1133 0 0 0
1164 0 0 0
1193 0 0 0
1192 0 0 0
1197 0 0 0
1192 0 0 0
1174 0 0 0
1107 0 0 0
1090 0 0 0
1162 0 0 0
1139 0 0 0
1137 0 0 0
1176 0 0 0
1142 0 0 0
1166 0 0 0
1155 0 0 0
1188 0 0 0
1098 0 0 0
1147 0 0 0
1173 0 0 0
1129 0 0 0
1174 0 0 0
1185 0 0 0
1245 0 0 0
1148 0 0 0
1206 0 0 0
1216 0 0 0
1146 0 0 0
1137 0 0 0
1149 0 0 0
1155 0 0 0
1140 0 0 0
1147 0 0 0
1155 0 0 0
1153 0 0 0
1173 0 0 0
1174 0 0 0
1115 0 0 0
1123 0 0 0
1130 0 0 0
1149 0 0 0
1158 0 0 0
1134 0 0 0
1128 0 0 0
1142 0 0 0
1163 0 0 0
1143 0 0 0
1101 0 0 0
1127 0 0 0
1136 0 0 0
1096 0 0 0
1118 0 0 0
1128 0 0 0
1097 0 0 0
1081 0 0 0
1120 0 0 0
1096 0 0 0
1148 0 0 0
1074 0 0 0
1077 0 0 0
1133 0 0 0
1154 0 0 0
1119 0 0 0
1170 0 0 0
1132 0 0 0
1080 0 0 0
1095 0 0 0
1138 0 0 0
1069 0 0 0
1083 0 0 0
1098 0 0 0
1107 0 0 0
1130 0 0 0
1095 0 0 0
1111 0 0 0
1061 0 0 0
1070 0 0 0
1081 0 0 0
1117 0 0 0
1046 0 0 0
1063 0 0 0
1092 0 0 0
1114 0 0 0
1106 0 0 0
1134 0 0 0
1138 0 0 0
1130 0 0 0
1101 0 0 0
1108 0 0 0
1091 0 0 0
1098 0 0 0
1135 0 0 0
1099 0 0 0
1079 0 0 0
1069 0 0 0
1092 0 0 0
1136 0 0 0
1096 0 0 0
1084 0 0 0
1062 0 0 0
1062 0 0 0
1086 0 0 0
1107 0 0 0
1095 0 0 0
1115 0 0 0
1054 0 0 0
1064 0 0 0
1095 0 0 0
1071 0 0 0
1069 0 0 0
1134 0 0 0
1069 0 0 0
1084 0 0 0
1027 0 0 0
1122 0 0 0
1051 0 0 0
1058 0 0 0
1043 0 0 0
1088 0 0 0
1072 0 0 0
1057 0 0 0
1059 0 0 0
1055 0 0 0
1058 0 0 0
1068 0 0 0
1074 0 0 0
1082 0 0 0
1088 0 0 0
1097 0 0 0
1083 0 0 0
1074 0 0 0
1038 0 0 0
1042 0 0 0
1067 0 0 0
1067 0 0 0
1069 0 0 0
1071 0 0 0
1080 0 0 0
1056 0 0 0
1035 0 0 0
1079 0 0 0
1086 0 0 0
1098 0 0 0
1095 0 0 0
1064 0 0 0
1019 0 0 0
1030 0 0 0
1036 0 0 0
1025 0 0 0
1041 0 0 0
1103 0 0 0
1056 0 0 0
1036 0 0 0
1047 0 0 0
1038 0 0 0
1006 0 0 0
1036 0 0 0
989 0 0 0
995 0 0 0
1086 0 0 0
1025 0 0 0
1015 0 0 0
1019 0 0 0
1064 0 0 0
1007 0 0 0
1050 0 0 0
1061 0 0 0
1064 0 0 0
1005 0 0 0
1031 0 0 0
1035 0 0 0
1044 0 0 0
1050 0 0 0
1018 0 0 0
1000 0 0 0
1013 0 0 0
1024 0 0 0
1038 0 0 0
1051 0 0 0
1036 0 0 0
1056 0 0 0
1090 0 0 0
1070 0 0 0
1082 0 0 0
1097 0 0 0
1091 0 0 0
1146 0 0 0
1181 0 0 0
1163 0 0 0
1217 0 0 0
1343 0 0 0
1364 0 0 0
1457 0 0 0
1594 0 0 0
1649 0 0 0
1667 0 0 0
1661 0 0 0
1542 0 0 0
1467 0 0 0
1351 0 0 0
1242 0 0 0
1203 0 0 0
1162 0 0 0
1057 0 0 0
1055 0 0 0
1118 0 0 0
1038 0 0 0
1045 0 0 0
1036 0 0 0
1052 0 0 0
1033 0 0 0
995 0 0 0
1028 0 0 0
1034 0 0 0
1008 0 0 0
1016 0 0 0
1058 0 0 0
1047 0 0 0
1045 0 0 0
1048 0 0 0
1050 0 0 0
1092 0 0 0
1149 0 0 0
1166 0 0 0
1198 0 0 0
1268 0 0 0
1302 0 0 0
1356 0 0 0
1385 0 0 0
1273 0 0 0
1127 0 0 0
1054 0 0 0
1009 0 0 0
992 0 0 0
1008 0 0 0
1042 881.44992 881.44992 0.000959694
1022 881.52416 881.52416 0.000978396
985 881.59839 881.59839 0.001015533
1026 881.67261 881.67261 0.000974734
982 881.74682 881.74682 0.001018127
964 881.82102 881.82102 0.001037234
1023 881.89521 881.89521 0.000977784
999 881.96939 881.96939 0.001000809
950 882.04355 882.04355 0.001052773
1005 882.11771 882.11771 0.000995134
1005 882.19185 882.19185 0.000995134
1069 882.26598 882.26598 0.0009352
952 882.34011 882.34011 0.001050726
974 882.41422 882.41422 0.001026626
949 882.48832 882.48832 0.001053456
980 882.56241 882.56241 0.001020731
924 882.63649 882.63649 0.001082064
953 882.71056 882.71056 0.001049365
964 882.78462 882.78462 0.001037234
988 882.85867 882.85867 0.001012305
951 882.9327 882.9327 0.001051408
962 883.00673 883.00673 0.001039241
947 883.08074 883.08074 0.001056197
977 883.15475 883.15475 0.001023345
998 883.22874 883.22874 0.001002076
968 883.30272 883.30272 0.001033237
981 883.37669 883.37669 0.001019428
1001 883.45065 883.45065 0.000998912
989 883.5246 883.5246 0.001011018
996 883.59854 883.59854 0.001003982
1001 883.67247 883.67247 0.000998912
994 883.74639 883.74639 0.001005894
995 883.82029 883.82029 0.001005256
994 883.89419 883.89419 0.001005894
991 883.96807 883.96807 0.001009092
997 884.04195 884.04195 0.001002711
992 884.11581 884.11581 0.001007811
976 884.18966 884.18966 0.001024656
974 884.2635 884.2635 0.001026626
940 884.33733 884.33733 0.001063789
968 884.41115 884.41115 0.001033237
991 884.48496 884.48496 0.001009092
1019 884.55876 884.55876 0.000981464
931 884.63255 884.63255 0.001074275
954 884.70632 884.70632 0.001048007
971 884.78009 884.78009 0.001029924
990 884.85384 884.85384 0.001010375
1010 884.92758 884.92758 0.00099013
927 885.00132 885.00132 0.001078513
943 885.07504 885.07504 0.001060328
956 885.14875 885.14875 0.001045974
917 885.22245 885.22245 0.001090657
950 885.29613 885.29613 0.001052773
992 885.36981 885.36981 0.001007811
999 885.44348 885.44348 0.001000809
1018 885.51713 885.51713 0.000982079
1022 885.59078 885.59078 0.000978396
1003 885.66441 885.66441 0.00099702
960 885.73803 885.73803 0.001041927
975 885.81165 885.81165 0.001025969
1034 885.88525 885.88525 0.00096687
980 885.95884 885.95884 0.001020731
991 896.84812 886.03241 0.001009092
991 897.24943 886.10598 0.001009092
988 897.66584 886.17954 0.001012305
974 903.4211 886.25308 0.001026626
1018 904.03064 886.32662 0.000982079
1007 904.66565 886.40014 0.000993253
970 905.32779 886.47366 0.001031247
1002 906.01885 886.54716 0.00099828
1016 906.74073 886.62065 0.000984546
991 907.49553 886.69413 0.001009092
990 908.28553 886.7676 0.001010375
1013 909.11317 886.84105 0.000987022
993 909.98116 886.9145 0.001007171
984 910.89242 886.98794 0.001016181
992 911.85016 887.06136 0.001007811
962 912.85787 887.13477 0.001039241
974 913.9194 887.20818 0.001026626
1021 915.03896 887.28157 0.000979621
1023 916.22119 887.35495 0.000977784
1004 917.47119 887.42832 0.000995762
997 918.79461 887.50168 0.001002711
1009 920.19768 887.57502 0.000991377
974 921.68732 887.64836 0.001026626
960 923.27119 887.72169 0.001041927
1012 924.95787 887.795 0.000988263
1011 926.75689 887.8683 0.000988885
987 928.67891 887.94159 0.001012949
993 930.73593 888.01487 0.001007171
942 932.94141 888.08814 0.001061711
966 935.31053 888.1614 0.001035233
975 937.86047 888.23465 0.001025969
991 940.61074 888.30789 0.001009092
967 943.58351 888.38111 0.001033902
975 946.80414 888.45433 0.001025969
990 950.30169 888.52753 0.001010375
971 954.10962 888.60072 0.001029924
1018 958.26654 888.6739 0.000982079
986 962.81735 888.74707 0.00101424
939 967.81431 888.82023 0.001065179
955 973.31866 888.89338 0.001047329
973 979.40253 888.96651 0.001027944
1003 986.15133 889.03964 0.00099702
966 993.66666 889.11275 0.001035233
983 1002.07044 889.18586 0.001017478
1024 1011.50962 889.25895 0.000976562
1044 1022.16288 889.33203 0.000957913
1048 1034.24895 889.4051 0.000954365
1030 1048.0381 889.47816 0.000971092
1076 1063.86709 889.5512 0.000929506
1098 1082.16 889.62424 0.000910532
1076 1103.45633 889.69726 0.000929506
1170 1128.45115 889.77028 0.000854464
1228 1158.05109 889.84328 0.000814464
1300 1193.45647 889.91627 0.000769039
1373 1236.28461 889.98925 0.00072849
1411 1288.7713 890.06222 0.000708841
1551 1354.18134 890.13518 0.000644835
1842 1437.91427 890.20812 0.000542851
2203 1550.94381 890.28106 0.000453852
2629 1719.86224 890.35398 0.000380429
3175 2010.88268 890.4269 0.000314929
3885 2571.63401 890.4998 0.000257398
4936 3671.22247 890.57269 0.000202574
6498 5676.83111 890.64557 0.000153894
8769 8893.01915 890.71843 0.000114045
12035 13273.33804 890.79129 0.000083097
15729 18126.19458 890.86414 0.000063572
18972 21985.30025 890.93697 0.000052708
21308 23329.41604 891.00979 0.000046932
21969 22228.33261 891.08261 0.000045518
18812 19829.59974 891.15541 0.000053155
14842 16682.06218 891.2282 0.000067374
12329 12991.99824 891.30097 0.000081104
9523 9374.23141 891.37374 0.000105
6126 6409.04342 891.44649 0.000163234
3815 4299.52192 891.51924 0.000262087
2595 2972.85381 891.59197 0.000385374
1957 2220.12197 891.66469 0.00051094
1569 1816.6302 891.7374 0.000637368
1486 1595.65166 891.8101 0.000672901
1363 1461.71211 891.88279 0.000733629
1342 1369.68635 891.95547 0.000745291
1277 1300.46256 892.02813 0.000782872
1196 1245.79828 892.10079 0.000836277
1227 1201.53224 892.17343 0.000814929
1225 1165.11747 892.24606 0.000816327
1101 1134.79452 892.31868 0.000908337
1137 1109.2791 892.39129 0.000879478
1125 1087.60916 892.46388 0.000888943
1105 1069.05158 892.53647 0.000905061
1033 1053.0397 892.60904 0.000968073
1045 1039.13021 892.68161 0.000956728
1051 1026.9721 892.75416 0.000951424
1033 1016.28466 892.8267 0.000968073
1038 1006.84123 892.89923 0.000963272
990 998.45721 892.97175 0.001010375
958 990.98093 893.04425 0.001043948
949 984.28699 893.11675 0.001053456
968 978.27091 893.18923 0.001033237
972 972.84503 893.2617 0.001028603
957 967.93548 893.33417 0.001044623
972 963.47957 893.40662 0.001028603
959 959.42383 893.47905 0.0010426
928 955.72245 893.55148 0.001077805
943 952.33602 893.6239 0.001060328
953 949.23042 893.6963 0.001049365
945 946.37605 893.76869 0.00105826
950 943.74712 893.84107 0.001052773
958 941.32104 893.91344 0.001043948
958 939.07798 893.9858 0.001043948
918 937.00051 894.05815 0.001089218
920 935.07321 894.13048 0.001087064
918 933.28238 894.20281 0.001089218
949 931.61589 894.27512 0.001053456
936 930.06293 894.34742 0.001068664
901 928.6138 894.41971 0.001109631
927 927.25985 894.49199 0.001078513
927 925.99331 894.56426 0.001078513
909 924.80715 894.63651 0.001100083
893 923.69509 894.70876 0.001120054
875 922.6514 894.78099 0.001142888
872 921.67093 894.85321 0.001146762
855 920.74899 894.92542 0.001169621
880 919.88131 894.99762 0.001136731
914 919.06402 895.06981 0.001094268
879 918.29357 895.14198 0.001137498
909 917.56673 895.21415 0.001100083
907 916.88054 895.2863 0.001102275
910 916.23228 895.35844 0.001098625
923 915.61948 895.43057 0.001083489
912 915.03983 895.50269 0.001096443
881 914.49123 895.57479 0.0011352
886 913.97174 895.64689 0.001128346
877 913.47956 895.71897 0.001140573
854 913.01303 895.79104 0.001171223
861 912.57063 895.86311 0.001161662
889 912.15093 895.93515 0.001124565
906 911.75262 896.00719 0.001103741
893 911.37446 896.07922 0.001120054
923 911.01533 896.15123 0.001083489
902 910.67416 896.22323 0.001108892
903 910.34998 896.29523 0.001107417
899 910.04185 896.36721 0.001112594
906 909.74893 896.43917 0.001103741
891 909.47041 896.51113 0.001122306
874 909.20553 896.58308 0.001144435
875 908.95361 896.65501 0.001142888
869 908.71399 896.72693 0.001150655
867 908.48604 896.79884 0.001153784
841 908.2692 896.87074 0.001189061
843 908.06291 896.94263 0.001186604
881 907.86667 897.0145 0.0011352
885 907.68 897.08637 0.001129864
869 907.50245 897.15822 0.001150655
884 907.3336 897.23006 0.001131384
946 907.17303 897.30189 0.001056884
915 907.02038 897.37371 0.001092822
890 906.87529 897.44552 0.001123812
856 906.73743 897.51731 0.001168023
832 906.60646 897.58909 0.001202291
873 906.4821 897.66087 0.00114521
896 906.36406 897.73263 0.001116315
830 906.25207 897.80437 0.001204796
883 906.14587 897.87611 0.001132146
858 906.04522 897.94784 0.001165631
883 905.94989 898.01955 0.001132146
876 905.85967 898.09125 0.001141344
832 900.82351 898.16294 0.001202291
958 900.84071 898.23462 0.001043948
891 900.85956 898.30629 0.001122306
871 900.87999 898.37794 0.001148316
892 898.44959 898.44959 0.001120804
852 898.52122 898.52122 0.001173632
904 898.59284 898.59284 0.001105944
949 898.66445 898.66445 0.001053456
873 898.73604 898.73604 0.00114521
926 898.80763 898.80763 0.001079931
955 898.8792 898.8792 0.001047329
1025 898.95076 898.95076 0.000975343
1096 899.02231 899.02231 0.000912182
1164 899.09385 899.09385 0.000858978
1162 899.16538 899.16538 0.00086049
1159 899.23689 899.23689 0.00086302
1130 899.3084 899.3084 0.000884717
1093 899.37989 899.37989 0.000914944
1042 899.45137 899.45137 0.000959694
1029 899.52284 899.52284 0.000971698
1016 899.59429 899.59429 0.000984546
1018 899.66574 899.66574 0.000982079
1075 899.73717 899.73717 0.000930073
1111 899.80859 899.80859 0.00090018
1073 899.88 899.88 0.000931777
1017 899.9514 899.9514 0.000983311
984 900.02279 900.02279 0.001016181
961 900.09416 900.09416 0.001040583
927 900.16553 900.16553 0.001078513
869 900.23688 900.23688 0.001150655
852 900.30822 900.30822 0.001173632
863 900.37954 900.37954 0.001158501
886 900.45086 900.45086 0.001128346
895 900.52216 900.52216 0.001117061
843 900.59346 900.59346 0.001186604
909 900.66474 900.66474 0.001100083
886 900.736 900.736 0.001128346
841 900.80726 900.80726 0.001189061
846 900.87851 900.87851 0.001181714
890 900.94974 900.94974 0.001123812
878 901.02096 901.02096 0.001139034
884 901.09217 901.09217 0.001131384
919 901.16337 901.16337 0.001087781
890 901.23456 901.23456 0.001123812
856 901.30573 901.30573 0.001168023
876 901.37689 901.37689 0.001141344
838 901.44804 901.44804 0.001193171
859 901.51918 901.51918 0.001164041
796 901.59031 901.59031 0.001256591
854 901.66142 901.66142 0.001171223
865 901.73253 901.73253 0.001156139
785 901.80362 901.80362 0.00127369
830 901.8747 901.8747 0.001204796
885 901.94577 901.94577 0.001129864
863 902.01682 902.01682 0.001158501
888 902.08787 902.08787 0.001126075
873 902.1589 902.1589 0.00114521
894 902.22992 902.22992 0.001118556
912 902.30093 902.30093 0.001096443
898 902.39034 902.37193 0.001113337
876 902.46187 902.44291 0.001141344
860 902.53341 902.51388 0.001162454
850 902.60497 902.58484 0.001176855
842 902.67654 902.65579 0.001187422
848 902.75758 902.72673 0.001179281
868 902.82947 902.79766 0.001152218
880 902.90139 902.86857 0.001136731
880 902.97335 902.93947 0.001136731
859 903.04535 903.01036 0.001164041
842 903.1174 903.08124 0.001187422
877 903.18949 903.15211 0.001140573
912 903.26164 903.22296 0.001096443
908 903.33384 903.2938 0.001101544
901 903.4061 903.36463 0.001109631
888 903.47843 903.43545 0.001126075
912 903.55083 903.50626 0.001096443
920 903.62331 903.57705 0.001087064
912 903.69587 903.64783 0.001096443
867 903.76853 903.7186 0.001153784
856 903.84129 903.78936 0.001168023
863 903.91415 903.86011 0.001158501
919 903.98714 903.93084 0.001087781
932 904.06027 904.00157 0.001072868
900 904.13353 904.07228 0.001111111
879 904.20696 904.14298 0.001137498
894 904.28056 904.21366 0.001118556
908 904.35435 904.28434 0.001101544
914 904.42835 904.355 0.001094268
888 904.50258 904.42565 0.001126075
918 904.57708 904.49629 0.001089218
888 904.65185 904.56692 0.001126075
916 904.72695 904.63753 0.001091378
936 904.80239 904.70814 0.001068664
963 904.87823 904.77873 0.001038572
910 904.9545 904.84931 0.001098625
920 905.03127 904.91987 0.001087064
916 905.10859 904.99043 0.001091378
957 905.18653 905.06097 0.001044623
975 905.26518 905.1315 0.001025969
1011 905.34464 905.20202 0.000988885
1006 905.425 905.27253 0.000993879
1063 905.50641 905.34302 0.000940946
1135 905.58903 905.41351 0.000881045
1225 905.67303 905.48398 0.000816327
1268 905.75866 905.55444 0.000788599
1362 905.84617 905.62488 0.000734027
1368 905.9359 905.69532 0.000730855
1312 906.02825 905.76574 0.00076226
1262 906.12373 905.83615 0.0007926
1196 906.22296 905.90655 0.000836277
1149 906.32673 905.97693 0.000870163
1116 915.64351 906.04731 0.000895874
1065 916.03413 906.11767 0.000939217
1056 916.44577 906.18802 0.000946746
1053 916.88145 906.25836 0.000949665
1030 921.91747 906.32869 0.000971092
1056 922.55005 906.399 0.000946746
1049 923.22933 906.4693 0.000953187
1024 923.96796 906.53959 0.000976562
1025 924.79151 906.60987 0.000975343
1065 931.24643 906.68013 0.000939217
1042 932.6656 906.75039 0.000959694
1018 934.67652 906.82063 0.000982079
1043 937.77248 906.89086 0.000958506
998 942.54414 906.96108 0.001002076
997 952.14863 907.03128 0.001002711
988 960.69501 907.10147 0.001012305
1011 969.38799 907.17165 0.000988885
1028 975.58224 907.24182 0.000972911
1033 977.40419 907.31198 0.000968073
1038 976.09376 907.38212 0.000963272
1049 973.86398 907.45226 0.000953187
1051 971.33061 907.52238 0.000951424
992 968.08079 907.59248 0.001007811
1025 964.49327 907.66258 0.000975343
1040 961.53785 907.73266 0.000961481
974 959.80087 907.80273 0.001026626
1004 959.39237 907.87279 0.000995762
1005 960.1112 907.94284 0.000995134
1002 961.63772 908.01287 0.00099828
1048 963.69442 908.0829 0.000954365
1064 966.11061 908.15291 0.000939793
1054 968.80874 908.22291 0.000948496
1047 971.76675 908.29289 0.000954955
1097 974.9893 908.36287 0.000911632
1142 978.49356 908.43283 0.000875838
1182 982.30388 908.50278 0.000846035
1174 986.45051 908.57271 0.000851972
1282 990.9696 908.64264 0.000779815
1270 995.90384 908.71255 0.000787272
1279 1001.30342 908.78245 0.000781997
1344 1007.2273 908.85234 0.000744072
1326 1013.7449 908.92222 0.000754325
1316 1020.93822 908.99208 0.000759741
1267 1028.90444 909.06193 0.000789485
1199 1037.75957 909.13177 0.000833864
1156 1047.64271 909.2016 0.000865052
1148 1058.72185 909.27141 0.000871191
1153 1071.20142 909.34122 0.000867091
1109 1085.33208 909.41101 0.000901803
1121 1101.42417 909.48078 0.000892132
1107 1119.86534 909.55055 0.00090343
1108 1141.14512 909.6203 0.000902345
1194 1165.88923 909.69005 0.00083773
1182 1194.90726 909.75977 0.000846035
1208 1229.2625 909.82949 0.000827638
1271 1270.37521 909.8992 0.00078683
1317 1320.19052 909.96889 0.000759322
1497 1381.51076 910.03857 0.00066804
1607 1458.85982 910.10823 0.000622197
1743 1561.10078 910.17789 0.000573703
2081 1708.9538 910.24753 0.000480496
2558 1952.83498 910.31716 0.000390879
3159 2403.9412 910.38678 0.000316612
4045 3264.53987 910.45639 0.000247221
5187 4812.03716 910.52598 0.000192794
6913 7280.5525 910.59556 0.00014467
9261 10643.53094 910.66513 0.000107989
12070 14387.59664 910.73469 0.000082855
14553 17397.66206 910.80423 0.00006871
16808 18459.9683 910.87377 0.000059492
17219 17649.20178 910.94329 0.000058076
15767 16149.60119 911.01279 0.00006342
13965 14711.31459 911.08229 0.000071612
13024 13326.92503 911.15177 0.000076785
12629 12029.9738 911.22124 0.000079181
12427 11299.23022 911.2907 0.000080465
11809 11427.29391 911.36014 0.00008468
11805 12134.72167 911.42958 0.000084711
12346 12619.8953 911.499 0.000081002
12543 12202.7946 911.56841 0.000079719
11608 11108.24903 911.6378 0.000086148
10025 9897.5471 911.70719 0.00009976
8470 8705.13408 911.77656 0.00011807
7301 7332.06238 911.84592 0.000136954
6121 5791.80057 911.91526 0.000163359
4695 4350.87637 911.9846 0.000212993
3340 3205.01239 912.05392 0.00029943
2439 2408.70023 912.12323 0.000409942
1929 1915.52479 912.19252 0.000518412
1604 1632.83887 912.26181 0.00062344
1440 1472.35069 912.33108 0.000694347
1334 1374.49261 912.40034 0.000749788
1237 1307.54505 912.46959 0.000808454
1222 1257.05023 912.53882 0.000818196
1211 1216.72117 912.60804 0.000825737
1147 1183.54853 912.67725 0.000871705
1109 1155.79556 912.74645 0.000901803
1057 1132.2933 912.81564 0.000946163
1035 1112.19048 912.88481 0.000966269
1005 1094.84498 912.95397 0.000995134
1024 1079.76262 913.02312 0.000976562
1047 1066.55727 913.09225 0.000954955
1027 1054.92349 913.16137 0.000973518
1018 1044.61661 913.23048 0.000982079
1009 1035.4387 913.29958 0.000991377
992 1027.22811 913.36867 0.001007811
1033 1019.8516 913.43774 0.000968073
967 1013.19854 913.5068 0.001033902
959 1007.17631 913.57585 0.0010426
966 1001.70692 913.64488 0.001035233
932 996.72428 913.71391 0.001072868
938 992.17197 913.78292 0.001065874
975 988.00172 913.85191 0.001025969
915 984.17186 913.9209 0.001092822
904 980.64637 913.98987 0.001105944
926 977.39392 914.05883 0.001079931
914 974.38717 914.12778 0.001094268
965 971.60216 914.19671 0.001036566
957 969.00915 914.26564 0.001044623
917 966.60699 914.33455 0.001090657
926 964.37041 914.40344 0.001079931
932 962.28476 914.47233 0.001072868
936 960.337 914.5412 0.001068664
919 958.51126 914.61006 0.001087781
935 956.80568 914.67891 0.001069363
937 955.20656 914.74774 0.001067268
918 953.70547 914.81656 0.001089218
918 952.2948 914.88537 0.001089218
916 950.96769 914.95417 0.001091378
902 949.71791 915.02296 0.001108892
911 948.5398 915.09173 0.001097897
907 947.42822 915.16049 0.001102275
931 946.37848 915.22923 0.001074275
937 945.3863 915.29797 0.001067268
921 944.44778 915.36669 0.001085632
933 943.55933 915.4354 0.001071464
945 942.71765 915.50409 0.00105826
952 941.91974 915.57278 0.001050726
874 941.16281 915.64145 0.001144435
870 940.4443 915.71011 0.001149095
898 939.76185 915.77875 0.001113337
923 939.11327 915.84739 0.001083489
898 938.49655 915.91601 0.001113337
929 937.90982 915.98461 0.001076391
924 937.35134 916.05321 0.001082064
922 936.8195 916.12179 0.001084917
862 936.3128 916.19036 0.00116008
883 935.82986 916.25892 0.001132146
937 935.36938 916.32746 0.001067268
889 934.93014 916.396 0.001124565
941 934.51101 916.46452 0.001062403
970 934.11095 916.53302 0.001031247
888 933.72896 916.60152 0.001126075
902 933.36413 916.67 0.001108892
967 933.01558 916.73847 0.001033902
975 932.68252 916.80692 0.001025969
942 932.36417 916.87537 0.001061711
969 932.05982 916.9438 0.00103191
956 931.76881 917.01222 0.001045974
927 931.49049 917.08062 0.001078513
946 931.22428 917.14901 0.001056884
928 930.96962 917.21739 0.001077805
913 930.72597 917.28576 0.001094992
864 930.49285 917.35411 0.001157713
884 930.26977 917.42246 0.001131384
903 930.0563 917.49079 0.001107417
902 929.85201 917.5591 0.001108892
901 929.65651 917.62741 0.001109631
865 929.46942 917.6957 0.001156139
853 929.29039 917.76397 0.001172025
866 924.92677 917.83224 0.001154568
887 924.84417 917.90049 0.001127588
889 924.76633 917.96873 0.001124565
887 924.69304 918.03696 0.001127588
890 922.51828 918.10517 0.001123812
892 922.49448 918.17338 0.001120804
875 922.47351 918.24156 0.001142888
863 922.45527 918.30974 0.001158501
888 922.43963 918.3779 0.001126075
887 922.42649 918.44606 0.001127588
874 919.88977 918.51419 0.001144435
895 919.93017 918.58232 0.001117061
887 919.97139 918.65043 0.001127588
887 920.01339 918.71853 0.001127588
882 918.78662 918.78662 0.001133671
870 918.85469 918.85469 0.001149095
876 918.92275 918.92275 0.001141344
871 918.9908 918.9908 0.001148316
870 919.05884 919.05884 0.001149095
880 920.10273 919.12686 0.001136731
878 920.19924 919.19487 0.001139034
884 920.29699 919.26286 0.001131384
897 920.39607 919.33085 0.001114824
966 920.49656 919.39882 0.001035233
904 921.09051 919.46678 0.001105944
862 921.20852 919.53472 0.00116008
934 921.32887 919.60266 0.001070763
896 921.4517 919.67058 0.001116315
857 921.57719 919.73848 0.001167225
893 921.7055 919.80638 0.001120054
904 922.81515 919.87426 0.001105944
886 922.97854 919.94213 0.001128346
880 923.14667 920.00998 0.001136731
869 923.31986 920.07783 0.001150655
874 923.9773 920.14566 0.001144435
908 924.17566 920.21347 0.001101544
849 924.38085 920.28128 0.001177663
837 924.59335 920.34907 0.001194822
865 924.8137 920.41685 0.001156139
841 925.04248 920.48461 0.001189061
859 925.28034 920.55237 0.001164041
870 925.52798 920.62011 0.001149095
874 925.78618 920.68783 0.001144435
908 926.05577 920.75555 0.001101544
881 926.33771 920.82325 0.0011352
849 926.63303 920.89094 0.001177663
867 926.94289 920.95861 0.001153784
879 927.26856 921.02627 0.001137498
879 927.61147 921.09392 0.001137498
867 927.97321 921.16156 0.001153784
855 928.35555 921.22918 0.001169621
859 928.76051 921.29679 0.001164041
846 929.19032 921.36439 0.001181714
843 929.64753 921.43198 0.001186604
860 930.13501 921.49955 0.001162454
873 930.65602 921.56711 0.00114521
887 931.21429 921.63465 0.001127588
868 931.81409 921.70219 0.001152218
879 932.46031 921.76971 0.001137498
913 933.15862 921.83721 0.001094992
947 933.91556 921.90471 0.001056197
912 934.73876 921.97219 0.001096443
878 935.63717 922.03966 0.001139034
914 936.62132 922.10711 0.001094268
900 937.70366 922.17455 0.001111111
919 938.89903 922.24198 0.001087781
951 940.22527 922.3094 0.001051408
906 941.70389 922.3768 0.001103741
931 943.36113 922.44419 0.001074275
904 945.22923 922.51157 0.001105944
931 947.34818 922.57893 0.001074275
877 949.76808 922.64628 0.001140573
972 952.55247 922.71362 0.001028603
910 955.78289 922.78095 0.001098625
853 959.5654 922.84826 0.001172025
944 964.04025 922.91556 0.001059638
873 969.39678 922.98284 0.00114521
900 975.90038 923.05012 0.001111111
943 983.95558 923.11738 0.001060328
918 994.28839 923.18462 0.001089218
974 1008.48206 923.25186 0.001026626
1030 1030.33857 923.31908 0.000971092
1023 1068.54623 923.38629 0.000977784
1145 1140.05998 923.45348 0.000873251
1274 1270.83501 923.52066 0.000785067
1408 1488.10266 923.58783 0.000710353
1656 1801.43277 923.65499 0.000603983
1992 2178.8056 923.72213 0.000502049
2366 2527.84193 923.78926 0.000422681
2601 2711.70708 923.85637 0.000384468
2715 2674.3701 923.92348 0.000368263
2615 2522.71685 923.99057 0.000382365
2385 2381.85445 924.05764 0.000419226
2287 2289.79621 924.12471 0.000437301
2348 2220.52279 924.19176 0.000425827
2356 2178.9109 924.25879 0.000424425
2334 2222.686 924.32582 0.000428475
2456 2379.08859 924.39283 0.000407134
2644 2596.9909 924.45983 0.000378212
2797 2747.36575 924.52681 0.000357481
2881 2716.01077 924.59379 0.000347166
2726 2545.04374 924.66074 0.000366853
2390 2354.84378 924.72769 0.000418369
2167 2197.88757 924.79462 0.000461488
2046 2039.36602 924.86154 0.000488818
1849 1834.15164 924.92845 0.000540833
1642 1603.4562 924.99534 0.000609061
1395 1394.10629 925.06222 0.000716834
1162 1233.10692 925.12909 0.00086049
1086 1125.1976 925.19594 0.000921063
1019 1060.46295 925.26278 0.000981464
901 1023.96031 925.32961 0.001109631
902 1003.07858 925.39642 0.001108892
885 990.0068 925.46322 0.001129864
909 980.82856 925.53001 0.001100083
860 973.80879 925.59679 0.001162454
894 968.18037 925.66355 0.001118556
878 963.55502 925.7303 0.001139034
879 959.69613 925.79703 0.001137498
840 956.43989 925.86375 0.001190702
914 953.6658 925.93046 0.001094268
859 951.2827 925.99716 0.001164041
840 949.22032 926.06384 0.001190702
917 947.42377 926.13051 0.001090657
898 945.84961 926.19716 0.001113337
853 944.46302 926.2638 0.001172025
824 943.23589 926.33043 0.001213203
837 942.14525 926.39705 0.001194822
830 941.17218 926.46365 0.001204796
842 940.30098 926.53024 0.001187422
863 939.51852 926.59682 0.001158501
863 938.81376 926.66338 0.001158501
840 938.17734 926.72993 0.001190702
857 937.60128 926.79647 0.001167225
882 937.07876 926.86299 0.001133671
886 936.60391 926.9295 0.001128346
866 936.17163 926.996 0.001154568
853 935.77752 927.06248 0.001172025
851 935.41772 927.12895 0.001175242
846 935.08887 927.19541 0.001181714
851 934.788 927.26185 0.001175242
867 934.5125 927.32828 0.001153784
867 934.26005 927.3947 0.001153784
866 934.0286 927.4611 0.001154568
885 933.81633 927.52749 0.001129864
849 933.62161 927.59387 0.001177663
853 933.44297 927.66023 0.001172025
890 933.27911 927.72658 0.001123812
886 933.12885 927.79292 0.001128346
853 932.99113 927.85924 0.001172025
850 932.86498 927.92555 0.001176855
860 932.74955 927.99185 0.001162454
844 932.65912 928.05813 0.001184971
831 932.56325 928.1244 0.001203125
837 932.47595 928.19066 0.001194822
868 932.39663 928.25691 0.001152218
857 932.32474 928.32314 0.001167225
877 932.26732 928.38935 0.001140573
842 932.20906 928.45556 0.001187422
862 932.15688 928.52175 0.00116008
835 932.11039 928.58792 0.001197304
854 932.06924 928.65409 0.001171223
856 932.0331 928.72024 0.001168023
839 932.00166 928.78637 0.001191525
878 931.97467 928.8525 0.001139034
885 931.95185 928.91861 0.001129864
823 931.93297 928.9847 0.001214895
787 931.91782 929.05079 0.001270967
840 931.90618 929.11686 0.001190702
851 931.89788 929.18291 0.001175242
865 931.89274 929.24896 0.001156139
851 931.8906 929.31499 0.001175242
840 931.8913 929.381 0.001190702
829 931.89472 929.44701 0.00120647
846 931.90071 929.513 0.001181714
828 931.90917 929.57897 0.001208148
846 931.91998 929.64493 0.001181714
849 931.93304 929.71088 0.001177663
854 931.94826 929.77682 0.001171223
856 931.96555 929.84274 0.001168023
836 931.98484 929.90865 0.001196476
839 932.00605 929.97455 0.001191525
850 932.02913 930.04043 0.001176855
839 932.05401 930.1063 0.001191525
835 932.08065 930.17215 0.001197304
818 932.109 930.23799 0.001222554
826 932.13904 930.30382 0.001210672
865 932.17073 930.36963 0.001156139
842 932.20406 930.43544 0.001187422
858 932.23903 930.50122 0.001165631
903 932.27562 930.567 0.001107417
878 932.31386 930.63276 0.001139034
829 931.90528 930.69851 0.00120647
839 931.95547 930.76424 0.001191525
839 932.00719 930.82996 0.001191525
844 932.06052 930.89567 0.001184971
841 931.88818 930.96136 0.001189061
880 931.94947 931.02704 0.001136731
861 932.01268 931.09271 0.001161662
829 932.07802 931.15836 0.00120647
878 932.14579 931.224 0.001139034
859 932.21632 931.28962 0.001164041
872 931.84604 931.35523 0.001146762
850 931.93206 931.42083 0.001176855
851 932.02231 931.48642 0.001175242
805 932.11773 931.55199 0.001242457
897 932.21954 931.61755 0.001114824
909 932.10845 931.68309 0.001100083
855 932.2326 931.74862 0.001169621
801 932.36974 931.81414 0.001248611
831 932.52419 931.87964 0.001203125
867 932.70294 931.94513 0.001153784
831 932.91967 932.01061 0.001203125
866 933.20596 932.07607 0.001154568
913 933.63729 932.14152 0.001094992
849 934.3775 932.20696 0.001177663
866 935.72103 932.27238 0.001154568
860 938.06844 932.33779 0.001162454
827 941.75557 932.40318 0.001208989
845 946.73806 932.46857 0.001183341
870 952.25192 932.53393 0.001149095
865 956.61251 932.59929 0.001156139
864 957.91101 932.66463 0.001157713
879 956.20769 932.72996 0.001137498
862 953.51747 932.79527 0.00116008
852 951.33695 932.86057 0.001173632
896 949.6887 932.92586 0.001116315
894 947.62803 932.99113 0.001118556
854 944.72709 933.05639 0.001171223
827 941.58235 933.12163 0.001208989
827 938.86142 933.18686 0.001208989
876 936.87395 933.25208 0.001141344
882 935.61941 933.31729 0.001133671
856 934.91963 933.38248 0.001168023
836 934.56156 933.44765 0.001196476
862 934.38435 933.51282 0.00116008
881 934.29568 933.57797 0.0011352
866 934.25156 933.6431 0.001154568
850 934.23289 933.70823 0.001176855
793 934.23103 933.77333 0.001261057
838 934.24139 933.83843 0.001193171
843 934.26108 933.90351 0.001186604
857 934.28807 933.96858 0.001167225
839 934.32086 934.03363 0.001191525
834 934.35831 934.09867 0.001198963
853 934.39957 934.1637 0.001172025
864 934.44395 934.22871 0.001157713
894 934.49092 934.29371 0.001118556
885 934.54006 934.3587 0.001129864
884 934.59104 934.42367 0.001131384
888 934.64356 934.48863 0.001126075
823 934.69741 934.55357 0.001214895
884 934.75241 934.6185 0.001131384
880 934.80839 934.68342 0.001136731
867 934.86522 934.74832 0.001153784
892 934.9228 934.81321 0.001120804
909 934.98103 934.87809 0.001100083
874 935.03984 934.94295 0.001144435
852 935.09915 935.0078 0.001173632
893 935.15891 935.07263 0.001120054
875 935.21907 935.13745 0.001142888
864 935.27959 935.20226 0.001157713
853 935.34042 935.26705 0.001172025
868 935.40154 935.33183 0.001152218
884 935.46291 935.3966 0.001131384
838 935.5245 935.46135 0.001193171
859 935.58631 935.52609 0.001164041
886 935.6483 935.59081 0.001128346
876 935.71046 935.65552 0.001141344
888 935.77277 935.72022 0.001126075
939 935.83522 935.7849 0.001065179
925 935.8978 935.84957 0.001081352
897 935.96049 935.91422 0.001114824
973 936.02328 935.97887 0.001027944
988 936.08617 936.04349 0.001012305
962 936.14915 936.10811 0.001039241
967 936.2122 936.17271 0.001033902
883 936.27533 936.23729 0.001132146
873 936.33852 936.30187 0.00114521
889 936.40177 936.36642 0.001124565
880 936.46508 936.43097 0.001136731
935 936.52844 936.4955 0.001069363
886 936.59184 936.56002 0.001128346
880 936.65528 936.62452 0.001136731
851 936.71877 936.68901 0.001175242
836 936.78228 936.75348 0.001196476
863 936.84583 936.81795 0.001158501
853 936.90941 936.88239 0.001172025
839 936.97302 936.94683 0.001191525
872 937.03664 937.01125 0.001146762
853 937.10029 937.07565 0.001172025
863 937.16396 937.14005 0.001158501
874 937.22765 937.20442 0.001144435
905 937.29135 937.26879 0.001105209
809 937.35507 937.33314 0.001236348
837 937.4188 937.39748 0.001194822
843 937.48254 937.4618 0.001186604
875 937.54629 937.52611 0.001142888
813 937.61004 937.5904 0.001230285
868 937.67381 937.65468 0.001152218
837 937.73758 937.71895 0.001194822
848 937.80136 937.7832 0.001179281
848 937.86514 937.84744 0.001179281
861 937.92892 937.91167 0.001161662
881 937.99271 937.97588 0.0011352
858 938.0565 938.04008 0.001165631
872 938.12029 938.10426 0.001146762
830 938.18407 938.16843 0.001204796
838 938.24786 938.23259 0.001193171
827 938.31165 938.29673 0.001208989
838 938.37544 938.36086 0.001193171
870 938.43922 938.42497 0.001149095
872 938.503 938.48907 0.001146762
851 938.56678 938.55316 0.001175242
853 938.63055 938.61723 0.001172025
882 938.69432 938.68129 0.001133671
849 938.75808 938.74533 0.001177663
836 938.82184 938.80936 0.001196476
873 938.88559 938.87337 0.00114521
846 938.94934 938.93738 0.001181714
850 939.01308 939.00136 0.001176855
849 939.07682 939.06534 0.001177663
822 939.14055 939.1293 0.001216591
854 939.20427 939.19325 0.001171223
836 939.26798 939.25718 0.001196476
840 939.32487 939.3211 0.001190702
860 939.38869 939.385 0.001162454
895 939.45251 939.44889 0.001117061
871 939.51632 939.51276 0.001148316
882 939.58011 939.57663 0.001133671
866 939.64047 939.64047 0.001154568
908 939.70431 939.70431 0.001101544
893 939.76813 939.76813 0.001120054
892 939.83193 939.83193 0.001120804
856 939.89573 939.89573 0.001168023
848 939.9595 939.9595 0.001179281
839 940.02327 940.02327 0.001191525
846 940.08702 940.08702 0.001181714
891 940.15075 940.15075 0.001122306
869 940.21447 940.21447 0.001150655
935 940.27818 940.27818 0.001069363
901 940.34187 940.34187 0.001109631
838 940.40555 940.40555 0.001193171
868 940.46922 940.46922 0.001152218
853 940.53287 940.53287 0.001172025
907 940.59651 940.59651 0.001102275
907 940.66013 940.66013 0.001102275
863 940.72374 940.72374 0.001158501
831 940.78733 940.78733 0.001203125
839 940.85091 940.85091 0.001191525
857 940.91448 940.91448 0.001167225
865 940.97803 940.97803 0.001156139
842 941.04157 941.04157 0.001187422
848 941.10509 941.10509 0.001179281
829 941.1686 941.1686 0.00120647
836 941.2321 941.2321 0.001196476
878 941.29558 941.29558 0.001139034
889 941.35905 941.35905 0.001124565
839 941.4225 941.4225 0.001191525
816 941.48594 941.48594 0.001225123
847 941.54937 941.54937 0.001180902
850 941.61278 941.61278 0.001176855
843 941.67617 941.67617 0.001186604
853 941.73956 941.73956 0.001172025
852 941.80293 941.80293 0.001173632
859 941.86628 941.86628 0.001164041
882 941.92962 941.92962 0.001133671
899 941.99295 941.99295 0.001112594
901 942.05626 942.05626 0.001109631
854 942.11955 942.11955 0.001171223
893 942.18284 942.18284 0.001120054
899 942.24611 942.24611 0.001112594
913 942.30936 942.30936 0.001094992
1001 942.3726 942.3726 0.000998912
968 942.43583 942.43583 0.001033237
949 942.49904 942.49904 0.001053456
939 942.56224 942.56224 0.001065179
925 942.62542 942.62542 0.001081352
948 942.68859 942.68859 0.001054826
926 942.75175 942.75175 0.001079931
940 942.81489 942.81489 0.001063789
901 942.87802 942.87802 0.001109631
857 942.94113 942.94113 0.001167225
901 943.00423 943.00423 0.001109631
899 943.06731 943.06731 0.001112594
910 943.13038 943.13038 0.001098625
881 943.19344 943.19344 0.0011352
885 943.25648 943.25648 0.001129864
865 943.31951 943.31951 0.001156139
851 943.38252 943.38252 0.001175242
870 943.44552 943.44552 0.001149095
881 943.5085 943.5085 0.0011352
886 943.57147 943.57147 0.001128346
866 943.63443 943.63443 0.001154568
879 943.69737 943.69737 0.001137498
877 943.7603 943.7603 0.001140573
835 943.82321 943.82321 0.001197304
822 943.88611 943.88611 0.001216591
842 943.949 943.949 0.001187422
870 944.01187 944.01187 0.001149095
852 944.07472 944.07472 0.001173632
854 944.13756 944.13756 0.001171223
872 944.20039 944.20039 0.001146762
859 944.2632 944.2632 0.001164041
847 944.326 944.326 0.001180902
867 944.38879 944.38879 0.001153784
892 944.45156 944.45156 0.001120804
866 944.51431 944.51431 0.001154568
856 944.57705 944.57705 0.001168023
876 944.63978 944.63978 0.001141344
873 944.70249 944.70249 0.00114521
875 944.76519 944.76519 0.001142888
864 944.82788 944.82788 0.001157713
859 944.89054 944.89054 0.001164041
882 944.9532 944.9532 0.001133671
861 945.01584 945.01584 0.001161662
872 945.07847 945.07847 0.001146762
878 945.14108 945.14108 0.001139034
881 945.20368 945.20368 0.0011352
911 945.26626 945.26626 0.001097897
941 945.32883 945.32883 0.001062403
1010 945.39138 945.39138 0.00099013
996 945.45392 945.45392 0.001003982
1052 945.51645 945.51645 0.000950837
997 945.57896 945.57896 0.001002711
1007 945.64146 945.64146 0.000993253
1049 945.70394 945.70394 0.000953187
982 945.76641 945.76641 0.001018127
949 945.82886 945.82886 0.001053456
1011 945.8913 945.8913 0.000988885
953 945.95373 945.95373 0.001049365
911 946.01614 946.01614 0.001097897
952 946.07853 946.07853 0.001050726
927 946.14091 946.14091 0.001078513
953 946.20328 946.20328 0.001049365
918 946.26563 946.26563 0.001089218
895 946.32797 946.32797 0.001117061
882 946.3903 946.3903 0.001133671
902 946.45261 946.45261 0.001108892
863 946.5149 946.5149 0.001158501
849 946.57718 946.57718 0.001177663
857 946.63945 946.63945 0.001167225
885 946.7017 946.7017 0.001129864
879 946.76393 946.76393 0.001137498
861 946.82616 946.82616 0.001161662
885 946.88837 946.88837 0.001129864
915 946.95056 946.95056 0.001092822
867 947.01274 947.01274 0.001153784
813 947.0749 947.0749 0.001230285
830 947.13705 947.13705 0.001204796
864 947.19919 947.19919 0.001157713
869 947.26131 947.26131 0.001150655
862 947.32342 947.32342 0.00116008
888 947.38551 947.38551 0.001126075
889 947.44758 947.44758 0.001124565
878 947.50965 947.50965 0.001139034
862 947.5717 947.5717 0.00116008
855 947.63373 947.63373 0.001169621
886 947.69575 947.69575 0.001128346
822 947.75775 947.75775 0.001216591
915 947.81974 947.81974 0.001092822
869 947.88172 947.88172 0.001150655
930 947.94368 947.94368 0.00107498
915 948.00563 948.00563 0.001092822
908 948.06756 948.06756 0.001101544
903 948.12948 948.12948 0.001107417
915 948.19706 948.19138 0.001092822
966 948.25911 948.25327 0.001035233
1033 948.32115 948.31514 0.000968073
1039 948.38319 948.377 0.000962674
1060 948.44522 948.43885 0.00094326
1042 948.50724 948.50068 0.000959694
1131 948.57211 948.56249 0.000884191
1152 948.6342 948.62429 0.000868113
1180 948.69629 948.68608 0.000847513
1153 948.75838 948.74785 0.000867091
1168 948.82047 948.80961 0.000855965
1115 948.88257 948.87135 0.000896948
1132 948.94466 948.93308 0.000883141
1129 949.00676 948.99479 0.000885771
1058 949.06887 949.05649 0.000945
1063 949.13098 949.11817 0.000940946
1037 949.19309 949.17984 0.000964469
997 949.25522 949.2415 0.001002711
973 949.31736 949.30314 0.001027944
979 949.37951 949.36476 0.001021384
938 949.44168 949.42638 0.001065874
952 949.50387 949.48797 0.001050726
954 949.56607 949.54955 0.001048007
947 949.6283 949.61112 0.001056197
907 949.69056 949.67267 0.001102275
856 949.75284 949.73421 0.001168023
839 949.81516 949.79573 0.001191525
864 949.87751 949.85724 0.001157713
902 949.93991 949.91873 0.001108892
898 950.00235 949.98021 0.001113337
888 950.06484 950.04168 0.001126075
874 950.1274 950.10313 0.001144435
900 950.19002 950.16456 0.001111111
863 950.25271 950.22598 0.001158501
871 950.31549 950.28739 0.001148316
845 950.37837 950.34878 0.001183341
924 950.44135 950.41015 0.001082064
934 950.50445 950.47151 0.001070763
879 950.56768 950.53286 0.001137498
891 950.63107 950.59419 0.001122306
889 950.69463 950.65551 0.001124565
897 950.75839 950.71681 0.001114824
895 950.82237 950.7781 0.001117061
883 950.88661 950.83937 0.001132146
861 950.95114 950.90063 0.001161662
856 951.01601 950.96187 0.001168023
880 951.08128 951.0231 0.001136731
870 951.147 951.08432 0.001149095
868 951.21325 951.14552 0.001152218
891 951.28012 951.2067 0.001122306
930 951.34773 951.26787 0.00107498
858 951.41621 951.32903 0.001165631
837 951.48574 951.39017 0.001194822
855 951.55653 951.45129 0.001169621
822 951.62885 951.5124 0.001216591
863 951.70305 951.5735 0.001158501
859 951.77958 951.63458 0.001164041
889 951.85904 951.69564 0.001124565
824 951.94223 951.7567 0.001213203
803 952.03024 951.81773 0.001245089
841 952.12463 951.87875 0.001189061
866 952.22788 951.93976 0.001154568
842 952.3447 952.00075 0.001187422
840 952.48549 952.06173 0.001190702
853 952.67469 952.12269 0.001172025
851 952.96527 952.18364 0.001175242
839 953.4539 952.24457 0.001191525
856 954.27691 952.30549 0.001168023
861 955.55968 952.3664 0.001161662
847 957.31366 952.42728 0.001180902
888 959.31379 952.48816 0.001126075
883 961.00134 952.54902 0.001132146
841 961.63063 952.60986 0.001189061
870 961.03753 952.67069 0.001149095
873 959.93139 952.7315 0.00114521
849 959.03994 952.7923 0.001177663
843 958.61386 952.85309 0.001186604
898 958.42621 952.91386 0.001113337
908 958.00541 952.97461 0.001101544
907 957.16626 953.03535 0.001102275
891 956.15185 953.09608 0.001122306
894 955.23973 953.15679 0.001118556
847 954.5662 953.21748 0.001180902
865 954.14572 953.27816 0.001156139
869 953.92257 953.33883 0.001150655
892 953.82386 953.39948 0.001120804
850 953.79247 953.46011 0.001176855
840 953.79461 953.52073 0.001190702
911 953.81377 953.58134 0.001097897
862 953.84262 953.64193 0.00116008
902 953.87784 953.70251 0.001108892
923 953.91766 953.76307 0.001083489
861 953.96098 953.82361 0.001161662
887 954.00705 953.88415 0.001127588
899 954.05529 953.94466 0.001112594
876 954.10529 954.00516 0.001141344
864 954.15672 954.06565 0.001157713
850 954.20931 954.12612 0.001176855
865 954.26288 954.18658 0.001156139
910 954.31726 954.24702 0.001098625
905 954.37233 954.30745 0.001105209
850 954.42798 954.36786 0.001176855
916 954.48412 954.42825 0.001091378
913 954.54068 954.48864 0.001094992
897 954.59761 954.549 0.001114824
896 954.65486 954.60935 0.001116315
870 954.71238 954.66969 0.001149095
927 954.77014 954.73001 0.001078513
941 954.82811 954.79032 0.001062403
982 954.88627 954.85061 0.001018127
976 954.94458 954.91089 0.001024656
957 955.00304 954.97115 0.001044623
954 955.06163 955.0314 0.001048007
954 955.12033 955.09163 0.001048007
955 955.17912 955.15185 0.001047329
939 955.23801 955.21205 0.001065179
941 955.29697 955.27223 0.001062403
947 955.35601 955.33241 0.001056197
921 955.4151 955.39256 0.001085632
888 955.47425 955.4527 0.001126075
895 955.53345 955.51283 0.001117061
910 955.59269 955.57294 0.001098625
918 955.65198 955.63304 0.001089218
898 955.71129 955.69312 0.001113337
848 955.77064 955.75319 0.001179281
852 955.83001 955.81324 0.001173632
875 955.88941 955.87327 0.001142888
873 955.94883 955.93329 0.00114521
879 956.00826 955.9933 0.001137498
911 956.06772 956.05329 0.001097897
875 956.12718 956.11327 0.001142888
887 956.18666 956.17323 0.001127588
892 956.24615 956.23317 0.001120804
933 956.30564 956.29311 0.001071464
877 956.36514 956.35302 0.001140573
895 956.42465 956.41292 0.001117061
922 956.48416 956.47281 0.001084917
922 956.54367 956.53268 0.001084917
883 956.60319 956.59253 0.001132146
880 956.6627 956.65237 0.001136731
883 956.72222 956.7122 0.001132146
860 956.78173 956.77201 0.001162454
863 956.84124 956.8318 0.001158501
862 956.90075 956.89158 0.00116008
908 956.96026 956.95135 0.001101544
931 957.01976 957.0111 0.001074275
890 957.07925 957.07083 0.001123812
882 957.13874 957.13055 0.001133671
880 957.19823 957.19025 0.001136731
878 957.25771 957.24994 0.001139034
880 957.31718 957.30962 0.001136731
888 957.37664 957.36927 0.001126075
898 957.4361 957.42892 0.001113337
888 957.49554 957.48855 0.001126075
861 957.55498 957.54816 0.001161662
839 957.61441 957.60776 0.001191525
868 957.67384 957.66734 0.001152218
867 957.73325 957.72691 0.001153784
862 957.79265 957.78646 0.00116008
869 957.85204 957.846 0.001150655
844 957.91143 957.90552 0.001184971
841 957.9708 957.96502 0.001189061
848 958.03016 958.02452 0.001179281
877 958.08951 958.08399 0.001140573
876 958.14885 958.14345 0.001141344
861 958.20818 958.2029 0.001161662
877 958.26749 958.26233 0.001140573
842 958.3268 958.32175 0.001187422
865 958.38609 958.38115 0.001156139
875 958.44537 958.44053 0.001142888
838 958.50464 958.4999 0.001193171
855 958.5639 958.55926 0.001169621
879 958.62315 958.61859 0.001137498
867 958.68238 958.67792 0.001153784
893 958.7416 958.73723 0.001120054
888 958.80081 958.79652 0.001126075
874 958.86 958.8558 0.001144435
847 958.91654 958.91506 0.001180902
920 958.97576 958.97431 0.001087064
899 959.03496 959.03354 0.001112594
891 960.27821 959.09276 0.001122306
893 960.37097 959.15196 0.001120054
914 960.46516 959.21115 0.001094268
881 960.55956 959.27032 0.0011352
917 960.6569 959.32948 0.001090657
900 961.19985 959.38862 0.001111111
917 961.89997 959.44774 0.001090657
901 962.03238 959.50685 0.001109631
932 962.16811 959.56595 0.001072868
885 962.30737 959.62503 0.001129864
896 962.45038 959.68409 0.001116315
914 962.59739 959.74314 0.001094268
959 962.97475 959.80217 0.0010426
963 963.13698 959.86119 0.001038572
908 963.30433 959.92019 0.001101544
881 963.47715 959.97918 0.0011352
911 963.65581 960.03815 0.001097897
925 963.84072 960.09711 0.001081352
907 964.03233 960.15605 0.001102275
899 964.23112 960.21498 0.001112594
931 964.43763 960.27389 0.001074275
936 964.65244 960.33279 0.001068664
921 964.87619 960.39167 0.001085632
945 965.10958 960.45053 0.00105826
958 965.35338 960.50938 0.001043948
975 965.60843 960.56821 0.001025969
1018 965.87569 960.62703 0.000982079
1093 966.15619 960.68584 0.000914944
1233 966.45108 960.74462 0.000811219
1331 966.76164 960.8034 0.000751433
1440 967.0893 960.86215 0.000694347
1542 967.43566 960.9209 0.000648453
1529 967.80248 960.97962 0.000654104
1448 968.19179 961.03833 0.000690702
1382 968.60583 961.09703 0.000723405
1325 969.04715 961.15571 0.00075474
1271 969.51862 961.21437 0.00078683
1232 970.02354 961.27302 0.000811682
1245 970.56561 961.33166 0.00080342
1210 971.14914 961.39028 0.000826211
1134 971.77901 961.44888 0.000882092
1083 972.46088 961.50747 0.000923303
1016 973.20132 961.56604 0.000984546
959 974.00793 961.6246 0.0010426
1016 974.88965 961.68314 0.000984546
909 975.85694 961.74166 0.001100083
920 976.92217 961.80017 0.001087064
920 978.10007 961.85867 0.001087064
905 979.40821 961.91715 0.001105209
912 980.86781 961.97561 0.001096443
876 982.50457 962.03406 0.001141344
930 984.34993 962.09249 0.00107498
926 986.44266 962.15091 0.001079931
932 988.83107 962.20931 0.001072868
931 991.57586 962.2677 0.001074275
926 994.75431 962.32607 0.001079931
919 998.46584 962.38443 0.001087781
951 1002.8403 962.44277 0.001051408
918 1008.04986 962.50109 0.001089218
933 1014.32795 962.5594 0.001071464
954 1022.00426 962.6177 0.001048007
952 1031.58684 962.67597 0.001050726
943 1043.9908 962.73424 0.001060328
977 1061.16669 962.79248 0.001023345
1025 1087.58069 962.85072 0.000975343
1032 1132.88496 962.90893 0.000969279
1066 1214.92857 962.96713 0.000938067
1144 1359.71693 963.02532 0.000874285
1319 1593.19311 963.08349 0.000758068
1573 1923.00702 963.14164 0.000635762
1851 2315.58673 963.19978 0.00054033
2198 2675.70254 963.2579 0.000455014
2498 2861.41183 963.31601 0.00040032
2659 2820.22657 963.3741 0.000376015
2534 2681.81816 963.43218 0.000394615
2522 2599.70403 963.49024 0.000396503
2662 2623.38388 963.54828 0.000375724
2920 2685.47954 963.60631 0.000342428
3124 2654.136 963.66433 0.000320134
2925 2463.46298 963.72232 0.000341922
2484 2181.61277 963.78031 0.000402572
2099 1915.37555 963.83827 0.000476518
1820 1720.10781 963.89623 0.000549488
1721 1590.36339 963.95416 0.000581196
1786 1485.26441 964.01208 0.000559939
1672 1377.74115 964.06999 0.000598089
1460 1273.73517 964.12788 0.00068493
1235 1186.02303 964.18575 0.000809835
1115 1120.49785 964.24361 0.000896948
1096 1076.33609 964.30145 0.000912182
988 1048.62068 964.35928 0.001012305
1013 1031.52363 964.41709 0.000987022
981 1020.47696 964.47488 0.001019428
938 1012.70596 964.53266 0.001065874
972 1006.78521 964.59043 0.001028603
942 1002.03342 964.64817 0.001061711
927 998.10871 964.70591 0.001078513
908 994.81309 964.76362 0.001101544
927 992.01412 964.82133 0.001078513
918 989.61533 964.87901 0.001089218
870 987.54345 964.93668 0.001149095
915 985.74163 964.99434 0.001092822
935 984.16509 965.05198 0.001069363
908 982.77816 965.1096 0.001101544
914 981.55204 965.16721 0.001094268
923 980.46332 965.2248 0.001083489
905 979.49273 965.28237 0.001105209
914 978.62435 965.33993 0.001094268
902 977.84486 965.39748 0.001108892
897 977.14308 965.45501 0.001114824
922 976.50956 965.51252 0.001084917
935 975.93625 965.57002 0.001069363
944 975.41628 965.6275 0.001059638
917 974.94373 965.68497 0.001090657
915 974.51349 965.74242 0.001092822
956 974.12113 965.79985 0.001045974
947 973.76279 965.85727 0.001056197
939 973.43509 965.91467 0.001065179
903 973.13506 965.97206 0.001107417
916 972.86009 966.02943 0.001091378
952 972.60788 966.08679 0.001050726
946 972.37637 966.14413 0.001056884
921 972.16374 966.20146 0.001085632
917 971.96838 966.25876 0.001090657
921 971.78882 966.31606 0.001085632
918 971.62376 966.37333 0.001089218
993 971.47205 966.4306 0.001007171
951 971.33261 966.48784 0.001051408
919 971.2045 966.54507 0.001087781
928 971.08687 966.60229 0.001077805
879 970.97892 966.65948 0.001137498
920 970.87996 966.71667 0.001087064
973 970.78933 966.77383 0.001027944
957 970.70645 966.83098 0.001044623
1000 0 0 0
1003 0 0 0
1026 0 0 0
1037 0 0 0
1132 0 0 0
1226 0 0 0
1310 0 0 0
1467 0 0 0
1652 0 0 0
1690 0 0 0
1656 0 0 0
1504 0 0 0
1324 0 0 0
1174 0 0 0
1048 0 0 0
951 0 0 0
963 0 0 0
967 0 0 0
939 0 0 0
961 0 0 0
936 0 0 0
911 0 0 0
950 0 0 0
956 0 0 0
977 0 0 0
990 0 0 0
942 0 0 0
946 0 0 0
942 0 0 0
921 0 0 0
944 0 0 0
933 0 0 0
935 0 0 0
969 0 0 0
968 0 0 0
917 0 0 0
982 0 0 0
956 0 0 0
1042 0 0 0
1009 0 0 0
1007 0 0 0
1012 0 0 0
1009 0 0 0
929 0 0 0
928 0 0 0
986 0 0 0
939 0 0 0
1001 0 0 0
1001 0 0 0
983 0 0 0
953 0 0 0
918 0 0 0
986 0 0 0
979 0 0 0
935 0 0 0
935 0 0 0
974 0 0 0
963 0 0 0
970 0 0 0
998 0 0 0
1023 0 0 0
1053 0 0 0
1098 0 0 0
1143 0 0 0
1210 0 0 0
1287 0 0 0
1348 0 0 0
1383 0 0 0
1296 0 0 0
1170 0 0 0
1145 0 0 0
1089 0 0 0
1080 0 0 0
1098 0 0 0
1062 0 0 0
1051 0 0 0
1049 0 0 0
1126 0 0 0
1218 0 0 0
1299 0 0 0
1482 0 0 0
1627 0 0 0
1744 0 0 0
1772 0 0 0
1699 0 0 0
1564 0 0 0
1366 0 0 0
1183 0 0 0
1213 0 0 0
1153 0 0 0
1092 0 0 0
1057 0 0 0
1007 0 0 0
1003 0 0 0
996 0 0 0
1019 0 0 0
979 0 0 0
978 0 0 0
1055 0 0 0
997 0 0 0
1013 0 0 0
1024 0 0 0
1005 0 0 0
971 0 0 0
979 0 0 0
946 0 0 0
926 0 0 0
1003 0 0 0
1030 0 0 0
1005 0 0 0
1000 0 0 0
978 0 0 0
986 0 0 0
1004 0 0 0
980 0 0 0
975 0 0 0
967 0 0 0
982 0 0 0
998 0 0 0
997 0 0 0
997 0 0 0
989 0 0 0
950 0 0 0
1004 0 0 0
974 0 0 0
1021 0 0 0
1054 0 0 0
978 0 0 0
1054 0 0 0
1044 0 0 0
1035 0 0 0
995 0 0 0
1035 0 0 0
1056 0 0 0
1059 0 0 0
1052 0 0 0
1067 0 0 0
1031 0 0 0
1110 0 0 0
1077 0 0 0
1149 0 0 0
1185 0 0 0
1191 0 0 0
1223 0 0 0
1301 0 0 0
1398 0 0 0
1572 0 0 0
1800 0 0 0
2087 0 0 0
2215 0 0 0
1997 0 0 0
1745 0 0 0
1580 0 0 0
1489 0 0 0
1524 0 0 0
1578 0 0 0
1617 0 0 0
1560 0 0 0
1354 0 0 0
1195 0 0 0
1130 0 0 0
1134 0 0 0
1141 0 0 0
1128 0 0 0
1104 0 0 0
1101 0 0 0
1084 0 0 0
1155 0 0 0
1154 0 0 0
1166 0 0 0
1175 976.36822 976.36822 0.000850978
1172 976.4226 976.4226 0.000853466
1109 976.47696 976.47696 0.000901803
1132 976.5313 976.5313 0.000883141
1133 976.58563 976.58563 0.000882616
1110 976.63994 976.63994 0.00090072
1069 976.69423 976.69423 0.0009352
1066 976.74851 976.74851 0.000938067
1090 976.80277 976.80277 0.000917162
1055 976.85701 976.85701 0.000947912
1078 976.91124 976.91124 0.000927808
1108 976.96545 976.96545 0.000902345
1091 977.01965 977.01965 0.000916606
1060 977.07382 977.07382 0.00094326
1049 977.12799 977.12799 0.000953187
1001 977.18213 977.18213 0.000998912
1047 977.23626 977.23626 0.000954955
1054 977.29037 977.29037 0.000948496
1054 977.34447 977.34447 0.000948496
1079 977.39855 977.39855 0.000926679
1081 977.45261 977.45261 0.000924989
1048 978.4624 977.50665 0.000954365
1087 978.54312 977.56068 0.000919946
1092 978.62496 977.6147 0.000915497
1070 978.70798 977.66869 0.000934628
1105 978.79225 977.72267 0.000905061
1134 978.87785 977.77664 0.000882092
1106 978.96486 977.83058 0.000903973
1080 979.52901 977.88451 0.000926115
1098 979.63235 977.93843 0.000910532
1103 979.73794 977.99232 0.000906697
1101 979.84592 978.0462 0.000908337
1133 979.95644 978.10007 0.000882616
1149 980.06966 978.15391 0.000870163
1115 980.18577 978.20774 0.000896948
1100 980.30496 978.26156 0.000908885
1103 980.42743 978.31535 0.000906697
1080 980.55341 978.36913 0.000926115
1081 980.68314 978.4229 0.000924989
1068 982.77531 978.47665 0.000936345
1084 982.96742 978.53038 0.000922742
1114 983.16644 978.58409 0.000897485
1083 983.37283 978.63779 0.000923303
1058 983.58712 978.69147 0.000945
1075 983.80988 978.74513 0.000930073
1116 984.04173 978.79878 0.000895874
1104 984.28335 978.85241 0.000905606
1151 985.53576 978.90603 0.000868625
1098 1010.67021 978.95962 0.000910532
1116 1011.66179 979.01321 0.000895874
1135 1012.6967 979.06677 0.000881045
1119 1013.77777 979.12032 0.000893733
1171 1014.90806 979.17385 0.000853965
1149 1016.09087 979.22736 0.000870163
1125 1017.32983 979.28086 0.000888943
1156 1030.96907 979.33434 0.000865052
1206 1032.67262 979.38781 0.000829069
1264 1034.45963 979.44125 0.000791263
1244 1036.33612 979.49468 0.000803876
1215 1038.30875 979.5481 0.000822897
1252 1040.38481 979.6015 0.000798885
1252 1042.57239 979.65488 0.000798885
1290 1044.88044 979.70824 0.000775046
1263 1047.31891 979.76159 0.000791708
1303 1049.89892 979.81492 0.000767336
1282 1052.63289 979.86823 0.000779815
1267 1055.53481 979.92153 0.000789485
1302 1058.62049 979.97481 0.000768187
1307 1061.90787 980.02807 0.000765215
1300 1065.41747 980.08132 0.000769039
1328 1069.1728 980.13455 0.000753084
1382 1073.20109 980.18776 0.000723405
1373 1077.53405 980.24096 0.00072849
1332 1082.20888 980.29414 0.00075061
1363 1087.26968 980.3473 0.000733629
1400 1092.7692 980.40045 0.000714155
1388 1098.77126 980.45358 0.000720301
1371 1105.35401 980.50669 0.000729277
1420 1112.61444 980.55979 0.000704333
1445 1120.67486 980.61287 0.000692156
1408 1129.69221 980.66593 0.000710353
1415 1142.44576 980.71898 0.000706582
1371 1154.14361 980.77201 0.000729277
1425 1167.71312 980.82502 0.000701724
1353 1183.88877 980.87801 0.000739225
1389 1204.17732 980.93099 0.000719915
1460 1231.91721 980.98396 0.00068493
1503 1274.15286 981.0369 0.000665286
1496 1344.99234 981.08983 0.000668386
1455 1462.05422 981.14274 0.000687446
1593 1642.20169 981.19563 0.000627822
1788 1892.87685 981.24851 0.00055941
1809 2190.26329 981.30137 0.000552852
2045 2463.4481 981.35422 0.000489034
2133 2598.57184 981.40705 0.000468913
2210 2534.28737 981.45986 0.000452501
2182 2352.81598 981.51265 0.000458332
2172 2179.03609 981.56543 0.000460498
2175 2088.93358 981.61819 0.000459709
2246 2097.09585 981.67093 0.000445273
2284 2166.37388 981.72366 0.000437851
2332 2222.82616 981.77636 0.00042883
2317 2206.82337 981.82906 0.000431507
2331 2133.98263 981.88173 0.000429008
2323 2061.37113 981.93439 0.000430433
2413 2034.75503 981.98703 0.000414461
2601 2085.49113 982.03966 0.000384468
2723 2242.47118 982.09227 0.000367275
3002 2539.56432 982.14486 0.000333117
3388 3009.11059 982.19743 0.000295124
3948 3657.87193 982.24999 0.000253318
4576 4433.52697 982.30253 0.000218507
5315 5208.46729 982.35505 0.000188168
5995 5761.19035 982.40756 0.000166794
6423 6115.10257 982.46005 0.000155705
6960 6685.53549 982.51252 0.000143667
8068 8107.84534 982.56498 0.000123952
10320 11030.3825 982.61742 0.000096894
14268 15905.7855 982.66984 0.000070085
20278 22641.06404 982.72225 0.000049315
29147 30144.6651 982.77463 0.000034311
39102 36060.30963 982.82701 0.000025575
44071 37426.74213 982.87936 0.000022691
39630 33685.05078 982.9317 0.000025234
28582 27729.86124 982.98402 0.000034988
19382 22664.4707 983.03632 0.000051594
15457 20023.64492 983.08861 0.000064692
16469 19806.83068 983.14088 0.000060722
20100 20734.02454 983.19313 0.000049754
23260 20751.9208 983.24537 0.000042994
22215 18532.07775 983.29758 0.000045013
16570 14798.80335 983.34979 0.000060354
10485 10901.14123 983.40197 0.000095367
6436 7691.2632 983.45414 0.000155394
4523 5430.43292 983.50629 0.000221114
3467 4015.69971 983.55842 0.000288446
2886 3194.12583 983.61054 0.00034652
2645 2729.83133 983.66264 0.000378065
2497 2450.40526 983.71472 0.00040048
2295 2260.1443 983.76679 0.00043566
2241 2122.9522 983.81884 0.000446214
2251 2019.7841 983.87087 0.000444335
2286 1941.5791 983.92288 0.000437484
2260 1883.55699 983.97488 0.000442468
2331 1843.26836 984.02686 0.000429008
2336 1820.407 984.07883 0.000428121
2431 1818.06447 984.13077 0.000411273
2473 1845.99662 984.1827 0.000404355
2602 1925.98953 984.23461 0.000384317
2771 2096.508 984.28651 0.000360885
3141 2409.07288 984.33839 0.000318422
3583 2907.51507 984.39025 0.000279079
4181 3589.55286 984.44209 0.000239182
4802 4360.26202 984.49392 0.000208225
5264 4990.11325 984.54573 0.000189988
5304 5178.57843 984.59752 0.00018853
4976 4876.1301 984.6493 0.000200969
4515 4397.83914 984.70106 0.000221509
4227 4088.53726 984.7528 0.000236541
4284 4132.0067 984.80453 0.000233443
4645 4531.42312 984.85623 0.000215312
5149 5105.82869 984.90792 0.000194194
5563 5508.54194 984.9596 0.000179738
5629 5411.94825 985.01125 0.000177636
5124 4837.08683 985.06289 0.000195172
4220 4100.80165 985.11451 0.000236978
3429 3483.5462 985.16612 0.000291607
2994 3111.93884 985.21771 0.00033397
2919 2982.33288 985.26928 0.000342555
2995 2997.60204 985.32083 0.000333848
3120 3009.49656 985.37237 0.000320478
3118 2913.29111 985.42389 0.000320708
2904 2734.87298 985.47539 0.000344337
2592 2558.65485 985.52688 0.000385828
2542 2443.09407 985.57834 0.000393364
2504 2414.04411 985.62979 0.000399361
2613 2481.43282 985.68123 0.000382665
2879 2663.02964 985.73264 0.000347295
3111 3016.24101 985.78404 0.000321398
3941 3673.64573 985.83543 0.000253722
5180 4862.25054 985.88679 0.000193062
6623 6863.68036 985.93814 0.000150996
9441 9875.43731 985.98947 0.000105931
13166 13786.54428 986.04078 0.000075957
17035 17919.52543 986.09208 0.000058701
20221 20842.40857 986.14336 0.000049454
21016 21015.32839 986.19462 0.000047582
18535 18621.79099 986.24586 0.000053955
15285 15446.29333 986.29709 0.000065426
12694 13021.95365 986.3483 0.000078774
12007 12009.51034 986.39949 0.000083279
12706 12286.57546 986.45067 0.000078704
13707 13080.54748 986.50183 0.000072952
14163 13259.64194 986.55297 0.000070605
13700 12231.76421 986.60409 0.000072989
12156 10526.72346 986.6552 0.00008227
10634 9021.26446 986.70629 0.00009404
10242 8385.40629 986.75736 0.000097643
11062 9130.94385 986.80842 0.000090393
13351 11692.30978 986.85946 0.000074896
17275 16343.89467 986.91048 0.000057891
22904 22916.41291 986.96148 0.000043661
30040 30362.67745 987.01247 0.000033289
36776 36395.64512 987.06344 0.000027192
40043 38268.57927 987.11439 0.000024973
37857 35248.42331 987.16532 0.000026415
31289 29569.19804 987.21624 0.000031959
24048 24274.84468 987.26714 0.000041586
19629 21185.71449 987.31802 0.000050948
18669 20577.77819 987.36889 0.000053568
19920 21413.62234 987.41973 0.0000502
21434 21809.89961 987.47057 0.000046657
20659 20267.11308 987.52138 0.000048407
17798 16868.1375 987.57217 0.000056185
13397 12825.02879 987.62295 0.000074638
8842 9210.57023 987.67371 0.000113101
5996 6496.17598 987.72446 0.000166794
4349 4699.34258 987.77519 0.000229917
3354 3609.66178 987.8259 0.00029819
2752 2971.65972 987.87659 0.000363365
2395 2586.18429 987.92726 0.000417515
2232 2332.53858 987.97792 0.000448105
2073 2148.05654 988.02856 0.000482397
1866 2005.62899 988.07918 0.000535837
1816 1890.5683 988.12979 0.000550778
1746 1795.46314 988.18038 0.000572605
1665 1715.66545 988.23095 0.00060073
1613 1647.93049 988.2815 0.00062003
1499 1589.86564 988.33204 0.000667005
1483 1539.20579 988.38256 0.0006743
1421 1495.46059 988.43306 0.000703586
1422 1445.76163 988.48354 0.000703213
1389 1412.07064 988.53401 0.000719915
1359 1382.1687 988.58446 0.00073602
1330 1355.49213 988.63489 0.000751845
1324 1331.58036 988.6853 0.000755155
1312 1310.05368 988.7357 0.00076226
1265 1290.5966 988.78608 0.000790373
1243 1267.26349 988.83644 0.000804332
1299 1251.2979 988.88679 0.000769893
1258 1236.72416 988.93712 0.000794836
1229 1223.38158 988.98743 0.000813535
1276 1211.13237 989.03772 0.000783749
1258 1199.8579 989.08799 0.000794836
1212 1189.45543 989.13825 0.000825262
1236 1179.83563 989.18849 0.000808914
1240 1170.92052 989.23871 0.000806618
1258 1162.64178 989.28892 0.000794836
1316 1154.93928 989.33911 0.000759741
1356 1147.75992 989.38928 0.00073762
1358 1141.05673 989.43943 0.000736419
1386 1134.78793 989.48957 0.000721463
1487 1128.91631 989.53969 0.000672552
1543 1123.40862 989.58979 0.000648122
1615 1118.23506 989.63987 0.000619105
1607 1113.36888 989.68994 0.000622197
1571 1108.78598 989.73998 0.000636404
1531 1104.46462 989.79002 0.000653101
1452 1100.38509 989.84003 0.000688529
1417 1096.52962 989.89002 0.000705831
1422 1092.88198 989.94 0.000703213
1474 1089.42743 989.98996 0.000678522
1486 1086.15254 990.03991 0.000672901
1423 1083.04504 990.08983 0.00070284
1316 1078.92283 990.13974 0.000759741
1288 1076.13847 990.18963 0.000776342
1200 1073.48995 990.23951 0.000833382
1218 1070.96861 990.28936 0.000821011
1155 1068.56646 990.3392 0.000865561
1149 1066.27617 990.38902 0.000870163
1184 1064.09093 990.43883 0.00084456
1131 1061.41553 990.48861 0.000884191
1075 1058.72908 990.53838 0.000930073
1062 1056.84623 990.58813 0.000941524
1171 1055.04536 990.63786 0.000853965
1109 1053.32184 990.68758 0.000901803
1132 1051.67136 990.73728 0.000883141
1130 1050.08994 990.78696 0.000884717
1073 1048.57384 990.83662 0.000931777
1096 1046.76553 990.88627 0.000912182
1076 1045.37629 990.9359 0.000929506
1120 1044.04244 990.98551 0.000892665
1151 1042.76115 991.0351 0.000868625
1125 1041.52976 991.08467 0.000888943
1144 1040.3458 991.13423 0.000874285
1154 1039.20692 991.18377 0.00086658
1131 1038.11095 991.23329 0.000884191
1119 1037.26431 991.2828 0.000893733
1102 1036.25375 991.33229 0.000907243
1117 1035.28051 991.38176 0.000895338
1116 1034.34289 991.43121 0.000895874
1117 1033.43928 991.48064 0.000895338
1147 1032.56817 991.53006 0.000871705
1132 1031.72815 991.57946 0.000883141
1100 1030.91786 991.62884 0.000908885
1110 1023.86386 991.67821 0.00090072
1127 1023.22695 991.72755 0.000887355
1113 1022.61324 991.77688 0.000898562
1115 1022.02177 991.82619 0.000896948
1151 1021.45167 991.87549 0.000868625
1185 1020.90207 991.92476 0.00084407
1196 1020.37219 991.97402 0.000836277
1214 1016.64898 992.02326 0.000823842
1244 1016.21436 992.07248 0.000803876
1317 1015.79578 992.12169 0.000759322
1381 1015.39268 992.17088 0.000724183
1462 1015.00451 992.22005 0.000683855
1443 1014.63079 992.2692 0.000692885
1426 1014.27105 992.31833 0.000701352
1359 1013.92486 992.36745 0.00073602
1353 1013.5918 992.41655 0.000739225
1319 1013.27153 992.46563 0.000758068
1304 1012.96369 992.51469 0.000766911
1240 1006.31083 992.56374 0.000806618
1288 1000.27509 992.61277 0.000776342
1265 1000.21945 992.66178 0.000790373
1253 1000.16942 992.71077 0.000797983
1248 1000.12503 992.75975 0.000801148
1160 1000.08632 992.80871 0.000862007
1161 1000.05334 992.85765 0.000861501
1144 996.8208 992.90657 0.000874285
1132 993.89975 992.95547 0.000883141
1148 993.99437 993.00436 0.000871191
1149 994.0924 993.05323 0.000870163
1163 994.19418 993.10208 0.000859986
1120 994.30011 993.15091 0.000892665
1095 994.41064 993.19973 0.000913285
1070 994.52628 993.24853 0.000934628
1119 994.64762 993.29731 0.000893733
1106 994.77534 993.34607 0.000903973
1125 994.91021 993.39481 0.000888943
1121 995.05313 993.44354 0.000892132
1096 995.20514 993.49225 0.000912182
1104 995.36747 993.54094 0.000905606
1120 995.54155 993.58962 0.000892665
1099 995.72906 993.63827 0.000909982
1071 995.93201 993.68691 0.000933486
1067 996.15279 993.73553 0.000937492
1068 996.39428 993.78413 0.000936345
1071 996.65997 993.83272 0.000933486
1047 996.95408 993.88129 0.000954955
1028 997.28186 993.92983 0.000972911
1041 997.64977 993.97837 0.000960885
1078 998.06592 994.02688 0.000927808
1083 998.54058 994.07537 0.000923303
1036 999.08691 994.12385 0.000965068
1086 999.72196 994.17231 0.000921063
1084 1000.46815 994.22076 0.000922742
1068 1001.3555 994.26918 0.000936345
1094 1002.42527 994.31759 0.000913838
1151 1003.73726 994.36598 0.000868625
1146 1005.38769 994.41435 0.000872736
1281 1007.55782 994.4627 0.000780686
1230 1010.63707 994.51103 0.000813071
1221 1015.4836 994.55935 0.000819133
1265 1023.83323 994.60765 0.000790373
1200 1038.65198 994.65593 0.000833382
1118 1063.88376 994.7042 0.000894268
1158 1102.94411 994.75244 0.000863527
1142 1155.88216 994.80067 0.000875838
1204 1215.81564 994.84888 0.000830503
1179 1265.35757 994.89707 0.000848007
1202 1280.16628 994.94525 0.000831941
1223 1252.86443 994.9934 0.000817728
1167 1204.65539 995.04154 0.000856967
1174 1160.61877 995.08966 0.000851972
1197 1134.64757 995.13777 0.00083531
1262 1129.6779 995.18585 0.0007926
1365 1139.66327 995.23392 0.000732438
1468 1151.17781 995.28197 0.000681359
1584 1148.44925 995.33 0.000631297
1519 1135.08477 995.37801 0.000658475
1436 1104.41512 995.42601 0.000696548
1403 1074.87274 995.47398 0.000712631
1363 1051.68705 995.52194 0.000733629
1305 1035.93741 995.56989 0.000766487
1286 1026.35526 995.61781 0.000777642
1315 1020.90927 995.66571 0.000760579
1313 1017.84572 995.7136 0.000761419
1280 1020.14189 995.76147 0.000781123
1247 1019.10627 995.80932 0.000802056
1206 1018.45537 995.85716 0.000829069
1172 1018.05951 995.90497 0.000853466
1155 1017.85248 995.95277 0.000865561
1168 1017.79494 996.00055 0.000855965
1154 1017.86061 996.04831 0.00086658
1102 1018.03088 996.09606 0.000907243
1164 1025.00865 996.14378 0.000858978
1146 1025.53479 996.19149 0.000872736
1058 1032.22405 996.23918 0.000945
1040 1033.07576 996.28685 0.000961481
1028 1034.00917 996.33451 0.000972911
1010 1035.02325 996.38214 0.00099013
1036 1036.11814 996.42976 0.000965068
1056 1037.29501 996.47736 0.000946746
1043 1041.90143 996.52494 0.000958506
1107 1043.34043 996.57251 0.00090343
1033 1047.90251 996.62005 0.000968073
1037 1049.61764 996.66758 0.000964469
1050 1051.44095 996.71509 0.000952599
993 1053.37909 996.76258 0.001007171
1021 1055.43959 996.81006 0.000979621
1041 1057.63105 996.85751 0.000960885
1071 1059.96312 996.90495 0.000933486
1042 1062.4467 996.95237 0.000959694
1044 1065.094 996.99977 0.000957913
1044 1067.91878 997.04716 0.000957913
1022 1070.93653 997.09452 0.000978396
1064 1074.16466 997.14187 0.000939793
1062 1077.62284 997.1892 0.000941524
1074 1081.33329 997.23651 0.000931209
1056 1085.32123 997.2838 0.000946746
1048 1089.61532 997.33108 0.000954365
1052 1094.24825 997.37833 0.000950837
1131 1099.25742 997.42557 0.000884191
1098 1104.68586 997.47279 0.000910532
1058 1110.58317 997.52 0.000945
1029 1117.00687 997.56718 0.000971698
1063 1124.02398 997.61435 0.000940946
1052 1131.71294 997.6615 0.000950837
1076 1140.16616 997.70863 0.000929506
1104 1149.49308 997.75574 0.000905606
1079 1159.82432 997.80283 0.000926679
1089 1171.31666 997.84991 0.000918274
1129 1184.15996 997.89697 0.000885771
1123 1198.58594 997.94401 0.000890535
1149 1214.88002 997.99103 0.000870163
1199 1233.39727 998.03803 0.000833864
1196 1254.58413 998.08502 0.000836277
1225 1279.00877 998.13198 0.000816327
1219 1307.40358 998.17893 0.000820541
1286 1340.72661 998.22586 0.000777642
1406 1380.25498 998.27278 0.000711111
1426 1427.74102 998.31967 0.000701352
1463 1485.7326 998.36655 0.000683498
1541 1558.37577 998.41341 0.000648783
1676 1653.56704 998.46025 0.000596629
1768 1788.26159 998.50707 0.000565546
1993 1999.23275 998.55387 0.000501824
2474 2358.90943 998.60066 0.000404193
3125 2986.84875 998.64742 0.000320019
4117 4034.79181 998.69417 0.000242924
5695 5622.56394 998.7409 0.00017557
7823 7726.15332 998.78762 0.000127822
10175 10040.00856 998.83431 0.000098282
12317 11846.27752 998.88099 0.000081191
12413 12228.42229 998.92764 0.000080566
11155 11044.74715 998.97428 0.000089641
9015 9180.82409 999.02091 0.00011092
7282 7556.99806 999.06751 0.00013734
6574 6660.51989 999.11409 0.000152115
6640 6587.05711 999.16066 0.000150588
7356 7118.19507 999.20721 0.000135934
8339 7778.66762 999.25374 0.000119914
8692 7998.4231 999.30025 0.000115051
8161 7617.1781 999.34675 0.000122529
7531 7096.977 999.39322 0.000132789
7390 7030.8798 999.43968 0.000135303
7964 7824.76747 999.48612 0.000125569
9554 9625.92264 999.53254 0.000104678
11934 12234.46538 999.57894 0.000083799
14616 14976.09533 999.62533 0.000068414
16640 16812.89266 999.67169 0.000060093
16953 17050.80811 999.71804 0.00005899
15658 15703.28517 999.76437 0.000063867
13100 13392.01121 999.81068 0.00007633
10396 11152.92728 999.85697 0.000096192
8671 9738.9985 999.90325 0.000115323
8231 9331.96581 999.9495 0.000121505
8665 9613.02048 999.99574 0.000115397
9348 9930.12198 1000.04196 0.000106964
9459 9720.40122 1000.08816 0.000105714
8543 8797.98126 1000.13435 0.000117051
7215 7313.75112 1000.18051 0.000138604
5403 5689.12959 1000.22666 0.000185058
3831 4286.83488 1000.27279 0.000260987
2845 3247.29783 1000.3189 0.000351475
2278 2555.36358 1000.36499 0.000438952
1987 2126.88754 1000.41106 0.000503176
1777 1868.26555 1000.45711 0.000562866
1551 1707.06012 1000.50315 0.000644835
1536 1598.56886 1000.54917 0.000651103
1528 1519.00067 1000.59517 0.000654438
1463 1456.79298 1000.64115 0.000683498
1422 1406.2571 1000.68711 0.000703213
1377 1364.27934 1000.73306 0.000726136
1359 1328.89721 1000.77898 0.00073602
1288 1298.73786 1000.82489 0.000776342
1250 1272.79202 1000.87078 0.000799789
1302 1250.27375 1000.91665 0.000768187
1196 1230.58982 1000.9625 0.000836277
1160 1213.26884 1001.00834 0.000862007
1221 1197.93566 1001.05415 0.000819133
1210 1184.28837 1001.09995 0.000826211
1190 1172.08149 1001.14573 0.00084016
1225 1161.11368 1001.19149 0.000816327
1292 1151.2183 1001.23723 0.000774183
1299 1142.2597 1001.28296 0.000769893
1334 1134.11484 1001.32866 0.000749788
1304 1126.68829 1001.37435 0.000766911
1401 1119.89617 1001.42002 0.000713773
1351 1113.66681 1001.46567 0.000740029
1276 1107.93852 1001.5113 0.000783749
1273 1102.65806 1001.55691 0.000785507
1219 1097.77917 1001.60251 0.000820541
1162 1093.26154 1001.64809 0.00086049
1154 1089.0699 1001.69364 0.00086658
1144 1085.17324 1001.73918 0.000874285
1130 1081.54424 1001.7847 0.000884717
1122 1078.1587 1001.83021 0.000891067
1106 1074.99517 1001.87569 0.000903973
1064 1072.03452 1001.92116 0.000939793
1044 1069.25968 1001.9666 0.000957913
1057 1066.6554 1002.01203 0.000946163
1066 1064.20793 1002.05744 0.000938067
1058 1063.47492 1002.10283 0.000945
1048 1061.34777 1002.14821 0.000954365
1070 1059.34566 1002.19356 0.000934628
1036 1057.45957 1002.2389 0.000965068
1023 1055.68132 1002.28422 0.000977784
1054 1054.00349 1002.32951 0.000948496
1017 1052.41935 1002.3748 0.000983311
1045 1050.92275 1002.42006 0.000956728
1046 1050.28304 1002.4653 0.000956137
1053 1048.9661 1002.51053 0.000949665
1077 1047.72222 1002.55573 0.000928374
1038 1046.54721 1002.60092 0.000963272
1013 1045.43722 1002.64609 0.000987022
1049 1044.38876 1002.69124 0.000953187
1030 1043.39866 1002.73637 0.000971092
1023 1042.46402 1002.78149 0.000977784
995 1041.58222 1002.82658 0.001005256
1094 1040.75087 1002.87166 0.000913838
1053 1039.96784 1002.91672 0.000949665
1069 1039.23118 1002.96176 0.0009352
1097 1038.53918 1003.00678 0.000911632
1085 1037.89032 1003.05178 0.000921622
1126 1037.90497 1003.09677 0.000887884
1056 1037.3553 1003.14173 0.000946746
1118 1036.84603 1003.18668 0.000894268
1117 1036.37643 1003.23161 0.000895338
1164 1035.94595 1003.27652 0.000858978
1152 1035.55425 1003.32141 0.000868113
1167 1035.20119 1003.36628 0.000856967
1140 1034.88684 1003.41113 0.000877395
1172 1034.61154 1003.45597 0.000853466
1246 1034.69048 1003.50079 0.00080251
1319 1034.50384 1003.54558 0.000758068
1384 1034.35929 1003.59036 0.000722627
1416 1034.25852 1003.63512 0.000706206
1471 1034.20369 1003.67987 0.000679938
1446 1034.19764 1003.72459 0.000691429
1388 1034.24415 1003.76929 0.000720301
1359 1034.34855 1003.81398 0.00073602
1301 1034.51938 1003.85865 0.000768613
1286 1034.77238 1003.9033 0.000777642
1291 1035.13842 1003.94793 0.000774614
1278 1031.97369 1003.99254 0.000782434
1272 1032.84155 1004.03713 0.000785948
1245 1034.09382 1004.08171 0.00080342
1218 1035.83255 1004.12626 0.000821011
1195 1038.05871 1004.1708 0.000836761
1145 1040.56834 1004.21532 0.000873251
1075 1042.84588 1004.25982 0.000930073
1098 1044.18458 1004.3043 0.000910532
1089 1042.55409 1004.34876 0.000918274
1065 1042.35097 1004.39321 0.000939217
1110 1042.43807 1004.43763 0.00090072
1080 1043.25168 1004.48204 0.000926115
1060 1044.94101 1004.52642 0.00094326
1051 1047.43353 1004.57079 0.000951424
1082 1050.47526 1004.61514 0.000924426
1098 1053.68123 1004.65948 0.000910532
1078 1053.78272 1004.70379 0.000927808
1023 1057.11172 1004.74808 0.000977784
1098 1058.35146 1004.79236 0.000910532
1084 1063.45568 1004.83661 0.000922742
1101 1069.99111 1004.88085 0.000908337
1058 1078.32313 1004.92507 0.000945
1063 1088.96593 1004.96927 0.000940946
1029 1102.84597 1005.01345 0.000971698
1087 1120.39103 1005.05762 0.000919946
1122 1148.94801 1005.10176 0.000891067
1197 1194.61882 1005.14589 0.00083531
1176 1276.75554 1005.18999 0.000850482
1399 1418.80359 1005.23408 0.000714919
1546 1648.00878 1005.27815 0.000646804
1871 1978.82783 1005.3222 0.000534351
2275 2390.55606 1005.36623 0.000439504
2639 2800.73506 1005.41024 0.000378949
2963 3050.36331 1005.45424 0.000337539
2893 2997.3641 1005.49821 0.000345618
2507 2695.85712 1005.54217 0.000398882
2181 2331.08753 1005.58611 0.000458528
1916 2045.35083 1005.63003 0.000521972
1791 1902.87589 1005.67393 0.000558353
1814 1905.99281 1005.71781 0.000551296
1911 2007.78328 1005.76167 0.000523406
2027 2118.72446 1005.80551 0.000493388
2039 2129.72772 1005.84934 0.000490334
1976 1998.58792 1005.89315 0.000506123
1798 1788.36827 1005.93693 0.000556248
1547 1578.07564 1005.9807 0.000646476
1378 1410.4286 1006.02445 0.000725745
1278 1297.71754 1006.06818 0.000782434
1246 1235.6422 1006.11189 0.00080251
1213 1215.64076 1006.15559 0.000824315
1257 1233.49954 1006.19926 0.000795733
1336 1291.49593 1006.24292 0.000748558
1371 1393.74727 1006.28655 0.000729277
1391 1536.96454 1006.33017 0.000718757
1533 1699.32914 1006.37377 0.000652434
1595 1829.59473 1006.41735 0.000626879
1682 1858.81343 1006.46091 0.000594594
1641 1769.41938 1006.50445 0.000609362
1496 1622.24152 1006.54797 0.000668386
1351 1485.94819 1006.59148 0.000740029
1300 1398.91482 1006.63496 0.000769039
1305 1372.22123 1006.67843 0.000766487
1311 1395.82757 1006.72188 0.000762681
1346 1448.28416 1006.76531 0.000742856
1314 1475.4513 1006.80872 0.000760999
1375 1448.29978 1006.85211 0.000727312
1319 1373.54967 1006.89548 0.000758068
1183 1284.2864 1006.93883 0.000845543
1206 1204.97642 1006.98217 0.000829069
1106 1145.46553 1007.02548 0.000903973
1070 1105.94042 1007.06878 0.000934628
1089 1081.79666 1007.11206 0.000918274
1079 1070.59708 1007.15532 0.000926679
1083 1061.93251 1007.19856 0.000923303
1056 1056.2094 1007.24178 0.000946746
1092 1052.08686 1007.28498 0.000915497
1107 1048.931 1007.32816 0.00090343
1135 1046.4354 1007.37132 0.000881045
1191 1044.43269 1007.41447 0.000839673
1149 1042.81693 1007.4576 0.000870163
1117 1041.51398 1007.5007 0.000895338
1118 1040.4693 1007.54379 0.000894268
1137 1039.64173 1007.58686 0.000879478
1138 1041.85345 1007.62991 0.000878956
1127 1041.44882 1007.67294 0.000887355
1091 1041.18976 1007.71595 0.000916606
1106 1041.06179 1007.75895 0.000903973
1164 1041.05372 1007.80192 0.000858978
1140 1041.15702 1007.84487 0.000877395
1073 1041.36531 1007.88781 0.000931777
1064 1041.67403 1007.93073 0.000939793
1098 1042.08014 1007.97363 0.000910532
1085 1044.01543 1008.01651 0.000921622
1047 1044.65081 1008.05937 0.000954955
1053 1045.38367 1008.10221 0.000949665
1037 1046.21586 1008.14503 0.000964469
993 1047.15023 1008.18783 0.001007171
1019 1048.19072 1008.23062 0.000981464
1038 1049.34234 1008.27338 0.000963272
995 1050.61124 1008.31613 0.001005256
1041 1052.0048 1008.35885 0.000960885
1044 1053.53173 1008.40156 0.000957913
992 1055.20225 1008.44425 0.001007811
1048 1057.02821 1008.48692 0.000954365
1060 1059.02338 1008.52957 0.00094326
1039 1061.20368 1008.5722 0.000962674
1057 1063.58754 1008.61481 0.000946163
1060 1066.19626 1008.65741 0.00094326
1035 1069.05462 1008.69998 0.000966269
1068 1072.19137 1008.74254 0.000936345
1025 1075.64006 1008.78507 0.000975343
1024 1079.44 1008.82759 0.000976562
1115 1083.63738 1008.87009 0.000896948
1035 1088.28678 1008.91257 0.000966269
1087 1093.45298 1008.95503 0.000919946
1050 1099.21343 1008.99747 0.000952599
1113 1105.66122 1009.03989 0.000898562
1104 1112.90901 1009.08229 0.000905606
1107 1121.09424 1009.12468 0.00090343
1153 1130.383 1009.16704 0.000867091
1167 1140.99098 1009.20938 0.000856967
1180 1153.17801 1009.25171 0.000847513
1204 1167.27701 1009.29402 0.000830503
1206 1183.71459 1009.33631 0.000829069
1236 1203.04464 1009.37857 0.000808914
1189 1225.99683 1009.42082 0.000841135
1222 1253.5516 1009.46305 0.000818196
1299 1287.06837 1009.50526 0.000769893
1367 1328.56634 1009.54746 0.000731646
1409 1381.40995 1009.58963 0.000709596
1482 1452.12969 1009.63178 0.00067465
1652 1554.69194 1009.67392 0.00060547
1836 1718.64977 1009.71603 0.000544626
2132 2000.1521 1009.75813 0.000469116
2663 2488.05936 1009.80021 0.000375578
3342 3289.53988 1009.84226 0.000299222
4379 4481.37794 1009.8843 0.00022839
6001 6030.11327 1009.92632 0.000166622
7860 7692.52232 1009.96832 0.000127217
9393 8922.57546 1010.0103 0.000106457
9783 9066.66336 1010.05227 0.000102216
8718 8083.33242 1010.09421 0.000114706
6839 6630.7585 1010.13613 0.000146214
5184 5345.75113 1010.17804 0.000192901
4347 4563.19208 1010.21992 0.000230056
4227 4368.67346 1010.26179 0.000236541
4584 4661.13216 1010.30363 0.000218119
5354 5179.80275 1010.34546 0.000186782
5882 5526.06847 1010.38727 0.000170029
5920 5345.45764 1010.42906 0.000168926
5239 4678.86895 1010.47083 0.000190881
4390 3856.53161 1010.51258 0.00022777
3387 3145.83308 1010.55431 0.000295226
2929 2679.98803 1010.59602 0.000341416
2849 2508.12313 1010.63771 0.000350948
2853 2637.7995 1010.67939 0.000350554
3176 3048.35191 1010.72104 0.000314817
3546 3677.86114 1010.76268 0.000281992
4129 4382.11742 1010.80429 0.000242169
4755 4890.12084 1010.84589 0.000210284
4890 4898.48229 1010.88747 0.00020449
4720 4401.21392 1010.92902 0.000211878
4076 3705.05774 1010.97056 0.000245366
3244 3096.54197 1011.01208 0.000308219
2800 2723.67576 1011.05358 0.000357076
2712 2622.58341 1011.09506 0.000368687
2748 2744.73735 1011.13652 0.00036392
2782 2970.60475 1011.17797 0.000359517
2989 3117.09579 1011.21939 0.000334581
3036 3020.08354 1011.26079 0.00032938
2851 2694.36674 1011.30218 0.000350817
2487 2288.51515 1011.34354 0.000402088
2039 1920.03198 1011.38489 0.000490334
1685 1638.75746 1011.42621 0.000593436
1516 1448.83456 1011.46752 0.00065949
1381 1330.98515 1011.50881 0.000724183
1248 1260.26355 1011.55007 0.000801148
1206 1216.38127 1011.59132 0.000829069
1157 1187.04759 1011.63255 0.000864543
1096 1165.51115 1011.67376 0.000912182
1111 1148.60618 1011.71495 0.00090018
1121 1134.80236 1011.75612 0.000892132
1096 1123.27247 1011.79728 0.000912182
1080 1113.49818 1011.83841 0.000926115
1062 1105.11774 1011.87952 0.000941524
1107 1097.86384 1011.92062 0.00090343
1081 1091.5331 1011.96169 0.000924989
1025 1085.96793 1012.00274 0.000975343
1054 1081.04446 1012.04378 0.000948496
1079 1076.66408 1012.0848 0.000926679
1062 1072.74745 1012.12579 0.000941524
1025 1069.23009 1012.16677 0.000975343
1022 1066.05917 1012.20773 0.000978396
1024 1063.19105 1012.24867 0.000976562
1008 1060.58951 1012.28959 0.000992002
1022 1058.22434 1012.33049 0.000978396
1034 1056.07031 1012.37137 0.00096687
996 1054.10636 1012.41223 0.001003982
1068 1052.315 1012.45307 0.000936345
1015 1050.68192 1012.49389 0.000985164
1003 1049.19571 1012.53469 0.00099702
1063 1047.84774 1012.57548 0.000940946
1011 1046.63226 1012.61624 0.000988885
971 1045.54674 1012.65699 0.001029924
988 1044.5928 1012.69771 0.001012305
1036 1043.77866 1012.73842 0.000965068
995 1043.12593 1012.7791 0.001005256
1013 1042.68645 1012.81977 0.000987022
985 1047.46181 1012.86042 0.001015533
968 1048.05633 1012.90104 0.001033237
1002 1049.65207 1012.94165 0.00099828
1013 1052.83685 1012.98224 0.000987022
1036 1058.18187 1013.02281 0.000965068
1001 1065.86068 1013.06336 0.000998912
1007 1075.12758 1013.10389 0.000993253
1060 1083.69769 1013.1444 0.00094326
1045 1087.70015 1013.18489 0.000956728
1021 1087.08052 1013.22536 0.000979621
1022 1079.3069 1013.26582 0.000978396
1021 1070.94078 1013.30625 0.000979621
1034 1064.78403 1013.34666 0.00096687
1072 1062.02386 1013.38706 0.000932916
1070 1067.52333 1013.42743 0.000934628
1041 1070.81047 1013.46778 0.000960885
1023 1074.94375 1013.50812 0.000977784
960 1083.35064 1013.54843 0.001041927
991 1083.85092 1013.58873 0.001009092
1039 1083.72314 1013.62901 0.000962674
1013 1086.18043 1013.66926 0.000987022
993 1094.01622 1013.7095 0.001007171
1023 1108.86158 1013.74972 0.000977784
1035 1132.75416 1013.78992 0.000966269
1005 1157.34053 1013.8301 0.000995134
1020 1176.86956 1013.87025 0.000980235
1024 1183.81756 1013.91039 0.000976562
999 1170.64594 1013.95051 0.001000809
1018 1149.33067 1013.99061 0.000982079
1068 1129.73087 1014.0307 0.000936345
1067 1117.27798 1014.07076 0.000937492
1106 1113.6969 1014.1108 0.000903973
1157 1117.99378 1014.15082 0.000864543
1215 1126.98828 1014.19082 0.000822897
1295 1135.39324 1014.23081 0.000772034
1321 1137.13309 1014.27077 0.000756818
1305 1130.47914 1014.31071 0.000766487
1258 1119.56187 1014.35064 0.000794836
1146 1108.94472 1014.39054 0.000872736
1212 1100.9608 1014.43043 0.000825262
1181 1096.1808 1014.47029 0.000846527
1137 1094.18468 1014.51014 0.000879478
1175 1094.19307 1014.54996 0.000850978
1115 1095.49547 1014.58977 0.000896948
1114 1094.76365 1014.62956 0.000897485
1139 1097.50965 1014.66932 0.000877915
1105 1100.71959 1014.70907 0.000905061
1124 1104.36188 1014.7488 0.000889473
1060 1108.44118 1014.78851 0.00094326
1028 1112.98167 1014.82819 0.000972911
998 1118.02117 1014.86786 0.001002076
1050 1123.60984 1014.90751 0.000952599
1081 1129.81095 1014.94714 0.000924989
1052 1135.28031 1014.98675 0.000950837
1083 1142.98263 1015.02634 0.000923303
1094 1151.58691 1015.06591 0.000913838
1085 1161.23611 1015.10546 0.000921622
1106 1172.10638 1015.14499 0.000903973
1098 1184.41643 1015.1845 0.000910532
1075 1198.4401 1015.224 0.000930073
1092 1214.52413 1015.26347 0.000915497
1139 1233.11278 1015.30292 0.000877915
1143 1254.78333 1015.34235 0.000874802
1159 1280.29948 1015.38177 0.00086302
1199 1310.69959 1015.42116 0.000833864
1242 1346.17413 1015.46053 0.000805245
1229 1391.70932 1015.49989 0.000813535
1320 1450.32464 1015.53922 0.000757651
1441 1530.98421 1015.57853 0.000693981
1583 1652.58028 1015.61783 0.000631615
1755 1851.83031 1015.6571 0.000569875
2029 2189.57105 1015.69636 0.00049295
2597 2745.26342 1015.73559 0.000385071
3336 3587.59754 1015.77481 0.000299741
4358 4723.54085 1015.814 0.000229429
5875 6023.68096 1015.85318 0.000170206
6936 7143.66808 1015.89234 0.000144184
7498 7564.53431 1015.93147 0.000133372
6779 7061.71344 1015.97059 0.000147531
5718 6026.1888 1016.00968 0.000174875
4492 4991.68984 1016.04876 0.000222634
4088 4284.87118 1016.08782 0.000244599
3915 4039.64469 1016.12686 0.000255428
4258 4259.54651 1016.16587 0.000234876
4956 4859.75878 1016.20487 0.000201769
5812 5683.69634 1016.24385 0.000172042
6599 6524.88462 1016.28281 0.000151554
7212 7307.46354 1016.32175 0.000138669
7964 8243.38366 1016.36067 0.000125569
9237 9548.67138 1016.39956 0.000108259
10717 11104.47634 1016.43844 0.000093315
12137 12421.73243 1016.4773 0.00008239
12842 13059.42777 1016.51614 0.000077873
12405 12894.19956 1016.55496 0.000080609
11237 11840.46816 1016.59376 0.000089
9469 10135.75356 1016.63254 0.000105605
7684 8445.13121 1016.6713 0.000130136
6645 7293.68568 1016.71004 0.000150478
6479 6848.43081 1016.74876 0.000154353
6808 6975.62029 1016.78746 0.000146888
7419 7312.7567 1016.82614 0.0001348
7854 7486.5044 1016.8648 0.000127332
7548 7326.53025 1016.90344 0.000132483
6772 6732.22334 1016.94206 0.000147675
5799 5727.06552 1016.98067 0.000172449
4636 4583.83163 1017.01925 0.000215692
3601 3569.15654 1017.05781 0.000277685
2835 2794.94593 1017.09635 0.000352796
2389 2262.92848 1017.13487 0.000418541
2206 1923.24303 1017.17337 0.000453272
2024 1713.56774 1017.21185 0.000494047
1913 1581.79086 1017.25032 0.000522688
1736 1493.45525 1017.28876 0.000575908
1675 1429.26142 1017.32718 0.000596921
1620 1379.44281 1017.36558 0.00061726
1499 1339.13635 1017.40396 0.000667005
1424 1305.71972 1017.44233 0.000702096
1326 1277.57971 1017.48067 0.000754325
1324 1253.60659 1017.51899 0.000755155
1252 1232.9858 1017.55729 0.000798885
1239 1215.09919 1017.59558 0.000807076
1199 1199.46814 1017.63384 0.000833864
1226 1185.70018 1017.67208 0.00081586
1181 1173.52977 1017.7103 0.000846527
1111 1162.69952 1017.74851 0.00090018
1166 1153.01404 1017.78669 0.000857469
1113 1144.31314 1017.82485 0.000898562
1121 1136.46424 1017.863 0.000892132
1103 1129.35688 1017.90112 0.000906697
1063 1122.89836 1017.93922 0.000940946
1060 1117.01028 1017.9773 0.00094326
1099 1111.61818 1018.01537 0.000909982
1127 1106.6809 1018.05341 0.000887355
1148 1102.14146 1018.09143 0.000871191
1117 1097.95753 1018.12944 0.000895338
1099 1094.09237 1018.16742 0.000909982
1073 1090.51399 1018.20538 0.000931777
1070 1087.19434 1018.24333 0.000934628
1049 1084.10879 1018.28125 0.000953187
1070 1081.19197 1018.31915 0.000934628
1084 1078.51277 1018.35703 0.000922742
1103 1076.00992 1018.3949 0.000906697
1120 1073.66779 1018.43274 0.000892665
1154 1071.47304 1018.47056 0.00086658
1159 1069.41355 1018.50837 0.00086302
1145 1067.47841 1018.54615 0.000873251
1212 1065.65782 1018.58391 0.000825262
1273 1063.94295 1018.62165 0.000785507
1266 1062.30395 1018.65938 0.000789929
1290 1060.77766 1018.69708 0.000775046
1306 1059.33526 1018.73476 0.000765638
1233 1057.97077 1018.77242 0.000811219
1245 1056.67874 1018.81007 0.00080342
1217 1055.45419 1018.84769 0.000821482
1191 1054.29258 1018.88529 0.000839673
1223 1053.18974 1018.92287 0.000817728
1136 1052.14183 1018.96044 0.000880522
1142 1051.14534 1018.99798 0.000875838
1159 1050.19704 1019.0355 0.00086302
1138 1049.29393 1019.073 0.000878956
1175 1048.43328 1019.11048 0.000850978
1133 1047.61252 1019.14795 0.000882616
1160 1046.82932 1019.18539 0.000862007
1100 1046.08147 1019.22281 0.000908885
1082 1045.36696 1019.26021 0.000924426
1061 1044.68392 1019.29759 0.00094268
1116 1044.03058 1019.33495 0.000895874
1071 1043.40533 1019.37229 0.000933486
1095 1042.80664 1019.40961 0.000913285
995 1042.23311 1019.44692 0.001005256
1064 1041.6834 1019.4842 0.000939793
1053 1041.15629 1019.52146 0.000949665
1051 1041.23362 1019.5587 0.000951424
1024 1040.76353 1019.59592 0.000976562
1053 1040.31338 1019.63312 0.000949665
1080 1040.3965 1019.6703 0.000926115
1086 1039.997 1019.70746 0.000921063
1017 1039.61541 1019.7446 0.000983311
1030 1039.251 1019.78172 0.000971092
1061 1038.90312 1019.81882 0.00094268
1055 1038.57114 1019.85589 0.000947912
1070 1038.25448 1019.89295 0.000934628
1062 1038.24685 1019.92999 0.000941524
1042 1037.96701 1019.96701 0.000959694
1031 1037.70136 1020.00401 0.000969883
1049 1037.70896 1020.04099 0.000953187
1027 1037.47733 1020.07795 0.000973518
1001 1037.25909 1020.11488 0.000998912
1041 1037.05399 1020.1518 0.000960885
1080 1036.86181 1020.1887 0.000926115
1066 1036.68235 1020.22557 0.000938067
1027 1034.29834 1020.26243 0.000973518
1012 1034.18231 1020.29927 0.000988263
1047 1034.07776 1020.33609 0.000954955
1068 1033.98472 1020.37288 0.000936345
1057 1033.90328 1020.40966 0.000946163
1099 1033.8336 1020.44641 0.000909982
1027 1033.77592 1020.48315 0.000973518
980 1033.73061 1020.51986 0.001020731
1017 1033.69828 1020.55656 0.000983311
998 1032.56821 1020.59323 0.001002076
1005 1032.58526 1020.62989 0.000995134
964 1032.62161 1020.66652 0.001037234
993 1032.68313 1020.70314 0.001007171
980 1032.77734 1020.73973 0.001020731
978 1030.70628 1020.7763 0.001022691
1022 1030.91797 1020.81286 0.000978396
1013 1031.15787 1020.84939 0.000987022
948 1028.87143 1020.8859 0.001054826
978 1029.10585 1020.9224 0.001022691
969 1029.27353 1020.95887 0.00103191
961 1029.41061 1020.99532 0.001040583
972 1029.56541 1021.03175 0.001028603
970 1029.76787 1021.06816 0.001031247
944 1028.92496 1021.10455 0.001059638
1003 1029.27003 1021.14092 0.00099702
1013 1029.67098 1021.17727 0.000987022
1002 1028.84724 1021.2136 0.00099828
976 1029.33269 1021.24991 0.001024656
954 1029.81866 1021.2862 0.001048007
988 1030.31194 1021.32247 0.001012305
967 1030.84005 1021.35872 0.001033902
977 1031.42716 1021.39495 0.001023345
974 1032.08843 1021.43116 0.001026626
1025 1032.83355 1021.46734 0.000975343
1011 1033.67031 1021.50351 0.000988885
1002 1034.60756 1021.53966 0.00099828
1005 1035.65719 1021.57578 0.000995134
990 1036.83528 1021.61189 0.001010375
994 1038.1627 1021.64798 0.001005894
1031 1039.66588 1021.68404 0.000969883
1042 1041.37797 1021.72009 0.000959694
1020 1043.3406 1021.75611 0.000980235
1009 1045.60653 1021.79212 0.000991377
981 1048.24334 1021.8281 0.001019428
991 1051.33865 1021.86406 0.001009092
1036 1055.00796 1021.90001 0.000965068
1019 1059.40699 1021.93593 0.000981464
1020 1064.75496 1021.97183 0.000980235
1034 1071.38651 1022.00771 0.00096687
1070 1079.8798 1022.04357 0.000934628
1107 1091.35978 1022.07942 0.00090343
1088 1108.11579 1022.11524 0.000919388
1144 1134.58427 1022.15104 0.000874285
1238 1178.36468 1022.18682 0.000807535
1359 1250.3059 1022.22258 0.00073602
1455 1362.36301 1022.25831 0.000687446
1684 1522.46865 1022.29403 0.000593725
1803 1726.1507 1022.32973 0.000554677
1966 1944.1044 1022.36541 0.000508638
2219 2122.18754 1022.40107 0.000450582
2285 2202.6596 1022.4367 0.000437667
2135 2192.31701 1022.47232 0.000468304
1970 2100.61001 1022.50791 0.000507721
1820 1943.0867 1022.54349 0.000549488
1624 1774.76111 1022.57905 0.000615729
1492 1651.19275 1022.61458 0.000670117
1446 1596.06107 1022.65009 0.000691429
1495 1603.89702 1022.68559 0.000668731
1593 1647.42845 1022.72106 0.000627822
1680 1679.08899 1022.75651 0.000595174
1609 1676.1463 1022.79194 0.000621577
1555 1636.73934 1022.82736 0.000643201
1504 1558.64374 1022.86275 0.000664943
1328 1451.96426 1022.89812 0.000753084
1194 1343.56349 1022.93347 0.00083773
1148 1253.18483 1022.9688 0.000871191
1063 1186.7865 1023.00411 0.000940946
1028 1142.22801 1023.03939 0.000972911
1009 1114.12305 1023.07466 0.000991377
1003 1096.80909 1023.10991 0.00099702
1007 1088.17239 1023.14514 0.000993253
998 1080.90106 1023.18034 0.001002076
991 1075.68617 1023.21553 0.001009092
971 1071.74677 1023.25069 0.001029924
982 1068.68471 1023.28584 0.001018127
983 1066.27788 1023.32096 0.001017478
991 1064.38602 1023.35607 0.001009092
1022 1062.9117 1023.39115 0.000978396
1035 1061.78363 1023.42621 0.000966269
1054 1060.94842 1023.46125 0.000948496
1024 1061.51176 1023.49628 0.000976562
1032 1061.18042 1023.53128 0.000969279
1031 1061.04856 1023.56626 0.000969883
984 1061.09868 1023.60122 0.001016181
1002 1061.31799 1023.63616 0.00099828
1022 1061.6975 1023.67107 0.000978396
1033 1062.23145 1023.70597 0.000968073
1002 1062.9169 1023.74085 0.00099828
990 1063.75343 1023.77571 0.001010375
1013 1064.74298 1023.81054 0.000987022
1047 1065.88977 1023.84536 0.000954955
960 1067.20026 1023.88015 0.001041927
989 1068.6833 1023.91493 0.001011018
979 1070.35019 1023.94968 0.001021384
1009 1072.21502 1023.98441 0.000991377
1014 1074.2949 1024.01913 0.000986402
947 1076.61039 1024.05382 0.001056197
979 1079.18612 1024.08849 0.001021384
996 1082.05141 1024.12314 0.001003982
952 1085.24121 1024.15777 0.001050726
1007 1088.7972 1024.19238 0.000993253
1061 1092.7692 1024.22697 0.00094268
1008 1097.21708 1024.26153 0.000992002
1042 1102.21303 1024.29608 0.000959694
1074 1107.84472 1024.33061 0.000931209
1063 1114.21926 1024.36511 0.000940946
1074 1121.46849 1024.3996 0.000931209
1103 1129.75622 1024.43406 0.000906697
1098 1139.28774 1024.46851 0.000910532
1137 1150.32298 1024.50293 0.000879478
1132 1163.19506 1024.53733 0.000883141
1267 1178.33603 1024.57171 0.000789485
1313 1196.31501 1024.60608 0.000761419
1348 1217.8965 1024.64042 0.000741643
1413 1244.14367 1024.67474 0.00070771
1402 1276.63796 1024.70903 0.000713392
1497 1318.02269 1024.74331 0.00066804
1573 1373.36914 1024.77757 0.000635762
1638 1453.24346 1024.81181 0.000610567
1802 1579.28411 1024.84602 0.000554938
2010 1791.34244 1024.88022 0.00049758
2347 2150.92502 1024.91439 0.000426003
2854 2731.10148 1024.94855 0.000350423
3640 3584.62562 1024.98268 0.000274747
4837 4691.79752 1025.01679 0.000206731
6137 5892.10097 1025.05088 0.000162942
7128 6811.68398 1025.08495 0.000140283
7407 6973.86493 1025.11901 0.00013502
6444 6296.31591 1025.15303 0.000155201
5184 5215.63582 1025.18704 0.000192901
3988 4187.79171 1025.22103 0.000250757
3334 3461.91728 1025.255 0.000299948
2994 3127.29156 1025.28894 0.00033397
3098 3169.2287 1025.32287 0.000322785
3419 3498.64164 1025.35677 0.000292505
3951 3954.86973 1025.39066 0.000253076
4357 4289.00742 1025.42452 0.000229499
4324 4247.1931 1025.45836 0.000231247
3899 3819.50699 1025.49219 0.000256492
3274 3232.66671 1025.52599 0.000305425
2662 2692.96675 1025.55977 0.000375724
2388 2305.6944 1025.59353 0.000418712
2247 2110.41809 1025.62726 0.000445085
2240 2115.83964 1025.66098 0.000446403
2380 2318.29259 1025.69468 0.000420086
2708 2699.98921 1025.72835 0.000369254
3167 3207.74304 1025.76201 0.000315713
3561 3716.2572 1025.79564 0.000280859
3877 4005.59689 1025.82926 0.000257895
3772 3889.69357 1025.86285 0.000265082
3462 3443.26935 1025.89642 0.000288838
2874 2903.37769 1025.92997 0.000347943
2393 2447.53541 1025.9635 0.000417856
2082 2159.04336 1025.99701 0.000480285
1909 2058.20631 1026.0305 0.000523885
1988 2123.75 1026.06397 0.00050295
2134 2302.39118 1026.09741 0.000468507
2355 2504.62142 1026.13084 0.000424599
2463 2602.13505 1026.16424 0.000405986
2401 2500.7157 1026.19763 0.000416493
2157 2243.89393 1026.23099 0.000463677
1864 1945.29079 1026.26433 0.000536582
1642 1682.04218 1026.29766 0.000609061
1456 1483.56474 1026.33096 0.000686726
1302 1349.394 1026.36424 0.000768187
1209 1265.55904 1026.39749 0.000827162
1178 1214.41584 1026.43073 0.000848996
1130 1181.95279 1026.46395 0.000884717
1082 1160.02834 1026.49714 0.000924426
1119 1143.80454 1026.53032 0.000893733
1141 1131.0258 1026.56347 0.000876356
1146 1120.57341 1026.59661 0.000872736
1101 1111.83148 1026.62972 0.000908337
1088 1104.41105 1026.66281 0.000919388
1103 1097.90667 1026.69588 0.000906697
1066 1092.38624 1026.72893 0.000938067
1041 1087.56074 1026.76196 0.000960885
1014 1083.19413 1026.79497 0.000986402
1053 1079.42911 1026.82795 0.000949665
1017 1076.07187 1026.86092 0.000983311
988 1073.06226 1026.89386 0.001012305
1009 1070.35125 1026.92679 0.000991377
1045 1067.89854 1026.95969 0.000956728
1038 1065.67065 1026.99257 0.000963272
1054 1063.63964 1027.02543 0.000948496
1024 1061.78189 1027.05827 0.000976562
987 1060.07741 1027.09109 0.001012949
1007 1058.50913 1027.12389 0.000993253
959 1057.06237 1027.15666 0.0010426
1007 1055.72447 1027.18942 0.000993253
980 1054.48446 1027.22215 0.001020731
953 1053.33273 1027.25487 0.001049365
979 1052.26091 1027.28756 0.001021384
975 1051.26161 1027.32023 0.001025969
952 1050.32833 1027.35288 0.001050726
947 1049.45527 1027.38551 0.001056197
947 1048.63733 1027.41812 0.001056197
999 1047.86992 1027.45071 0.001000809
990 1047.14894 1027.48328 0.001010375
981 1046.47073 1027.51582 0.001019428
957 1045.83197 1027.54835 0.001044623
979 1045.22968 1027.58085 0.001021384
981 1044.66118 1027.61333 0.001019428
976 1044.124 1027.64579 0.001024656
984 1043.61595 1027.67823 0.001016181
970 1043.13498 1027.71065 0.001031247
939 1042.67926 1027.74305 0.001065179
924 1042.24711 1027.77543 0.001082064
938 1041.83698 1027.80778 0.001065874
974 1041.44746 1027.84012 0.001026626
991 1041.07724 1027.87243 0.001009092
991 1040.72513 1027.90473 0.001009092
986 1040.39003 1027.937 0.00101424
963 1040.07092 1027.96925 0.001038572
1021 1039.76685 1028.00148 0.000979621
1049 1039.47696 1028.03369 0.000953187
989 1039.20043 1028.06587 0.001011018
1012 1038.93652 1028.09804 0.000988263
1031 1038.68453 1028.13018 0.000969883
995 1038.44381 1028.16231 0.001005256
953 1038.21376 1028.19441 0.001049365
988 1037.99381 1028.22649 0.001012305
993 1037.78344 1028.25855 0.001007171
1018 1037.58215 1028.29059 0.000982079
987 1037.38949 1028.32261 0.001012949
953 1037.20503 1028.35461 0.001049365
993 1037.02836 1028.38658 0.001007171
948 1036.8591 1028.41854 0.001054826
951 1036.6969 1028.45047 0.001051408
941 1036.54142 1028.48239 0.001062403
1009 1036.39235 1028.51428 0.000991377
981 1036.24939 1028.54615 0.001019428
896 1036.11227 1028.578 0.001116315
916 1035.98071 1028.60982 0.001091378
972 1035.85448 1028.64163 0.001028603
1015 1035.73334 1028.67342 0.000985164
1013 1035.61707 1028.70518 0.000987022
977 1035.50545 1028.73692 0.001023345
1038 1035.39829 1028.76865 0.000963272
1023 1035.29541 1028.80035 0.000977784
1015 1035.19662 1028.83203 0.000985164
1042 1035.10175 1028.86369 0.000959694
991 1035.01066 1028.89532 0.001009092
1012 1032.75445 1028.92694 0.000988263
1009 1032.70721 1028.95853 0.000991377
1026 1032.66237 1028.99011 0.000974734
997 1032.61985 1029.02166 0.001002711
1015 1032.57953 1029.05319 0.000985164
1033 1032.54134 1029.0847 0.000968073
995 1032.50519 1029.11619 0.001005256
963 1032.47099 1029.14766 0.001038572
991 1032.43868 1029.1791 0.001009092
1004 1031.30782 1029.21053 0.000995762
962 1031.29784 1029.24193 0.001039241
952 1031.28906 1029.27331 0.001050726
989 1031.28142 1029.30468 0.001011018
1026 1031.27489 1029.33602 0.000974734
1012 1031.26941 1029.36733 0.000988263
985 1031.26495 1029.39863 0.001015533
987 1031.26147 1029.42991 0.001012949
1023 1031.25894 1029.46116 0.000977784
1003 1031.25731 1029.4924 0.00099702
960 1031.25655 1029.52361 0.001041927
954 1031.25664 1029.5548 0.001048007
988 1030.21146 1029.58597 0.001012305
985 1030.23097 1029.61712 0.001015533
916 1030.25077 1029.64825 0.001091378
958 1030.27087 1029.67935 0.001043948
962 1030.29124 1029.71044 0.001039241
1020 1030.31188 1029.7415 0.000980235
968 1030.33278 1029.77254 0.001033237
1052 1030.35392 1029.80356 0.000950837
989 1030.3753 1029.83456 0.001011018
1087 1030.39691 1029.86554 0.000919946
974 1029.8965 1029.8965 0.001026626
998 1029.92743 1029.92743 0.001002076
1042 1029.95835 1029.95835 0.000959694
1039 1029.98924 1029.98924 0.000962674
1032 1030.02011 1030.02011 0.000969279
1049 1030.05096 1030.05096 0.000953187
997 1030.08179 1030.08179 0.001002711
1006 1030.11259 1030.11259 0.000993879
1048 1030.14338 1030.14338 0.000954365
1011 1030.17414 1030.17414 0.000988885
1021 1030.20489 1030.20489 0.000979621
965 1030.23561 1030.23561 0.001036566
986 1030.26631 1030.26631 0.00101424
1022 1030.29699 1030.29699 0.000978396
1014 1030.32765 1030.32765 0.000986402
1021 1030.35828 1030.35828 0.000979621
1021 1030.3889 1030.3889 0.000979621
1018 1030.41949 1030.41949 0.000982079
1027 1030.45006 1030.45006 0.000973518
1023 1030.48061 1030.48061 0.000977784
976 1030.51114 1030.51114 0.001024656
960 1030.824 1030.54165 0.001041927
973 1030.86171 1030.57214 0.001027944
985 1030.89968 1030.6026 0.001015533
1008 1030.93792 1030.63305 0.000992002
991 1030.97645 1030.66347 0.001009092
966 1031.01529 1030.69387 0.001035233
958 1031.05445 1030.72425 0.001043948
959 1031.09395 1030.7546 0.0010426
952 1031.13382 1030.78494 0.001050726
958 1031.17407 1030.81526 0.001043948
971 1031.21473 1030.84555 0.001029924
936 1031.39865 1030.87582 0.001068664
937 1031.77734 1030.90607 0.001067268
921 1031.83172 1030.9363 0.001085632
925 1031.8871 1030.96651 0.001081352
943 1031.94355 1030.99669 0.001060328
989 1032.29852 1031.02686 0.001011018
959 1032.36495 1031.057 0.0010426
924 1032.43294 1031.08712 0.001082064
944 1032.5026 1031.11722 0.001059638
879 1032.57402 1031.1473 0.001137498
902 1032.64732 1031.17736 0.001108892
974 1032.72261 1031.2074 0.001026626
966 1032.96855 1031.23741 0.001035233
895 1033.05255 1031.2674 0.001117061
952 1033.13913 1031.29737 0.001050726
955 1033.37497 1031.32732 0.001047329
970 1033.47099 1031.35725 0.001031247
997 1033.5703 1031.38716 0.001002711
936 1033.67312 1031.41704 0.001068664
917 1035.67378 1031.44691 0.001090657
990 1035.83271 1031.47675 0.001010375
996 1035.99785 1031.50657 0.001003982
946 1036.16961 1031.53637 0.001056884
979 1036.34846 1031.56615 0.001021384
952 1036.53491 1031.5959 0.001050726
954 1036.7295 1031.62564 0.001048007
958 1036.93283 1031.65535 0.001043948
993 1037.14558 1031.68504 0.001007171
975 1037.36846 1031.71471 0.001025969
952 1037.60228 1031.74436 0.001050726
964 1038.80391 1031.77398 0.001037234
947 1039.0869 1031.80359 0.001056197
928 1039.38476 1031.83317 0.001077805
957 1039.69877 1031.86273 0.001044623
973 1040.03036 1031.89227 0.001027944
959 1041.23833 1031.92179 0.0010426
954 1041.63205 1031.95129 0.001048007
943 1042.04961 1031.98076 0.001060328
929 1042.49337 1032.01022 0.001076391
933 1042.96596 1032.03965 0.001071464
963 1043.47044 1032.06906 0.001038572
966 1044.01027 1032.09845 0.001035233
932 1044.58948 1032.12782 0.001072868
915 1045.21271 1032.15716 0.001092822
980 1045.88539 1032.18649 0.001020731
968 1047.03536 1032.21579 0.001033237
964 1047.83796 1032.24507 0.001037234
1002 1048.71335 1032.27433 0.00099828
984 1049.67235 1032.30357 0.001016181
986 1050.72811 1032.33278 0.00101424
954 1051.89673 1032.36198 0.001048007
974 1053.19819 1032.39115 0.001026626
941 1054.65751 1032.4203 0.001062403
926 1056.30653 1032.44943 0.001079931
974 1058.18641 1032.47854 0.001026626
994 1060.35147 1032.50762 0.001005894
940 1062.87629 1032.53669 0.001063789
995 1065.87081 1032.56573 0.001005256
961 1069.5174 1032.59475 0.001040583
1008 1074.16023 1032.62375 0.000992002
1015 1080.49506 1032.65273 0.000985164
939 1089.89088 1032.68168 0.001065179
991 1104.75955 1032.71061 0.001009092
993 1128.65231 1032.73953 0.001007171
1019 1165.56286 1032.76842 0.000981464
1031 1218.07662 1032.79729 0.000969883
1100 1284.48755 1032.82613 0.000908885
1095 1354.92019 1032.85496 0.000913285
1120 1407.44117 1032.88376 0.000892665
1132 1416.1893 1032.91254 0.000883141
1166 1379.6766 1032.9413 0.000857469
1121 1323.69894 1032.97004 0.000892132
1056 1273.38964 1032.99876 0.000946746
1055 1243.0465 1033.02746 0.000947912
1096 1240.01409 1033.05613 0.000912182
1152 1268.43718 1033.08478 0.000868113
1232 1330.70018 1033.11341 0.000811682
1298 1426.16145 1033.14202 0.000770321
1358 1546.82445 1033.1706 0.000736419
1485 1672.13499 1033.19917 0.00067325
1656 1771.80311 1033.22771 0.000603983
1780 1820.65536 1033.25623 0.000561799
1783 1817.93801 1033.28473 0.000560735
1732 1782.17099 1033.31321 0.000577292
1700 1719.27128 1033.34166 0.000588265
1584 1631.42335 1033.3701 0.000631297
1475 1541.87566 1033.39851 0.000677815
1358 1477.80435 1033.4269 0.000736419
1344 1452.79352 1033.45527 0.000744072
1392 1468.60287 1033.48362 0.000718372
1449 1518.97249 1033.51194 0.000689976
1478 1592.46751 1033.54024 0.000676758
1652 1684.10275 1033.56852 0.00060547
1796 1811.40983 1033.59678 0.000556773
1976 2003.18469 1033.62502 0.000506123
2280 2277.08359 1033.65324 0.000438584
2676 2633.14539 1033.68143 0.000373693
3308 3032.66222 1033.7096 0.000302247
3780 3356.66755 1033.73775 0.000264565
4040 3427.04438 1033.76588 0.000247532
3685 3182.4247 1033.79399 0.000271408
2925 2764.95381 1033.82207 0.000341922
2350 2347.76981 1033.85014 0.000425476
1986 2029.40986 1033.87818 0.000503628
1817 1848.14677 1033.9062 0.000550262
1784 1807.66381 1033.93419 0.00056047
1876 1891.94743 1033.96217 0.000533118
2182 2070.87961 1033.99012 0.000458332
2413 2294.70267 1034.01805 0.000414461
2668 2483.65094 1034.04596 0.000374852
2876 2561.98022 1034.07385 0.000347684
2791 2543.36991 1034.10172 0.000358293
2658 2504.99354 1034.12956 0.000376161
2620 2481.20847 1034.15738 0.000381619
2527 2430.61527 1034.18518 0.000395715
2505 2289.37288 1034.21296 0.000399201
2309 2066.27955 1034.24072 0.000433125
1978 1829.39576 1034.26845 0.000505668
1688 1631.47655 1034.29616 0.000592281
1532 1495.46682 1034.32385 0.000652767
1449 1426.15339 1034.35152 0.000689976
1436 1418.13802 1034.37917 0.000696548
1481 1459.28675 1034.40679 0.000675352
1543 1530.29962 1034.4344 0.000648122
1593 1599.5629 1034.46198 0.000627822
1627 1622.98725 1034.48954 0.000614509
1640 1574.77162 1034.51707 0.000609663
1551 1477.46243 1034.54459 0.000644835
1408 1370.64468 1034.57208 0.000710353
1259 1278.48971 1034.59955 0.000794388
1182 1209.45974 1034.627 0.000846035
1130 1162.64858 1034.65443 0.000884717
1113 1132.8528 1034.68184 0.000898562
1050 1114.15908 1034.70922 0.000952599
1041 1101.97473 1034.73658 0.000960885
1007 1093.41746 1034.76392 0.000993253
997 1086.93006 1034.79124 0.001002711
1013 1081.73155 1034.81853 0.000987022
998 1077.42353 1034.84581 0.001002076
1031 1073.80093 1034.87306 0.000969883
966 1070.67913 1034.90029 0.001035233
962 1067.97512 1034.92749 0.001039241
929 1065.61225 1034.95468 0.001076391
1043 1063.53162 1034.98184 0.000958506
957 1061.68712 1035.00898 0.001044623
972 1060.04217 1035.0361 0.001028603
926 1058.56733 1035.0632 0.001079931
952 1057.23872 1035.09027 0.001050726
978 1056.0367 1035.11733 0.001022691
949 1054.94501 1035.14436 0.001053456
977 1053.95006 1035.17137 0.001023345
959 1053.04041 1035.19835 0.0010426
955 1052.20636 1035.22532 0.001047329
966 1051.43961 1035.25226 0.001035233
955 1050.73308 1035.27918 0.001047329
947 1050.08061 1035.30608 0.001056197
954 1049.47688 1035.33296 0.001048007
963 1048.91727 1035.35981 0.001038572
965 1048.39771 1035.38665 0.001036566
995 1047.91464 1035.41346 0.001005256
1012 1047.46492 1035.44024 0.000988263
999 1047.04579 1035.46701 0.001000809
947 1046.65478 1035.49376 0.001056197
952 1046.28973 1035.52048 0.001050726
1004 1045.94868 1035.54718 0.000995762
1017 1045.62993 1035.57386 0.000983311
1021 1045.33195 1035.60051 0.000979621
993 1045.05336 1035.62714 0.001007171
986 1044.79297 1035.65376 0.00101424
1058 1044.54971 1035.68035 0.000945
1075 1044.32264 1035.70691 0.000930073
1048 1044.12738 1035.73346 0.000954365
1039 1043.9308 1035.75998 0.000962674
1039 1043.74833 1035.78648 0.000962674
1030 1043.57949 1035.81296 0.000971092
1022 1043.42392 1035.83942 0.000978396
1039 1043.28138 1035.86585 0.000962674
1029 1043.15174 1035.89226 0.000971698
1030 1043.035 1035.91865 0.000971092
1087 1042.93133 1035.94502 0.000919946
1094 1042.84106 1035.97137 0.000913838
1117 1042.76474 1035.99769 0.000895338
1079 1042.71136 1036.02399 0.000926679
1191 1042.66583 1036.05027 0.000839673
1104 1042.63766 1036.07653 0.000905606
1082 1042.62885 1036.10277 0.000924426
1108 1042.5124 1036.12898 0.000902345
1074 1042.55346 1036.15517 0.000931209
982 1042.62499 1036.18134 0.001018127
1025 1042.73388 1036.20748 0.000975343
988 1042.89055 1036.23361 0.001012305
995 1043.11264 1036.25971 0.001005256
1018 1043.43341 1036.28579 0.000982079
1027 1043.91825 1036.31185 0.000973518
1046 1044.68976 1036.33788 0.000956137
979 1045.95122 1036.36389 0.001021384
1003 1047.98147 1036.38988 0.00099702
956 1051.00278 1036.41585 0.001045974
979 1055.29725 1036.4418 0.001021384
1018 1060.46715 1036.46772 0.000982079
998 1066.04287 1036.49363 0.001002076
991 1070.36646 1036.5195 0.001009092
993 1072.14235 1036.54536 0.001007171
1069 1072.70006 1036.5712 0.0009352
1070 1074.3031 1036.59701 0.000934628
1024 1078.44333 1036.6228 0.000976562
988 1084.88553 1036.64857 0.001012305
1016 1091.3646 1036.67431 0.000984546
1025 1094.09186 1036.70004 0.000975343
1001 1091.08535 1036.72574 0.000998912
1004 1084.74342 1036.75142 0.000995762
1009 1078.00432 1036.77708 0.000991377
1020 1072.05624 1036.80271 0.000980235
1015 1066.93095 1036.82832 0.000985164
982 1063.23016 1036.85391 0.001018127
980 1061.57475 1036.87948 0.001020731
992 1062.09039 1036.90503 0.001007811
998 1063.27198 1036.93055 0.001002076
987 1065.33609 1036.95605 0.001012949
993 1065.30128 1036.98153 0.001007171
1009 1062.25446 1037.00698 0.000991377
995 1057.44442 1037.03242 0.001005256
941 1052.54295 1037.05783 0.001062403
944 1048.46778 1037.08322 0.001059638
948 1045.48768 1037.10859 0.001054826
994 1043.50392 1037.13393 0.001005894
965 1042.26045 1037.15925 0.001036566
1024 1041.49277 1037.18455 0.000976562
950 1040.57377 1037.20983 0.001052773
933 1040.24723 1037.23508 0.001071464
986 1040.01231 1037.26032 0.00101424
927 1039.83672 1037.28553 0.001078513
966 1039.70404 1037.31071 0.001035233
911 1039.22171 1037.33588 0.001097897
986 1039.15757 1037.36102 0.00101424
961 1039.11829 1037.38614 0.001040583
970 1039.10207 1037.41124 0.001031247
964 1039.10845 1037.43632 0.001037234
967 1039.13836 1037.46137 0.001033902
967 1039.1944 1037.4864 0.001033902
976 1039.28186 1037.51141 0.001024656
939 1039.41129 1037.5364 0.001065179
972 1039.6046 1037.56136 0.001028603
982 1039.71336 1037.58631 0.001018127
970 1040.21639 1037.61122 0.001031247
958 1041.06432 1037.63612 0.001043948
962 1042.46138 1037.661 0.001039241
939 1044.61575 1037.68585 0.001065179
971 1047.62578 1037.71068 0.001029924
990 1051.31293 1037.73548 0.001010375
958 1054.99222 1037.76027 0.001043948
938 1057.30644 1037.78503 0.001065874
954 1056.95305 1037.80977 0.001048007
955 1054.2258 1037.83449 0.001047329
923 1050.63563 1037.85918 0.001083489
945 1047.39556 1037.88386 0.00105826
998 1045.08467 1037.90851 0.001002076
981 1043.87975 1037.93313 0.001019428
958 1043.73991 1037.95774 0.001043948
961 1044.50322 1037.98232 0.001040583
951 1045.9004 1038.00688 0.001051408
972 1047.47727 1038.03142 0.001028603
993 1048.49698 1038.05593 0.001007171
958 1048.24444 1038.08043 0.001043948
994 1046.78904 1038.1049 0.001005894
1003 1044.85492 1038.12934 0.00099702
962 1043.04127 1038.15377 0.001039241
946 1041.61422 1038.17817 0.001056884
916 1040.61833 1038.20255 0.001091378
970 1039.98281 1038.22691 0.001031247
956 1041.19135 1038.25125 0.001045974
914 1041.00084 1038.27556 0.001094268
991 1040.89847 1038.29985 0.001009092
1004 1040.84568 1038.32412 0.000995762
972 1040.82263 1038.34836 0.001028603
979 1040.81946 1038.37258 0.001021384
938 1040.831 1038.39678 0.001065874
987 1040.85418 1038.42096 0.001012949
1018 1040.887 1038.44512 0.000982079
965 1040.92804 1038.46925 0.001036566
950 1040.97629 1038.49336 0.001052773
996 1041.03098 1038.51744 0.001003982
977 1041.901 1038.54151 0.001023345
994 1041.98754 1038.56555 0.001005894
1005 1042.08009 1038.58957 0.000995134
980 1042.17854 1038.61357 0.001020731
940 1042.28281 1038.63754 0.001063789
1010 1042.39294 1038.66149 0.00099013
1027 1042.50898 1038.68542 0.000973518
991 1042.63107 1038.70933 0.001009092
1031 1042.75938 1038.73321 0.000969883
1065 1042.89413 1038.75707 0.000939217
1008 1043.03559 1038.78091 0.000992002
1011 1043.18407 1038.80473 0.000988885
1028 1043.33991 1038.82852 0.000972911
1015 1043.50353 1038.85229 0.000985164
1012 1043.67537 1038.87604 0.000988263
1035 1043.85594 1038.89977 0.000966269
1015 1044.04581 1038.92347 0.000985164
986 1044.24558 1038.94715 0.00101424
992 1044.45595 1038.97081 0.001007811
989 1044.67767 1038.99444 0.001011018
1010 1044.9116 1039.01806 0.00099013
1036 1045.15867 1039.04165 0.000965068
1025 1045.41991 1039.06521 0.000975343
1003 1045.69645 1039.08876 0.00099702
1018 1045.98959 1039.11228 0.000982079
991 1046.30074 1039.13578 0.001009092
950 1046.63146 1039.15926 0.001052773
979 1046.98354 1039.18271 0.001021384
987 1047.35893 1039.20614 0.001012949
981 1047.75985 1039.22955 0.001019428
1005 1048.18878 1039.25294 0.000995134
963 1048.64854 1039.2763 0.001038572
996 1049.14229 1039.29964 0.001003982
970 1049.67363 1039.32296 0.001031247
983 1050.24664 1039.34625 0.001017478
953 1050.866 1039.36953 0.001049365
999 1051.53705 1039.39278 0.001000809
992 1053.09468 1039.416 0.001007811
982 1053.89979 1039.43921 0.001018127
931 1054.78855 1039.46239 0.001074275
1004 1055.7609 1039.48555 0.000995762
1071 1056.82814 1039.50868 0.000933486
1000 1058.00351 1039.5318 0.001000176
970 1059.30271 1039.55489 0.001031247
987 1060.74439 1039.57796 0.001012949
1016 1062.33282 1039.601 0.000984546
972 1064.13139 1039.62402 0.001028603
954 1066.15443 1039.64702 0.001048007
976 1068.44197 1039.67 0.001024656
1068 1071.45842 1039.69295 0.000936345
1053 1074.44608 1039.71589 0.000949665
1039 1077.88714 1039.73879 0.000962674
1021 1081.88018 1039.76168 0.000979621
1042 1086.55213 1039.78454 0.000959694
1023 1092.06865 1039.80738 0.000977784
1009 1098.64967 1039.8302 0.000991377
1004 1106.58635 1039.853 0.000995762
1032 1116.32782 1039.87577 0.000969279
1031 1129.72958 1039.89852 0.000969883
1047 1145.65276 1039.92124 0.000954955
1086 1167.62632 1039.94395 0.000921063
1120 1200.4108 1039.96663 0.000892665
1162 1252.95773 1039.98929 0.00086049
1201 1339.96728 1040.01192 0.000832421
1356 1481.18405 1040.03453 0.00073762
1597 1695.96363 1040.05712 0.000626252
1909 1992.15166 1040.07969 0.000523885
2546 2349.94329 1040.10223 0.00039274
3342 2699.45869 1040.12476 0.000299222
3852 2907.2372 1040.14725 0.000259643
3765 2855.2806 1040.16973 0.000265601
3005 2581.87747 1040.19218 0.000332753
2258 2234.46978 1040.21461 0.00044284
1758 1923.10281 1040.23702 0.000568788
1506 1700.24356 1040.2594 0.000663915
1412 1580.76035 1040.28176 0.000708087
1450 1560.49186 1040.3041 0.000689614
1510 1625.49938 1040.32642 0.000662208
1810 1753.79875 1040.34871 0.000552593
2059 1908.29068 1040.37098 0.000485591
2439 2025.90167 1040.39323 0.000409942
2554 2030.85263 1040.41545 0.000391498
2223 1910.58208 1040.43765 0.000449818
1923 1728.03681 1040.45983 0.000520069
1482 1546.50871 1040.48199 0.00067465
1328 1398.36486 1040.50412 0.000753084
1260 1291.71692 1040.52623 0.000793493
1173 1221.73424 1040.54831 0.000852469
1190 1178.40007 1040.57038 0.00084016
1157 1151.93092 1040.59242 0.000864543
1141 1135.19817 1040.61444 0.000876356
1158 1124.24771 1040.63643 0.000863527
1104 1116.48811 1040.6584 0.000905606
1072 1110.39195 1040.68035 0.000932916
1059 1105.73872 1040.70228 0.000944419
1085 1102.19918 1040.72418 0.000921622
1097 1099.56701 1040.74606 0.000911632
1063 1097.70526 1040.76792 0.000940946
1074 1096.52322 1040.78975 0.000931209
1115 1095.96517 1040.81156 0.000896948
1126 1096.00089 1040.83335 0.000887884
1102 1096.6381 1040.85512 0.000907243
1138 1097.90024 1040.87686 0.000878956
1164 1100.02737 1040.89858 0.000858978
1126 1102.75275 1040.92028 0.000887884
1158 1106.3991 1040.94195 0.000863527
1213 1111.18992 1040.9636 0.000824315
1263 1117.49645 1040.98523 0.000791708
1334 1126.00446 1041.00683 0.000749788
1329 1138.08241 1041.02842 0.000752258
1307 1156.45983 1041.04997 0.000765215
1266 1186.15886 1041.07151 0.000789929
1292 1235.16465 1041.09302 0.000774183
1389 1313.73474 1041.11451 0.000719915
1499 1431.17216 1041.13598 0.000667005
1598 1589.77876 1041.15742 0.000625939
1868 1776.24264 1041.17884 0.000535341
2010 1949.77225 1041.20024 0.00049758
2082 2039.02916 1041.22162 0.000480285
1979 1992.60851 1041.24297 0.000505214
1874 1844.09836 1041.2643 0.000533611
1715 1668.63074 1041.2856 0.000583162
1576 1517.82237 1041.30688 0.000634482
1487 1414.20674 1041.32814 0.000672552
1426 1363.40609 1041.34938 0.000701352
1501 1362.59834 1041.37059 0.000666317
1441 1404.86887 1041.39178 0.000693981
1563 1479.54087 1041.41295 0.00063995
1688 1568.34163 1041.4341 0.000592281
1632 1639.57409 1041.45522 0.000612685
1706 1657.26547 1041.47631 0.000586273
1681 1618.67542 1041.49739 0.000594884
1707 1561.94699 1041.51844 0.000585706
1670 1529.4502 1041.53947 0.000598674
1725 1551.11133 1041.56048 0.000579797
1832 1645.54355 1041.58146 0.000545899
2007 1818.31743 1041.60242 0.000498246
2277 2054.95879 1041.62335 0.000439136
2495 2308.21456 1041.64427 0.000400801
2642 2485.17837 1041.66516 0.000378507
2606 2486.12026 1041.68602 0.000383715
2485 2312.65383 1041.70687 0.000402411
2158 2064.67568 1041.72769 0.000463477
1907 1833.3595 1041.74849 0.000524365
1738 1665.38263 1041.76926 0.000575355
1692 1578.75357 1041.79001 0.000591129
1753 1578.29633 1041.81074 0.000570419
1857 1664.33315 1041.83145 0.000538576
2009 1834.01226 1041.85213 0.000497802
2168 2074.12565 1041.87279 0.00046129
2393 2346.12133 1041.89342 0.000417856
2607 2576.0117 1041.91404 0.000383564
2692 2682.42718 1041.93462 0.000371535
2680 2625.9696 1041.95519 0.000373116
2523 2436.7468 1041.97573 0.000396345
2329 2207.16421 1041.99625 0.000429364
2095 2023.7285 1042.01675 0.000477351
1942 1929.47269 1042.03722 0.000514889
1830 1933.23445 1042.05767 0.00054641
1923 2019.94937 1042.0781 0.000520069
2008 2147.06524 1042.09851 0.000498024
2088 2244.59525 1042.11889 0.000479024
2139 2259.1788 1042.13924 0.000467495
2188 2200.32061 1042.15958 0.000456961
1997 2097.48818 1042.17989 0.000500702
1862 1960.96591 1042.20018 0.000537079
1751 1814.38696 1042.22044 0.000571237
1671 1698.21132 1042.24068 0.000598382
1545 1640.37626 1042.2609 0.000647134
1583 1649.83873 1042.2811 0.000631615
1495 1721.2052 1042.30127 0.000668731
1619 1832.52937 1042.32142 0.000617567
1689 1936.5933 1042.34154 0.000591993
1692 1966.29992 1042.36164 0.000591129
1668 1887.05511 1042.38172 0.000599554
1541 1735.3991 1042.40178 0.000648783
1430 1571.57844 1042.42181 0.000699128
1314 1432.42804 1042.44182 0.000760999
1220 1331.89909 1042.46181 0.000819602
1172 1270.57176 1042.48177 0.000853466
1111 1242.96857 1042.50171 0.00090018
1119 1241.89098 1042.52162 0.000893733
1141 1259.83376 1042.54152 0.000876356
1185 1287.62034 1042.56139 0.00084407
1199 1311.26775 1042.58123 0.000833864
1180 1313.1932 1042.60106 0.000847513
1124 1286.66419 1042.62086 0.000889473
1096 1243.52015 1042.64063 0.000912182
1102 1199.03521 1042.66039 0.000907243
1087 1161.44443 1042.68011 0.000919946
1053 1132.63454 1042.69982 0.000949665
1005 1113.35169 1042.7195 0.000995134
1002 1100.72839 1042.73916 0.00099828
1040 1092.48775 1042.7588 0.000961481
1017 1086.8745 1042.77841 0.000983311
1009 1082.7833 1042.798 0.000991377
1043 1079.60562 1042.81757 0.000958506
1031 1077.02733 1042.83711 0.000969883
1026 1074.88304 1042.85663 0.000974734
1012 1073.07711 1042.87613 0.000988263
1022 1071.54771 1042.8956 0.000978396
1027 1069.88814 1042.91505 0.000973518
1023 1068.80016 1042.93448 0.000977784
1020 1068.60749 1042.95388 0.000980235
1029 1067.88094 1042.97326 0.000971698
1039 1067.3096 1042.99262 0.000962674
1024 1066.88932 1043.01195 0.000976562
1052 1066.62137 1043.03126 0.000950837
1016 1066.51298 1043.05055 0.000984546
999 1066.5786 1043.06981 0.001000809
1040 1066.8427 1043.08905 0.000961481
975 1067.34601 1043.10826 0.001025969
981 1068.16075 1043.12746 0.001019428
974 1069.42652 1043.14663 0.001026626
1104 1071.42448 1043.16577 0.000905606
1002 1075.05952 1043.18489 0.00099828
976 1080.58063 1043.20399 0.001024656
1056 1089.75472 1043.22307 0.000946746
1047 1104.23008 1043.24212 0.000954955
1113 1125.22876 1043.26115 0.000898562
1077 1152.47087 1043.28016 0.000928374
1110 1182.65035 1043.29914 0.00090072
1109 1207.51456 1043.3181 0.000901803
1101 1215.28931 1043.33703 0.000908337
1092 1201.56564 1043.35594 0.000915497
1064 1175.89019 1043.37483 0.000939793
1088 1148.4053 1043.3937 0.000919388
1043 1126.34143 1043.41254 0.000958506
1083 1112.15656 1043.43135 0.000923303
1094 1106.2495 1043.45015 0.000913838
1081 1108.00773 1043.46892 0.000924989
1086 1116.39958 1043.48767 0.000921063
1165 1129.90315 1043.50639 0.000858475
1206 1145.83087 1043.52509 0.000829069
1268 1159.45419 1043.54377 0.000788599
1355 1166.47064 1043.56242 0.00073802
1370 1166.10981 1043.58105 0.000730066
1283 1167.23113 1043.59966 0.000779379
1198 1177.92013 1043.61824 0.000834828
1216 1204.36157 1043.6368 0.000822425
1220 1249.84649 1043.65534 0.000819602
1184 1311.00772 1043.67385 0.00084456
1220 1375.89014 1043.69234 0.000819602
1279 1420.41793 1043.7108 0.000781997
1264 1419.04459 1043.72925 0.000791263
1243 1372.71893 1043.74766 0.000804332
1266 1307.33582 1043.76606 0.000789929
1251 1246.30936 1043.78443 0.000799337
1229 1200.30597 1043.80278 0.000813535
1187 1173.59762 1043.8211 0.0008426
1178 1166.29553 1043.8394 0.000848996
1155 1177.84175 1043.85768 0.000865561
1111 1206.66603 1043.87593 0.00090018
1148 1249.96323 1043.89416 0.000871191
1157 1300.70663 1043.91237 0.000864543
1132 1344.897 1043.93055 0.000883141
1198 1366.78708 1043.94871 0.000834828
1232 1360.42456 1043.96685 0.000811682
1245 1328.20561 1043.98496 0.00080342
1160 1278.84411 1044.00305 0.000862007
1186 1226.21087 1044.02111 0.00084309
1133 1182.25046 1044.03916 0.000882616
1126 1150.47489 1044.05717 0.000887884
1144 1130.8383 1044.07517 0.000874285
1120 1121.70032 1044.09314 0.000892665
1117 1121.16857 1044.11109 0.000895338
1108 1127.49556 1044.12901 0.000902345
1096 1138.73229 1044.14691 0.000912182
1110 1151.80628 1044.16478 0.00090072
1141 1161.54135 1044.18264 0.000876356
1088 1162.49919 1044.20047 0.000919388
1106 1154.66769 1044.21827 0.000903973
1099 1143.12559 1044.23605 0.000909982
1087 1133.33361 1044.25381 0.000919946
1098 1127.19946 1044.27155 0.000910532
1103 1126.52792 1044.28926 0.000906697
1091 1131.7006 1044.30694 0.000916606
1157 1144.26005 1044.32461 0.000864543
1193 1167.65408 1044.34225 0.000838215
1233 1207.98935 1044.35986 0.000811219
1334 1277.34204 1044.37746 0.000749788
1463 1375.27112 1044.39503 0.000683498
1593 1507.26533 1044.41257 0.000627822
1753 1663.30346 1044.43009 0.000570419
1910 1809.93979 1044.44759 0.000523645
1966 1888.03126 1044.46506 0.000508638
1939 1853.05104 1044.48251 0.000515825
1784 1729.7108 1044.49994 0.00056047
1654 1580.38927 1044.51734 0.000604577
1539 1449.12055 1044.53472 0.000649776
1405 1355.1526 1044.55208 0.00071187
1390 1306.84483 1044.56941 0.000719529
1359 1297.20171 1044.58672 0.00073602
1388 1321.05757 1044.604 0.000720301
1435 1377.47073 1044.62127 0.000696915
1532 1449.17194 1044.6385 0.000652767
1652 1520.01265 1044.65572 0.00060547
1682 1559.46046 1044.67291 0.000594594
1641 1546.64751 1044.69007 0.000609362
1629 1497.52273 1044.70721 0.0006139
1569 1447.52728 1044.72433 0.000637368
1585 1424.31563 1044.74143 0.00063098
1560 1443.77378 1044.7585 0.000640923
1768 1513.6208 1044.77555 0.000565546
1827 1625.20124 1044.79257 0.000547433
2055 1759.15614 1044.80957 0.000486663
2124 1873.13916 1044.82654 0.000470746
2326 1906.84531 1044.8435 0.000429898
2214 1845.31419 1044.86043 0.000451732
1946 1731.92749 1044.87733 0.000513956
1825 1620.71243 1044.89421 0.000547946
1686 1548.33898 1044.91107 0.000593147
1660 1536.19784 1044.9279 0.000602501
1719 1595.15097 1044.94471 0.000581757
1820 1726.43989 1044.9615 0.000549488
2055 1917.67184 1044.97826 0.000486663
2187 2132.67534 1044.995 0.000457157
2361 2300.62418 1045.01171 0.000423551
2460 2340.9462 1045.0284 0.000406478
2453 2234.10153 1045.04507 0.000407627
2254 2035.12852 1045.06171 0.000443587
2011 1817.87765 1045.07833 0.000497358
1769 1632.77053 1045.09492 0.000565277
1623 1502.10607 1045.1115 0.000616035
1495 1430.0475 1045.12804 0.000668731
1385 1411.44311 1045.14457 0.000721851
1407 1436.82859 1045.16107 0.000710732
1443 1493.07797 1045.17754 0.000692885
1474 1559.72343 1045.194 0.000678522
1524 1604.264 1045.21042 0.000656116
1547 1594.47443 1045.22683 0.000646476
1518 1531.38379 1045.24321 0.000658813
1446 1445.95377 1045.25957 0.000691429
1382 1365.10381 1045.2759 0.000723405
1314 1301.19083 1045.29221 0.000760999
1195 1256.73183 1045.30849 0.000836761
1201 1229.09736 1045.32475 0.000832421
1151 1213.77655 1045.34099 0.000868625
1125 1206.5246 1045.3572 0.000888943
1163 1204.31188 1045.37339 0.000859986
1212 1205.3581 1045.38956 0.000825262
1224 1208.77133 1045.4057 0.000816793
1166 1214.17606 1045.42182 0.000857469
1195 1221.47164 1045.43791 0.000836761
1196 1230.65172 1045.45398 0.000836277
1263 1242.00723 1045.47003 0.000791708
1246 1255.74752 1045.48605 0.00080251
1269 1272.26425 1045.50205 0.000788156
1244 1292.10056 1045.51802 0.000803876
1264 1316.00901 1045.53397 0.000791263
1257 1345.06478 1045.5499 0.000795733
1290 1380.91902 1045.5658 0.000775046
1343 1426.39604 1045.58168 0.000744478
1420 1486.82492 1045.59754 0.000704333
1537 1572.5916 1045.61337 0.000650771
1681 1702.96429 1045.62917 0.000594884
1909 1909.67634 1045.64496 0.000523885
2149 2236.53571 1045.66072 0.000465279
2578 2729.41063 1045.67645 0.000387959
3194 3414.46876 1045.69216 0.000313037
4122 4264.94616 1045.70785 0.000242622
5132 5153.12348 1045.72351 0.000194845
5772 5802.51423 1045.73915 0.000173267
5704 5897.55631 1045.75477 0.000175338
5217 5428.89931 1045.77036 0.000191675
4492 4719.45583 1045.78592 0.000222634
3848 4088.22208 1045.80147 0.000259894
3590 3720.6058 1045.81698 0.00027852
3633 3713.75236 1045.83248 0.000275295
4124 4116.91162 1045.84795 0.000242471
5063 4942.32557 1045.8634 0.000197538
6191 6145.61592 1045.87882 0.000161537
7729 7566.5841 1045.89422 0.000129397
9358 8879.55017 1045.90959 0.000106853
10255 9736.32765 1045.92495 0.000097508
10374 10002.06859 1045.94027 0.0000964
9840 9690.1174 1045.95557 0.000101619
8827 8815.2601 1045.97085 0.000113294
7415 7512.34597 1045.98611 0.000134863
5859 6134.51121 1046.00134 0.000170696
4663 5003.38975 1046.01655 0.00021443
4004 4263.57848 1046.03173 0.000249728
3677 3930.58495 1046.04689 0.000271945
3790 3945.78351 1046.06202 0.000263878
4178 4191.63722 1046.07713 0.00023933
4505 4492.01299 1046.09222 0.000221971
4826 4679.34216 1046.10728 0.000207207
4988 4719.90444 1046.12232 0.000200457
4650 4643.57585 1046.13733 0.000215059
4439 4396.19476 1046.15232 0.000225248
4087 3928.91197 1046.16729 0.000244676
3216 3339.56855 1046.18223 0.000310943
2584 2774.15558 1046.19715 0.000387044
2134 2311.75768 1046.21204 0.000468507
1767 1969.82446 1046.22691 0.000565815
1607 1734.37605 1046.24175 0.000622197
1438 1579.33317 1046.25658 0.000695446
1409 1477.91622 1046.27137 0.000709596
1391 1409.62314 1046.28615 0.000718757
1295 1360.60896 1046.30089 0.000772034
1229 1323.25112 1046.31562 0.000813535
1228 1293.37736 1046.33032 0.000814464
1219 1268.73439 1046.345 0.000820541
1187 1248.0067 1046.35965 0.0008426
1157 1230.33939 1046.37428 0.000864543
1127 1215.83856 1046.38888 0.000887355
1098 1202.64395 1046.40346 0.000910532
1083 1190.77665 1046.41801 0.000923303
1045 1180.62068 1046.43255 0.000956728
1040 1171.62804 1046.44705 0.000961481
1071 1163.62469 1046.46154 0.000933486
1078 1156.54845 1046.476 0.000927808
1085 1150.12784 1046.49043 0.000921622
1076 1144.34469 1046.50484 0.000929506
1069 1139.11982 1046.51923 0.0009352
1068 1134.38714 1046.53359 0.000936345
1047 1130.09108 1046.54793 0.000954955
1100 1126.53627 1046.56224 0.000908885
1123 1122.98884 1046.57653 0.000890535
1033 1119.59573 1046.5908 0.000968073
1046 1116.65706 1046.60504 0.000956137
1059 1113.98361 1046.61925 0.000944419
1058 1111.55578 1046.63345 0.000945
1078 1109.35754 1046.64762 0.000927808
1014 1107.58028 1046.66176 0.000986402
1058 1105.81162 1046.67588 0.000945
1080 1104.24471 1046.68998 0.000926115
1036 1102.87694 1046.70405 0.000965068
1072 1101.70951 1046.71809 0.000932916
1066 1100.46 1046.73212 0.000938067
1098 1099.71975 1046.74612 0.000910532
1079 1099.19829 1046.76009 0.000926679
1097 1098.95228 1046.77404 0.000911632
1102 1099.00429 1046.78797 0.000907243
1135 1099.41031 1046.80187 0.000881045
1124 1100.25723 1046.81575 0.000889473
1176 1101.69316 1046.8296 0.000850482
1086 1104.09948 1046.84343 0.000921063
1154 1107.82117 1046.85723 0.00086658
1094 1114.00553 1046.87101 0.000913838
1115 1124.1085 1046.88477 0.000896948
1086 1141.34873 1046.8985 0.000921063
1112 1168.75838 1046.91221 0.000899101
1134 1208.55247 1046.92589 0.000882092
1160 1260.45168 1046.93955 0.000862007
1226 1318.68757 1046.95319 0.00081586
1194 1368.28253 1046.9668 0.00083773
1256 1386.59755 1046.98038 0.000796182
1264 1362.76657 1046.99394 0.000791263
1245 1311.90506 1047.00748 0.00080342
1186 1256.39369 1047.02099 0.00084309
1150 1209.74744 1047.03448 0.00086965
1129 1177.06059 1047.04795 0.000885771
1192 1159.51842 1047.06139 0.0008387
1236 1155.88087 1047.0748 0.000808914
1193 1164.59664 1047.08819 0.000838215
1184 1183.87535 1047.10156 0.00084456
1186 1210.86334 1047.1149 0.00084309
1255 1239.89289 1047.12822 0.000796632
1305 1261.20717 1047.14152 0.000766487
1251 1266.49746 1047.15478 0.000799337
1292 1259.92014 1047.16803 0.000774183
1323 1254.6249 1047.18125 0.000755985
1341 1260.70636 1047.19445 0.000745699
1413 1279.7652 1047.20762 0.00070771
1382 1305.91382 1047.22077 0.000723405
1424 1324.13649 1047.23389 0.000702096
1450 1318.14505 1047.24699 0.000689614
1419 1287.56222 1047.26006 0.000704707
1350 1246.98634 1047.27311 0.000740835
1257 1209.58218 1047.28614 0.000795733
1200 1181.83316 1047.29914 0.000833382
1236 1165.91182 1047.31212 0.000808914
1230 1162.08104 1047.32507 0.000813071
1191 1170.25437 1047.338 0.000839673
1172 1190.71798 1047.3509 0.000853466
1224 1223.94942 1047.36378 0.000816793
1262 1268.62785 1047.37663 0.0007926
1257 1320.13352 1047.38946 0.000795733
1430 1369.10381 1047.40227 0.000699128
1444 1406.69856 1047.41505 0.000692521
1478 1430.01279 1047.42781 0.000676758
1558 1444.23349 1047.44054 0.000641898
1502 1467.16129 1047.45325 0.000665629
1601 1520.43715 1047.46593 0.000624688
1683 1610.84669 1047.47859 0.000594304
1863 1733.24763 1047.49123 0.00053683
1997 1850.91736 1047.50384 0.000500702
2138 1905.27446 1047.51642 0.000467697
2005 1858.74248 1047.52898 0.000498691
1885 1740.7598 1047.54152 0.000530421
1694 1608.23438 1047.55403 0.000590268
1582 1496.69982 1047.56652 0.00063225
1443 1417.04335 1047.57898 0.000692885
1352 1365.20197 1047.59142 0.000739627
1373 1337.33033 1047.60383 0.00072849
1339 1333.07541 1047.61622 0.000746922
1352 1357.40592 1047.62859 0.000739627
1413 1404.04423 1047.64093 0.00070771
1472 1463.29761 1047.65325 0.000679229
1571 1508.498 1047.66554 0.000636404
1587 1515.04941 1047.6778 0.00063003
1523 1478.24722 1047.69005 0.000656452
1455 1424.96253 1047.70226 0.000687446
1418 1381.74057 1047.71446 0.000705082
1434 1359.98078 1047.72663 0.000697284
1415 1357.05346 1047.73877 0.000706582
1441 1357.44212 1047.75089 0.000693981
1470 1340.61187 1047.76299 0.000680293
1446 1302.26675 1047.77506 0.000691429
1334 1253.52304 1047.7871 0.000749788
1286 1207.54837 1047.79912 0.000777642
1210 1170.21833 1047.81112 0.000826211
1149 1145.31933 1047.82309 0.000870163
1116 1131.65884 1047.83504 0.000895874
1154 1128.06212 1047.84696 0.00086658
1185 1133.24094 1047.85886 0.00084407
1201 1145.71965 1047.87074 0.000832421
1177 1163.00416 1047.88259 0.000849491
1127 1180.09184 1047.89441 0.000887355
1210 1188.71604 1047.90621 0.000826211
1170 1182.31108 1047.91799 0.000854464
1199 1163.65256 1047.92974 0.000833864
1206 1141.03494 1047.94146 0.000829069
1145 1120.45379 1047.95317 0.000873251
1089 1104.37359 1047.96484 0.000918274
1048 1093.08834 1047.9765 0.000954365
1037 1085.80664 1047.98812 0.000964469
1102 1081.39388 1047.99973 0.000907243
1045 1078.83918 1048.01131 0.000956728
1037 1077.4414 1048.02286 0.000964469
998 1076.79658 1048.03439 0.001002076
1012 1076.70824 1048.04589 0.000988263
1044 1077.10336 1048.05737 0.000957913
1043 1077.98315 1048.06883 0.000958506
1089 1079.40937 1048.08026 0.000918274
1064 1081.52664 1048.09167 0.000939793
1029 1084.63526 1048.10305 0.000971698
1022 1089.34114 1048.1144 0.000978396
1038 1096.79097 1048.12574 0.000963272
1114 1108.91738 1048.13704 0.000897485
1110 1128.47204 1048.14833 0.00090072
1114 1158.52176 1048.15958 0.000897485
1161 1201.18958 1048.17082 0.000861501
1201 1255.6516 1048.18202 0.000832421
1263 1315.19596 1048.19321 0.000791708
1331 1363.50689 1048.20437 0.000751433
1363 1377.88821 1048.2155 0.000733629
1306 1350.35042 1048.22661 0.000765638
1201 1298.20639 1048.2377 0.000832421
1156 1243.33168 1048.24876 0.000865052
1157 1198.17447 1048.25979 0.000864543
1177 1167.32273 1048.2708 0.000849491
1165 1151.25995 1048.28179 0.000858475
1104 1148.82614 1048.29275 0.000905606
1103 1158.5848 1048.30369 0.000906697
1149 1179.08899 1048.3146 0.000870163
1223 1207.94791 1048.32549 0.000817728
1247 1240.36426 1048.33635 0.000802056
1187 1267.41955 1048.34719 0.0008426
1245 1280.20287 1048.358 0.00080342
1280 1281.60496 1048.36879 0.000781123
1261 1286.79609 1048.37955 0.000793047
1263 1310.8606 1048.39029 0.000791708
1301 1362.26635 1048.401 0.000768613
1460 1440.92641 1048.41169 0.00068493
1509 1534.83554 1048.42236 0.000662549
1630 1614.80411 1048.433 0.000613596
1638 1640.56616 1048.44361 0.000610567
1573 1597.64231 1048.4542 0.000635762
1517 1516.92814 1048.46476 0.000659151
1423 1439.18525 1048.47531 0.00070284
1398 1390.00829 1048.48582 0.000715301
1402 1380.13336 1048.49631 0.000713392
1319 1410.18545 1048.50678 0.000758068
1326 1471.5515 1048.51722 0.000754325
1373 1544.20702 1048.52763 0.00072849
1449 1597.96232 1048.53803 0.000689976
1387 1613.07214 1048.54839 0.000721075
1454 1596.96649 1048.55873 0.000687807
1464 1560.46768 1048.56905 0.000683141
1425 1501.50499 1048.57934 0.000701724
1352 1424.25553 1048.58961 0.000739627
1305 1347.05704 1048.59985 0.000766487
1216 1286.20115 1048.61007 0.000822425
1212 1248.53528 1048.62026 0.000825262
1200 1234.55568 1048.63043 0.000833382
1145 1240.56404 1048.64057 0.000873251
1182 1258.78003 1048.65069 0.000846035
1198 1276.12233 1048.66078 0.000834828
1196 1276.37514 1048.67085 0.000836277
1207 1253.16254 1048.68089 0.000828591
1162 1215.83019 1048.69091 0.00086049
1119 1177.11545 1048.70091 0.000893733
1075 1144.16778 1048.71087 0.000930073
1055 1119.24486 1048.72082 0.000947912
1051 1101.88218 1048.73074 0.000951424
1063 1090.38823 1048.74063 0.000940946
1062 1082.86835 1048.7505 0.000941524
967 1077.79521 1048.76034 0.001033902
995 1074.16149 1048.77016 0.001005256
1029 1071.38728 1048.77996 0.000971698
1022 1069.1623 1048.78973 0.000978396
994 1067.27575 1048.79947 0.001005894
991 1065.72098 1048.80919 0.001009092
960 1064.32027 1048.81889 0.001041927
1042 1063.17202 1048.82856 0.000959694
1012 1062.17187 1048.8382 0.000988263
1005 1061.29471 1048.84782 0.000995134
1019 1060.52086 1048.85741 0.000981464
962 1059.83474 1048.86698 0.001039241
973 1059.22385 1048.87653 0.001027944
1023 1058.35802 1048.88605 0.000977784
1001 1057.87433 1048.89554 0.000998912
1002 1057.44077 1048.90501 0.00099828
987 1057.05192 1048.91446 0.001012949
973 1056.70332 1048.92388 0.001027944
1000 1056.39144 1048.93327 0.001000176
982 1056.07847 1048.94264 0.001018127
972 1055.83287 1048.95199 0.001028603
1036 1055.61764 1048.96131 0.000965068
1010 1055.432 1048.9706 0.00099013
1008 1055.2759 1048.97987 0.000992002
1016 1055.15006 1048.98912 0.000984546
1010 1055.05618 1048.99834 0.00099013
1021 1054.83828 1049.00753 0.000979621
1024 1054.82128 1049.0167 0.000976562
1005 1054.85088 1049.02585 0.000995134
1035 1054.93888 1049.03497 0.000966269
1063 1055.10639 1049.04406 0.000940946
1063 1055.39402 1049.05313 0.000940946
1035 1055.88086 1049.06218 0.000966269
1035 1056.62013 1049.0712 0.000966269
1037 1058.03497 1049.08019 0.000964469
1001 1060.35667 1049.08916 0.000998912
1021 1063.92815 1049.09811 0.000979621
1063 1068.95534 1049.10703 0.000940946
1051 1075.26825 1049.11592 0.000951424
1048 1081.96438 1049.12479 0.000954365
1051 1087.00448 1049.13363 0.000951424
1054 1087.83548 1049.14245 0.000948496
1082 1083.9507 1049.15125 0.000924426
1117 1077.56891 1049.16002 0.000895338
1080 1071.09073 1049.16876 0.000926115
1141 1065.7934 1049.17748 0.000876356
1210 1062.06358 1049.18617 0.000826211
1173 1059.99721 1049.19484 0.000852469
1120 1059.39037 1049.20349 0.000892665
1114 1060.07226 1049.2121 0.000897485
1124 1061.87788 1049.2207 0.000889473
1095 1064.55037 1049.22927 0.000913285
1077 1067.54343 1049.23781 0.000928374
995 1069.7893 1049.24633 0.001005256
1116 1069.98102 1049.25482 0.000895874
1093 1067.83647 1049.26329 0.000914944
1077 1064.44489 1049.27173 0.000928374
1086 1060.9932 1049.28015 0.000921063
1094 1058.09956 1049.28854 0.000913838
1146 1055.9428 1049.29691 0.000872736
1129 1054.4641 1049.30525 0.000885771
1145 1053.50203 1049.31357 0.000873251
1058 1052.88379 1049.32186 0.000945
1099 1052.47358 1049.33013 0.000909982
1061 1052.18357 1049.33837 0.00094268
1044 1051.96396 1049.34658 0.000957913
1073 1051.78852 1049.35477 0.000931777
1098 1051.64338 1049.36294 0.000910532
1093 1059.10486 1049.37108 0.000914944
1019 1059.18005 1049.3792 0.000981464
1019 1059.27561 1049.38729 0.000981464
1019 1059.38924 1049.39535 0.000981464
1063 1059.39168 1049.40339 0.000940946
1057 1059.53905 1049.41141 0.000946163
1022 1059.70079 1049.4194 0.000978396
986 1059.87637 1049.42736 0.00101424
999 1060.06542 1049.4353 0.001000809
1020 1060.26777 1049.44321 0.000980235
1033 1060.48339 1049.4511 0.000968073
1046 1060.71237 1049.45897 0.000956137
1021 1060.95491 1049.4668 0.000979621
1019 1061.21129 1049.47462 0.000981464
1043 1065.33312 1049.48241 0.000958506
1056 1065.71084 1049.49017 0.000946746
1057 1066.10717 1049.49791 0.000946163
1018 1066.45935 1049.50562 0.000982079
996 1066.89633 1049.5133 0.001003982
991 1067.35454 1049.52097 0.001009092
1063 1067.83502 1049.5286 0.000940946
1007 1068.33896 1049.53621 0.000993253
995 1068.86764 1049.5438 0.001005256
1074 1069.42245 1049.55136 0.000931209
1077 1070.00492 1049.55889 0.000928374
1048 1070.61671 1049.5664 0.000954365
1018 1071.2947 1049.57389 0.000982079
1033 1071.98021 1049.58135 0.000968073
1024 1072.7011 1049.58878 0.000976562
1069 1073.45969 1049.59619 0.0009352
994 1074.25856 1049.60358 0.001005894
1070 1075.1005 1049.61093 0.000934628
1106 1075.98857 1049.61827 0.000903973
1042 1076.92611 1049.62557 0.000959694
1007 1077.91677 1049.63286 0.000993253
1070 1082.52916 1049.64011 0.000934628
1080 1083.72956 1049.64735 0.000926115
1052 1084.99955 1049.65455 0.000950837
1052 1086.23338 1049.66173 0.000950837
1039 1087.66148 1049.66889 0.000962674
1057 1089.30667 1049.67602 0.000946163
1097 1090.92123 1049.68312 0.000911632
1049 1092.63964 1049.6902 0.000953187
1079 1094.47115 1049.69726 0.000926679
1065 1096.42613 1049.70429 0.000939217
1034 1099.00463 1049.71129 0.00096687
1037 1101.25437 1049.71827 0.000964469
1094 1103.66717 1049.72522 0.000913838
1053 1106.18255 1049.73215 0.000949665
1036 1110.85808 1049.73905 0.000965068
1036 1113.91452 1049.74593 0.000965068
1062 1117.21625 1049.75278 0.000941524
1082 1120.791 1049.7596 0.000924426
1096 1124.67066 1049.76641 0.000912182
1105 1128.89195 1049.77318 0.000905061
1086 1133.49737 1049.77993 0.000921063
1118 1138.53639 1049.78665 0.000894268
1151 1144.08653 1049.79335 0.000868625
1095 1150.42649 1049.80003 0.000913285
1113 1157.16219 1049.80668 0.000898562
1196 1164.91501 1049.8133 0.000836277
1195 1173.24178 1049.8199 0.000836761
1225 1182.55531 1049.82647 0.000816327
1243 1193.02218 1049.83301 0.000804332
1217 1204.84601 1049.83953 0.000821482
1282 1218.27793 1049.84603 0.000779815
1301 1233.6302 1049.8525 0.000768613
1283 1251.29526 1049.85895 0.000779379
1282 1271.77158 1049.86536 0.000779815
1309 1295.6997 1049.87176 0.000763946
1373 1323.92457 1049.87813 0.00072849
1351 1357.54183 1049.88447 0.000740029
1468 1398.07955 1049.89079 0.000681359
1525 1447.90876 1049.89708 0.00065578
1576 1510.32321 1049.90335 0.000634482
1694 1591.81441 1049.90959 0.000590268
1893 1704.47788 1049.9158 0.000528229
2017 1871.18781 1049.92199 0.000495808
2423 2131.99267 1049.92816 0.000412778
2942 2548.15731 1049.9343 0.000339907
3507 3196.7821 1049.94041 0.000285143
4456 4148.88607 1049.9465 0.000224439
5609 5428.78557 1049.95256 0.0001783
6985 6953.58928 1049.9586 0.000143151
8283 8441.79246 1049.96461 0.000120732
9098 9354.42571 1049.97059 0.000109922
8914 9193.67297 1049.97656 0.000112193
7692 8075.73262 1049.98249 0.000130017
6474 6580.84117 1049.9884 0.000154469
5168 5177.98744 1049.99428 0.000193492
4175 4083.32443 1050.00014 0.000239552
3555 3354.37137 1050.00598 0.00028133
3212 2973.603 1050.01178 0.000311382
3180 2901.27945 1050.01756 0.000314482
3341 3102.37808 1050.02332 0.000299326
3745 3545.57603 1050.02905 0.000266991
4261 4178.29444 1050.03476 0.00023466
4894 4881.31074 1050.04044 0.000204315
5432 5416.31749 1050.04609 0.000184105
5464 5487.83124 1050.05172 0.000183011
5044 5026.5333 1050.05732 0.000198262
4401 4275.45593 1050.0629 0.000227221
3659 3506.25404 1050.06845 0.000273296
3074 2863.21235 1050.07398 0.000325352
2739 2390.73863 1050.07948 0.000365033
2411 2079.5885 1050.08495 0.000414798
2213 1897.31488 1050.0904 0.000451924
2099 1808.20573 1050.09583 0.000476518
2065 1783.33534 1050.10122 0.00048431
2199 1801.81641 1050.1066 0.00045482
2195 1846.62738 1050.11194 0.000455597
2185 1900.33264 1050.11726 0.000457744
2307 1952.87571 1050.12256 0.000433486
2346 2022.72423 1050.12783 0.000426179
2532 2156.96493 1050.13307 0.000394929
2605 2408.73488 1050.13829 0.000383865
2952 2819.86775 1050.14349 0.000338782
3338 3404.17151 1050.14865 0.000299533
3814 4121.24568 1050.1538 0.000262171
4393 4834.24308 1050.15891 0.000227633
4787 5282.14062 1050.164 0.000208888
5058 5222.8167 1050.16907 0.000197704
4926 4710.04722 1050.17411 0.000202978
4432 4023.73034 1050.17912 0.000225654
3928 3391.5931 1050.18411 0.000254613
3471 2909.34687 1050.18907 0.000288054
3102 2605.65647 1050.19401 0.000322322
2891 2476.38909 1050.19892 0.000345876
2902 2499.52709 1050.2038 0.000344593
2805 2635.89452 1050.20866 0.000356537
2906 2836.94906 1050.2135 0.000344082
3016 3070.19008 1050.21831 0.000331542
3095 3312.065 1050.22309 0.000323133
3212 3487.77928 1050.22784 0.000311382
3295 3470.17044 1050.23258 0.000303512
3133 3213.07664 1050.23728 0.000319219
2957 2824.14126 1050.24196 0.00033816
2702 2435.88918 1050.24661 0.000370107
2346 2126.92778 1050.25124 0.000426179
2089 1920.69535 1050.25585 0.000478605
1948 1815.2103 1050.26042 0.000513258
1899 1789.99212 1050.26497 0.000526533
1837 1812.30572 1050.2695 0.000544372
1840 1840.13735 1050.274 0.000543357
1872 1833.77564 1050.27847 0.000534104
1762 1774.4946 1050.28292 0.000567434
1610 1672.38432 1050.28734 0.000621267
1475 1556.21394 1050.29174 0.000677815
1387 1450.84095 1050.29611 0.000721075
1332 1368.18926 1050.30045 0.00075061
1279 1308.99649 1050.30477 0.000781997
1233 1271.06004 1050.30907 0.000811219
1198 1250.58667 1050.31333 0.000834828
1219 1244.12558 1050.31758 0.000820541
1158 1249.14831 1050.32179 0.000863527
1134 1263.01523 1050.32598 0.000882092
1163 1281.76753 1050.33015 0.000859986
1192 1298.99205 1050.33429 0.0008387
1237 1305.28396 1050.3384 0.000808454
1217 1292.51626 1050.34249 0.000821482
1184 1264.03496 1050.34655 0.00084456
1190 1230.38527 1050.35058 0.00084016
1159 1199.52184 1050.35459 0.00086302
1108 1174.76245 1050.35858 0.000902345
1150 1156.54003 1050.36253 0.00086965
1091 1143.85783 1050.36647 0.000916606
1156 1135.23208 1050.37037 0.000865052
1119 1129.28643 1050.37425 0.000893733
1133 1125.01345 1050.37811 0.000882616
1106 1121.78502 1050.38194 0.000903973
1034 1119.24854 1050.38574 0.00096687
1071 1117.21451 1050.38952 0.000933486
1056 1115.65982 1050.39327 0.000946746
1091 1114.36115 1050.39699 0.000916606
1064 1113.35781 1050.40069 0.000939793
1081 1112.62255 1050.40437 0.000924989
1068 1112.13707 1050.40802 0.000936345
1009 1111.88991 1050.41164 0.000991377
1028 1111.87522 1050.41523 0.000972911
1075 1112.24109 1050.4188 0.000930073
1087 1112.69673 1050.42235 0.000919946
1093 1113.39588 1050.42587 0.000914944
1093 1114.35129 1050.42936 0.000914944
1074 1115.5807 1050.43283 0.000931209
1081 1117.10745 1050.43627 0.000924989
1094 1118.96128 1050.43968 0.000913838
1086 1121.361 1050.44307 0.000921063
1086 1123.99478 1050.44643 0.000921063
1106 1127.09798 1050.44977 0.000903973
1108 1130.74305 1050.45308 0.000902345
1094 1135.02067 1050.45637 0.000913838
1124 1140.04501 1050.45963 0.000889473
1162 1146.03394 1050.46286 0.00086049
1151 1153.02906 1050.46607 0.000868625
1139 1161.34272 1050.46925 0.000877915
1144 1171.29327 1050.4724 0.000874285
1190 1183.31349 1050.47553 0.00084016
1201 1198.02326 1050.47864 0.000832421
1252 1216.39 1050.48172 0.000798885
1315 1240.08753 1050.48477 0.000760579
1342 1272.32839 1050.48779 0.000745291
1471 1318.80205 1050.49079 0.000679938
1607 1389.96047 1050.49377 0.000622197
1766 1502.01173 1050.49671 0.000566354
1984 1676.18217 1050.49964 0.00050408
2316 1933.67946 1050.50253 0.000431866
2711 2285.54003 1050.5054 0.000368829
3252 2717.17322 1050.50825 0.000307463
3936 3164.59383 1050.51106 0.000254045
4612 3490.12083 1050.51386 0.000216837
4483 3533.84399 1050.51662 0.000223033
3900 3279.78332 1050.51936 0.00025641
3314 2875.72473 1050.52208 0.000301722
2576 2482.89951 1050.52476 0.000388265
2306 2181.77384 1050.52742 0.000433666
2179 2006.68139 1050.53006 0.000458921
2121 1967.78495 1050.53267 0.000471564
2178 2064.81786 1050.53525 0.000459118
2486 2291.09899 1050.53781 0.000402249
2813 2626.86228 1050.54034 0.000355462
3243 3020.57749 1050.54285 0.000308328
3796 3370.77515 1050.54533 0.00026345
4079 3556.68655 1050.54778 0.000245135
4107 3511.09612 1050.55021 0.000243455
3768 3245.41644 1050.55261 0.000265428
3242 2843.42395 1050.55499 0.000308436
2695 2428.11135 1050.55734 0.000371106
2178 2079.80392 1050.55966 0.000459118
1845 1827.89639 1050.56196 0.000542093
1665 1672.80676 1050.56423 0.00060073
1601 1602.93527 1050.56647 0.000624688
1603 1603.31103 1050.56869 0.000623752
1649 1657.8293 1050.57088 0.000606365
1730 1745.84888 1050.57305 0.000578126
1809 1834.07681 1050.57519 0.000552852
1891 1874.93017 1050.57731 0.000528714
1893 1836.8587 1050.57939 0.000528229
1814 1737.33719 1050.58146 0.000551296
1679 1618.74369 1050.58349 0.000595465
1525 1511.48405 1050.5855 0.00065578
1422 1431.17637 1050.58749 0.000703213
1395 1383.2088 1050.58944 0.000716834
1297 1362.93444 1050.59138 0.000771176
1352 1358.78354 1050.59328 0.000739627
1310 1353.94712 1050.59516 0.000763524
1311 1334.10483 1050.59701 0.000762681
1250 1299.15734 1050.59884 0.000799789
1177 1260.64388 1050.60064 0.000849491
1118 1224.78906 1050.60242 0.000894268
1134 1196.58491 1050.60417 0.000882092
1144 1176.85008 1050.60589 0.000874285
1148 1164.98767 1050.60758 0.000871191
1107 1159.97484 1050.60925 0.00090343
1120 1161.18534 1050.6109 0.000892665
1156 1168.11972 1050.61252 0.000865052
1140 1180.27441 1050.61411 0.000877395
1143 1198.64017 1050.61567 0.000874802
1203 1216.62092 1050.61721 0.000831461
1196 1229.7032 1050.61873 0.000836277
1181 1235.81764 1050.62021 0.000846527
1185 1242.0289 1050.62167 0.00084407
1179 1249.56149 1050.62311 0.000848007
1260 1263.72845 1050.62452 0.000793493
1325 1282.98945 1050.6259 0.00075474
1324 1299.20453 1050.62725 0.000755155
1350 1302.3622 1050.62858 0.000740835
1299 1291.83785 1050.62989 0.000769893
1255 1278.22007 1050.63116 0.000796632
1265 1272.31522 1050.63241 0.000790373
1252 1279.28162 1050.63364 0.000798885
1259 1299.49368 1050.63484 0.000794388
1304 1324.56187 1050.63601 0.000766911
1315 1340.98115 1050.63716 0.000760579
1343 1337.88574 1050.63828 0.000744478
1315 1319.51716 1050.63937 0.000760579
1305 1295.58298 1050.64044 0.000766487
1312 1277.05733 1050.64148 0.00076226
1287 1266.15975 1050.64249 0.000777208
1318 1259.26429 1050.64348 0.000758904
1367 1250.83638 1050.64444 0.000731646
1425 1239.98321 1050.64538 0.000701724
1432 1230.98001 1050.64629 0.00069839
1395 1227.96933 1050.64717 0.000716834
1363 1232.5449 1050.64803 0.000733629
1330 1243.66358 1050.64886 0.000751845
1301 1257.19935 1050.64966 0.000768613
1336 1265.92863 1050.65044 0.000748558
1318 1264.22825 1050.65119 0.000758904
1326 1253.83298 1050.65192 0.000754325
1235 1241.15921 1050.65262 0.000809835
1260 1231.03643 1050.65329 0.000793493
1277 1225.58085 1050.65394 0.000782872
1270 1225.25019 1050.65456 0.000787272
1292 1229.69938 1050.65515 0.000774183
1260 1238.35058 1050.65572 0.000793493
1261 1250.77342 1050.65626 0.000793047
1298 1266.88196 1050.65677 0.000770321
1311 1287.00448 1050.65726 0.000762681
1331 1311.93733 1050.65772 0.000751433
1410 1343.12172 1050.65816 0.000709219
1491 1383.13322 1050.65857 0.000670811
1520 1436.7524 1050.65895 0.000657799
1612 1512.88739 1050.65931 0.000620339
1731 1627.26654 1050.65964 0.00057757
1919 1804.85454 1050.65994 0.000521019
2281 2079.57815 1050.66022 0.000438401
2725 2488.21396 1050.66047 0.000366994
3277 3056.16822 1050.6607 0.000305105
4006 3773.70067 1050.6609 0.000249649
4824 4558.99889 1050.66107 0.000207267
5533 5220.52193 1050.66121 0.000180754
5799 5506.62365 1050.66133 0.000172449
5543 5292.17805 1050.66143 0.000180414
4954 4690.48025 1050.66149 0.000201884
4116 3948.48714 1050.66153 0.000242924
3375 3267.50834 1050.66155 0.000296345
2863 2742.78275 1050.66153 0.000349245
2539 2397.18152 1050.66149 0.000393832
2368 2220.2892 1050.66143 0.000422334
2341 2193.25813 1050.66134 0.000427236
2429 2300.90374 1050.66122 0.000411774
2651 2531.59487 1050.66107 0.000377185
2995 2866.51749 1050.6609 0.000333848
3394 3259.84327 1050.6607 0.000294618
3776 3618.20311 1050.66048 0.000264823
3977 3822.94186 1050.66023 0.000251473
4022 3823.66897 1050.65995 0.000248627
3978 3696.40608 1050.65965 0.000251394
3854 3590.44087 1050.65932 0.000259476
3933 3628.43684 1050.65896 0.000254288
4268 3857.81231 1050.65858 0.000234301
4940 4242.62289 1050.65817 0.000202401
5457 4648.23876 1050.65773 0.000183258
5710 4854.0441 1050.65727 0.000175152
5479 4714.93084 1050.65678 0.000182516
4824 4334.18838 1050.65626 0.000207267
4231 3939.78133 1050.65572 0.000236323
3937 3703.88588 1050.65515 0.000253964
4024 3723.84933 1050.65456 0.00024847
4389 4040.42666 1050.65394 0.000227839
5228 4649.22909 1050.65329 0.000191304
5792 5482.34323 1050.65261 0.00017263
6757 6381.02958 1050.65191 0.000147998
7588 7144.81351 1050.65118 0.000131784
8113 7675.81503 1050.65043 0.000123265
8389 7978.03468 1050.64965 0.000119208
8464 7982.14175 1050.64884 0.000118147
8085 7526.44457 1050.64801 0.000123677
7020 6623.31403 1050.64715 0.000142435
5843 5539.23735 1050.64626 0.000171143
4852 4554.17587 1050.64535 0.000206079
4027 3815.62865 1050.64441 0.000248313
3639 3368.90094 1050.64344 0.000274838
3476 3202.08879 1050.64245 0.000287664
3488 3272.63875 1050.64143 0.00028669
3805 3511.14132 1050.64038 0.000262852
4134 3812.06783 1050.63931 0.000241868
4300 4052.22415 1050.63821 0.000232589
4405 4162.85107 1050.63708 0.000227016
4420 4146.99669 1050.63593 0.000226265
4258 4001.93574 1050.63475 0.000234876
3959 3692.54513 1050.63355 0.000252594
3505 3245.80655 1050.63231 0.000285336
3047 2767.67624 1050.63105 0.000328187
2632 2346.58366 1050.62977 0.000379984
2255 2016.10647 1050.62846 0.0004434
1996 1775.64351 1050.62712 0.000500926
1779 1609.49421 1050.62575 0.000562065
1630 1497.59825 1050.62436 0.000613596
1581 1421.78676 1050.62294 0.000632568
1531 1368.5134 1050.6215 0.000653101
1487 1329.02051 1050.62002 0.000672552
1421 1298.18087 1050.61852 0.000703586
1370 1273.05661 1050.617 0.000730066
1296 1252.16724 1050.61545 0.000771605
1292 1234.4445 1050.61387 0.000774183
1297 1219.223 1050.61226 0.000771176
1249 1206.02321 1050.61063 0.000800695
1286 1194.48318 1050.60897 0.000777642
1306 1184.32221 1050.60729 0.000765638
1293 1175.31899 1050.60558 0.000773322
1282 1167.29672 1050.60384 0.000779815
1214 1160.11266 1050.60207 0.000823842
1237 1153.65048 1050.60028 0.000808454
1261 1147.8146 1050.59846 0.000793047
1310 1142.52591 1050.59662 0.000763524
1249 1137.68151 1050.59474 0.000800695
1290 1133.30089 1050.59284 0.000775046
1316 1129.30022 1050.59092 0.000759741
1335 1125.64068 1050.58897 0.000748967
1392 1122.28973 1050.58699 0.000718372
1391 1119.2203 1050.58498 0.000718757
1465 1116.4102 1050.58295 0.000682427
1440 1113.77547 1050.58089 0.000694347
1488 1111.43629 1050.57881 0.000672203
1540 1109.31643 1050.57669 0.000649444
1466 1107.41182 1050.57455 0.000682071
1377 1105.72421 1050.57239 0.000726136
1347 1104.26337 1050.5702 0.000742451
1295 1103.05194 1050.56798 0.000772034
1288 1102.13673 1050.56573 0.000776342
1244 1101.53068 1050.56346 0.000803876
1230 1101.58374 1050.56116 0.000813071
1260 1102.55152 1050.55883 0.000793493
1275 1104.98482 1050.55648 0.000784188
1289 1109.64694 1050.5541 0.00077591
1239 1117.3793 1050.55169 0.000807076
1228 1128.75053 1050.54926 0.000814464
1257 1143.67929 1050.5468 0.000795733
1221 1160.44827 1050.54431 0.000819133
1190 1174.7373 1050.5418 0.00084016
1181 1179.95749 1050.53925 0.000846527
1170 1172.5725 1050.53669 0.000854464
1135 1156.49804 1050.53409 0.000881045
1103 1138.31084 1050.53147 0.000906697
1109 1122.16015 1050.52882 0.000901803
1104 1109.77288 1050.52615 0.000905606
1046 1101.33526 1050.52345 0.000956137
1089 1096.45598 1050.52072 0.000918274
1083 1094.63745 1050.51796 0.000923303
1092 1095.54271 1050.51518 0.000915497
1121 1098.99348 1050.51237 0.000892132
1122 1104.74309 1050.50954 0.000891067
1058 1112.07962 1050.50667 0.000945
1079 1119.24399 1050.50379 0.000926679
1090 1123.11138 1050.50087 0.000917162
1136 1120.94663 1050.49793 0.000880522
1077 1113.47623 1050.49496 0.000928374
1064 1103.92153 1050.49196 0.000939793
1104 1094.85525 1050.48894 0.000905606
1098 1087.42684 1050.48589 0.000910532
1114 1081.87105 1050.48281 0.000897485
1087 1077.95574 1050.4797 0.000919946
1147 1075.26754 1050.47657 0.000871705
1144 1073.39731 1050.47341 0.000874285
1138 1072.03173 1050.47023 0.000878956
1180 1070.96834 1050.46702 0.000847513
1099 1070.09055 1050.46378 0.000909982
1152 1069.33503 1050.46051 0.000868113
1219 1067.64428 1050.45722 0.000820541
1206 1067.05911 1050.4539 0.000829069
1194 1065.66454 1050.45056 0.00083773
1185 1065.18973 1050.44718 0.00084407
1157 1064.75135 1050.44378 0.000864543
1175 1064.34392 1050.44035 0.000850978
1157 1063.96311 1050.4369 0.000864543
1097 1063.60546 1050.43342 0.000911632
1042 1063.26818 1050.42991 0.000959694
1056 1062.94894 1050.42638 0.000946746
1066 1062.9412 1050.42282 0.000938067
1121 1062.65948 1050.41923 0.000892132
1137 1062.39117 1050.41561 0.000879478
1099 1062.13513 1050.41197 0.000909982
1111 1061.37875 1050.4083 0.00090018
1111 1061.15228 1050.4046 0.00090018
1093 1060.50373 1050.40088 0.000914944
1084 1060.30222 1050.39713 0.000922742
1072 1060.10883 1050.39335 0.000932916
1070 1059.92307 1050.38955 0.000934628
1057 1059.74448 1050.38571 0.000946163
1012 1059.57268 1050.38186 0.000988263
1013 1059.40729 1050.37797 0.000987022
990 1057.93851 1050.37406 0.001010375
1036 1057.8051 1050.37012 0.000965068
1030 1057.82537 1050.36615 0.000971092
1001 1057.70535 1050.36216 0.000998912
993 1057.91243 1050.35814 0.001007171
1029 1057.80927 1050.35409 0.000971698
988 1057.71083 1050.35002 0.001012305
1003 1057.61698 1050.34592 0.00099702
1067 1057.52761 1050.34179 0.000937492
1033 1057.44262 1050.33763 0.000968073
1039 1056.36095 1050.33345 0.000962674
1017 1055.80584 1050.32924 0.000983311
1048 1055.75603 1050.325 0.000954365
987 1055.70986 1050.32074 0.001012949
1001 1053.60966 1050.31645 0.000998912
1027 1053.60217 1050.31213 0.000973518
1017 1053.59761 1050.30779 0.000983311
1006 1053.59603 1050.30341 0.000993879
1038 1053.59748 1050.29902 0.000963272
1038 1054.30101 1050.29459 0.000963272
1035 1054.32493 1050.29014 0.000966269
1050 1054.35273 1050.28566 0.000952599
1021 1054.38455 1050.28115 0.000979621
997 1054.42056 1050.27661 0.001002711
1014 1053.95947 1050.27205 0.000986402
1082 1053.76463 1050.26746 0.000924426
1087 1053.82566 1050.26285 0.000919946
1076 1053.89151 1050.25821 0.000929506
1063 1053.26 1050.25354 0.000940946
1080 1053.34711 1050.24884 0.000926115
1076 1053.43977 1050.24412 0.000929506
1020 1053.53839 1050.23936 0.000980235
1024 1053.64342 1050.23459 0.000976562
1050 1053.76248 1050.22978 0.000952599
1038 1054.15161 1050.22495 0.000963272
1031 1054.2974 1050.22009 0.000969883
1014 1054.44063 1050.2152 0.000986402
1018 1054.59369 1050.21029 0.000982079
1039 1054.75746 1050.20535 0.000962674
1023 1054.93294 1050.20038 0.000977784
1014 1055.12127 1050.19538 0.000986402
986 1055.32372 1050.19036 0.00101424
1011 1055.54174 1050.18531 0.000988885
1033 1055.777 1050.18023 0.000968073
1016 1056.0314 1050.17513 0.000984546
1053 1056.30711 1050.17 0.000949665
1043 1056.60668 1050.16484 0.000958506
1020 1056.93303 1050.15966 0.000980235
1017 1057.29316 1050.15444 0.000983311
1084 1057.68406 1050.1492 0.000922742
1058 1058.11992 1050.14394 0.000945
1064 1058.59466 1050.13864 0.000939793
1031 1059.12087 1050.13332 0.000969883
1085 1059.70676 1050.12797 0.000921622
1061 1060.36231 1050.1226 0.00094268
1082 1061.09976 1050.11719 0.000924426
1019 1061.93432 1050.11176 0.000981464
1045 1062.885 1050.10631 0.000956728
1054 1063.97596 1050.10082 0.000948496
1140 1065.23817 1050.09531 0.000877395
1112 1066.7122 1050.08977 0.000899101
1071 1068.45269 1050.0842 0.000933486
1072 1070.53703 1050.07861 0.000932916
1128 1073.08407 1050.07299 0.000886298
1130 1076.29468 1050.06734 0.000884717
1160 1080.534 1050.06166 0.000862007
1120 1086.47377 1050.05596 0.000892665
1140 1095.28532 1050.05023 0.000877395
1180 1108.80002 1050.04448 0.000847513
1208 1129.45668 1050.03869 0.000827638
1201 1159.81783 1050.03288 0.000832421
1281 1201.534 1050.02704 0.000780686
1374 1253.71759 1050.02117 0.000727704
1415 1310.38501 1050.01528 0.000706582
1477 1357.10589 1050.00936 0.00067711
1475 1373.50828 1050.00341 0.000677815
1391 1351.02913 1049.99744 0.000718757
1311 1303.72326 1049.99143 0.000762681
1263 1251.65397 1049.9854 0.000791708
1234 1206.92505 1049.97935 0.000810296
1183 1174.26842 1049.97326 0.000845543
1157 1154.28019 1049.96715 0.000864543
1181 1146.02646 1049.96101 0.000846527
1187 1148.67637 1049.95484 0.0008426
1202 1162.52102 1049.94865 0.000831941
1218 1189.17344 1049.94243 0.000821011
1282 1230.86708 1049.93618 0.000779815
1354 1288.80449 1049.9299 0.000738422
1476 1360.3706 1049.9236 0.000677463
1534 1435.76392 1049.91727 0.000651768
1659 1498.24665 1049.91091 0.000602797
1693 1530.40152 1049.90453 0.000590555
1739 1519.14575 1049.89812 0.00057508
1617 1465.80907 1049.89168 0.000618489
1583 1391.49972 1049.88521 0.000631615
1498 1319.1803 1049.87871 0.000667695
1404 1261.30951 1049.87219 0.00071225
1415 1221.87609 1049.86564 0.000706582
1411 1200.9721 1049.85907 0.000708841
1383 1197.96781 1049.85246 0.000723016
1423 1213.53208 1049.84583 0.00070284
1443 1250.40258 1049.83917 0.000692885
1388 1312.55309 1049.83248 0.000720301
1516 1402.70772 1049.82577 0.00065949
1600 1518.35121 1049.81903 0.000625
1776 1645.63806 1049.81226 0.000563133
1879 1751.57672 1049.80546 0.000532135
1900 1788.97133 1049.79864 0.000526291
1875 1735.59698 1049.79179 0.000533365
1842 1621.33628 1049.78491 0.000542851
1728 1492.85308 1049.77801 0.000578682
1647 1379.45762 1049.77107 0.000607262
1563 1292.40636 1049.76411 0.00063995
1447 1232.84393 1049.75713 0.000691065
1371 1197.39455 1049.75011 0.000729277
1362 1181.7807 1049.74307 0.000734027
1329 1182.89557 1049.736 0.000752258
1293 1199.22174 1049.7289 0.000773322
1325 1229.82897 1049.72177 0.00075474
1319 1272.40592 1049.71462 0.000758068
1340 1320.36427 1049.70744 0.000746106
1391 1359.42583 1049.70023 0.000718757
1384 1370.14818 1049.693 0.000722627
1418 1344.421 1049.68574 0.000705082
1413 1294.93261 1049.67845 0.00070771
1346 1240.14778 1049.67113 0.000742856
1334 1191.56943 1049.66378 0.000749788
1266 1153.55571 1049.65641 0.000789929
1212 1126.27899 1049.64901 0.000825262
1216 1107.90062 1049.64158 0.000822425
1174 1095.99518 1049.63413 0.000851972
1148 1088.40997 1049.62665 0.000871191
1149 1083.60585 1049.61914 0.000870163
1137 1080.62287 1049.6116 0.000879478
1108 1078.86927 1049.60403 0.000902345
1130 1077.87811 1049.59644 0.000884717
1103 1077.13815 1049.58882 0.000906697
1094 1076.12915 1049.58117 0.000913838
1086 1074.48791 1049.5735 0.000921063
1107 1072.15801 1049.5658 0.00090343
1096 1069.47447 1049.55807 0.000912182
1078 1066.88155 1049.55031 0.000927808
1074 1064.63845 1049.54252 0.000931209
1115 1062.8163 1049.53471 0.000896948
1093 1061.38305 1049.52687 0.000914944
1096 1060.26362 1049.519 0.000912182
1062 1059.37593 1049.51111 0.000941524
1079 1058.82273 1049.50318 0.000926679
988 1058.21379 1049.49523 0.001012305
1054 1057.68502 1049.48725 0.000948496
1008 1057.21645 1049.47925 0.000992002
1080 1056.79567 1049.47121 0.000926115
1046 1056.41448 1049.46315 0.000956137
1048 1056.06699 1049.45507 0.000954365
1035 1055.74868 1049.44695 0.000966269
1048 1055.45593 1049.43881 0.000954365
1042 1055.18576 1049.43063 0.000959694
1071 1054.93564 1049.42243 0.000933486
1062 1054.70345 1049.41421 0.000941524
1053 1054.48739 1049.40595 0.000949665
1089 1054.28589 1049.39767 0.000918274
1085 1054.0976 1049.38936 0.000921622
1090 1053.92132 1049.38103 0.000917162
1095 1053.84357 1049.37266 0.000913285
1074 1053.69036 1049.36427 0.000931209
1092 1053.5465 1049.35585 0.000915497
1094 1053.41126 1049.3474 0.000913838
1078 1053.61242 1049.33892 0.000927808
1076 1053.50012 1049.33042 0.000929506
1044 1053.395 1049.32189 0.000957913
1041 1053.29662 1049.31333 0.000960885
1079 1053.20461 1049.30475 0.000926679
1073 1053.11861 1049.29613 0.000931777
1049 1053.20656 1049.28749 0.000953187
1028 1053.13552 1049.27882 0.000972911
1004 1053.06981 1049.27013 0.000995762
1050 1053.00921 1049.2614 0.000952599
1048 1052.95354 1049.25265 0.000954365
1033 1053.25075 1049.24387 0.000968073
1108 1053.21247 1049.23506 0.000902345
1089 1053.17902 1049.22623 0.000918274
1070 1053.15031 1049.21736 0.000934628
1008 1053.28939 1049.20847 0.000992002
1024 1053.27377 1049.19956 0.000976562
1006 1053.68686 1049.19061 0.000993879
1027 1053.69055 1049.18164 0.000973518
968 1053.69942 1049.17263 0.001033237
1010 1053.71357 1049.16361 0.00099013
1094 1053.81662 1049.15455 0.000913838
1072 1053.84356 1049.14546 0.000932916
1055 1053.87623 1049.13635 0.000947912
1040 1053.91483 1049.12721 0.000961481
1038 1053.95958 1049.11804 0.000963272
1088 1054.18346 1049.10885 0.000919388
1078 1054.24525 1049.09962 0.000927808
1038 1054.31422 1049.09037 0.000963272
1102 1054.39074 1049.08109 0.000907243
1069 1054.47526 1049.07179 0.0009352
1036 1054.56828 1049.06245 0.000965068
1050 1054.8806 1049.05309 0.000952599
1048 1054.99715 1049.0437 0.000954365
1036 1055.12426 1049.03428 0.000965068
1064 1055.26276 1049.02484 0.000939793
1087 1055.41358 1049.01536 0.000919946
1073 1055.57777 1049.00586 0.000931777
1060 1055.75654 1048.99633 0.00094326
1069 1055.81855 1048.98678 0.0009352
1103 1056.03283 1048.97719 0.000906697
1089 1056.26643 1048.96758 0.000918274
1063 1056.52148 1048.95794 0.000940946
1088 1056.80045 1048.94827 0.000919388
1049 1057.10624 1048.93858 0.000953187
1026 1057.44226 1048.92885 0.000974734
1075 1057.81254 1048.9191 0.000930073
1060 1058.22194 1048.90932 0.00094326
1055 1058.67627 1048.89952 0.000947912
1055 1059.18262 1048.88968 0.000947912
1048 1059.74965 1048.87982 0.000954365
1057 1060.38813 1048.86993 0.000946163
1074 1061.11153 1048.86001 0.000931209
1053 1061.93694 1048.85006 0.000949665
1063 1062.82032 1048.84009 0.000940946
1085 1063.92401 1048.83009 0.000921622
1070 1065.07655 1048.82006 0.000934628
1096 1066.62836 1048.81 0.000912182
1115 1068.52843 1048.79991 0.000896948
1114 1070.94487 1048.7898 0.000897485
1088 1074.1837 1048.77966 0.000919388
1080 1078.78609 1048.76949 0.000926115
1078 1085.62994 1048.75929 0.000927808
1079 1095.95872 1048.74907 0.000926679
1140 1111.2231 1048.73881 0.000877395
1205 1132.64436 1048.72853 0.000830024
1199 1160.47273 1048.71822 0.000833864
1223 1192.83709 1048.70789 0.000817728
1210 1223.9334 1048.69752 0.000826211
1348 1243.09228 1048.68713 0.000741643
1239 1240.85652 1048.67671 0.000807076
1208 1219.49168 1048.66626 0.000827638
1176 1190.14716 1048.65578 0.000850482
1199 1162.55138 1048.64528 0.000833864
1152 1140.85748 1048.63475 0.000868113
1163 1126.27612 1048.62419 0.000859986
1161 1118.47857 1048.6136 0.000861501
1180 1116.65777 1048.60298 0.000847513
1137 1120.24294 1048.59234 0.000879478
1173 1129.28048 1048.58167 0.000852469
1228 1144.49068 1048.57097 0.000814464
1248 1167.06951 1048.56024 0.000801148
1270 1198.2159 1048.54948 0.000787272
1294 1238.12527 1048.5387 0.000772893
1390 1284.62922 1048.52789 0.000719529
1474 1334.0332 1048.51705 0.000678522
1501 1384.84151 1048.50618 0.000666317
1544 1436.21712 1048.49528 0.000647793
1571 1478.41955 1048.48436 0.000636404
1572 1494.20103 1048.47341 0.000636083
1552 1478.23132 1048.46243 0.00064418
1469 1447.68005 1048.45142 0.000680648
1413 1424.2901 1048.44038 0.00070771
1441 1419.67241 1048.42932 0.000693981
1421 1434.23962 1048.41823 0.000703586
1420 1460.16208 1048.40711 0.000704333
1480 1490.17154 1048.39596 0.000675703
1564 1526.46932 1048.38478 0.000639303
1647 1573.39485 1048.37358 0.000607262
1727 1624.42808 1048.36235 0.00057896
1714 1663.66292 1048.35109 0.000583444
1709 1686.0937 1048.3398 0.000585139
1675 1706.55954 1048.32848 0.000596921
1705 1737.486 1048.31714 0.000586557
1723 1770.99035 1048.30577 0.000580356
1676 1782.95875 1048.29437 0.000596629
1645 1751.12324 1048.28294 0.000607861
1589 1676.77727 1048.27148 0.000629398
1535 1586.18231 1048.26 0.000651435
1369 1504.9303 1048.24849 0.00073046
1370 1443.10481 1048.23695 0.000730066
1242 1400.03796 1048.22538 0.000805245
1262 1373.96536 1048.21378 0.0007926
1355 1363.87889 1048.20215 0.00073802
1349 1364.40813 1048.1905 0.000741239
1404 1364.61262 1048.17882 0.00071225
1394 1356.3571 1048.16711 0.000717218
1320 1343.59118 1048.15537 0.000757651
1288 1335.92161 1048.14361 0.000776342
1316 1337.19727 1048.13181 0.000759741
1310 1341.6058 1048.11999 0.000763524
1306 1335.59499 1048.10814 0.000765638
1288 1309.10866 1048.09627 0.000776342
1221 1266.91299 1048.08436 0.000819133
1146 1221.29998 1048.07242 0.000872736
1168 1180.74962 1048.06046 0.000855965
1145 1148.49057 1048.04847 0.000873251
1101 1124.67697 1048.03645 0.000908337
1080 1107.97879 1048.02441 0.000926115
1043 1096.55847 1048.01233 0.000958506
1025 1088.69509 1048.00023 0.000975343
1040 1083.08332 1047.9881 0.000961481
1049 1078.86826 1047.97594 0.000953187
1029 1075.54279 1047.96375 0.000971698
1031 1072.81943 1047.95153 0.000969883
1083 1070.53259 1047.93929 0.000923303
1066 1068.58009 1047.92702 0.000938067
1030 1066.89305 1047.91472 0.000971092
1070 1065.42328 1047.90239 0.000934628
1038 1064.12956 1047.89003 0.000963272
1026 1062.98409 1047.87765 0.000974734
1051 1061.96347 1047.86523 0.000951424
1061 1061.04893 1047.85279 0.00094268
1085 1060.22523 1047.84032 0.000921622
1065 1059.47987 1047.82783 0.000939217
1033 1058.80252 1047.8153 0.000968073
990 1058.18453 1047.80275 0.001010375
1100 1057.61868 1047.79016 0.000908885
1089 1057.09882 1047.77755 0.000918274
1052 1056.61974 1047.76491 0.000950837
1147 1056.17696 1047.75225 0.000871705
1102 1055.76663 1047.73955 0.000907243
1092 1055.38542 1047.72683 0.000915497
1150 1055.03041 1047.71408 0.00086965
1074 1054.69908 1047.7013 0.000931209
1162 1054.3892 1047.68849 0.00086049
1277 1054.0988 1047.67565 0.000782872
1262 1053.82615 1047.66279 0.0007926
1269 1053.56971 1047.64989 0.000788156
1253 1053.32812 1047.63697 0.000797983
1226 1053.10014 1047.62402 0.00081586
1165 1052.88469 1047.61104 0.000858475
1137 1052.68077 1047.59804 0.000879478
1113 1052.48751 1047.585 0.000898562
1078 1052.3041 1047.57194 0.000927808
1098 1052.12983 1047.55885 0.000910532
1168 1051.96403 1047.54573 0.000855965
1095 1051.8061 1047.53258 0.000913285
1127 1051.65552 1047.5194 0.000887355
1118 1051.51179 1047.5062 0.000894268
1135 1051.37445 1047.49297 0.000881045
1116 1051.2431 1047.47971 0.000895874
1163 1051.11735 1047.46642 0.000859986
1179 1050.99687 1047.4531 0.000848007
1121 1050.88133 1047.43975 0.000892132
1109 1050.77045 1047.42638 0.000901803
1106 1050.66395 1047.41298 0.000903973
1095 1050.56161 1047.39955 0.000913285
1079 1050.46318 1047.38609 0.000926679
1059 1050.36847 1047.3726 0.000944419
1058 1050.27729 1047.35908 0.000945
1036 1050.18947 1047.34554 0.000965068
1021 1050.10485 1047.33197 0.000979621
1070 1050.02329 1047.31836 0.000934628
1060 1049.94468 1047.30473 0.00094326
1039 1049.8689 1047.29108 0.000962674
1053 1049.79585 1047.27739 0.000949665
1042 1049.72547 1047.26368 0.000959694
999 1049.65769 1047.24993 0.001000809
1035 1049.59246 1047.23616 0.000966269
1062 1049.52978 1047.22236 0.000941524
1074 1049.46965 1047.20853 0.000931209
1052 1049.41209 1047.19468 0.000950837
1004 1049.35719 1047.18079 0.000995762
994 1049.30505 1047.16688 0.001005894
1074 1049.25585 1047.15294 0.000931209
1025 1049.20985 1047.13897 0.000975343
1027 1049.1674 1047.12497 0.000973518
1091 1049.12899 1047.11094 0.000916606
1051 1049.09538 1047.09688 0.000951424
1037 1049.06773 1047.0828 0.000964469
1052 1049.04799 1047.06869 0.000950837
1015 1048.96164 1047.05455 0.000985164
1021 1048.97252 1047.04038 0.000979621
1047 1049.01262 1047.02618 0.000954955
1030 1049.09975 1047.01195 0.000971092
1094 1049.25824 1046.9977 0.000913838
1066 1049.53359 1046.98342 0.000938067
1022 1049.91012 1046.9691 0.000978396
1060 1050.40575 1046.95476 0.00094326
1015 1050.97625 1046.9404 0.000985164
1030 1051.49766 1046.926 0.000971092
1082 1051.7589 1046.91157 0.000924426
1051 1051.59943 1046.89712 0.000951424
1020 1051.09344 1046.88264 0.000980235
1070 1050.45853 1046.86813 0.000934628
1094 1049.86046 1046.85359 0.000913838
1068 1049.37326 1046.83902 0.000936345
1042 1048.97544 1046.82442 0.000959694
1037 1048.73445 1046.8098 0.000964469
1054 1048.59182 1046.79514 0.000948496
1084 1048.53128 1046.78046 0.000922742
1060 1048.3988 1046.76575 0.00094326
1051 1048.4975 1046.75101 0.000951424
1097 1048.66054 1046.73624 0.000911632
1061 1048.88709 1046.72145 0.00094268
1049 1049.14245 1046.70662 0.000953187
1082 1049.34816 1046.69177 0.000924426
1131 1049.31803 1046.67689 0.000884191
1073 1049.15387 1046.66198 0.000931777
1089 1048.8483 1046.64704 0.000918274
1089 1051.90989 1046.63207 0.000918274
1050 1051.67987 1046.61708 0.000952599
1134 1051.35653 1046.60205 0.000882092
1154 1054.67351 1046.587 0.00086658
1169 1054.7013 1046.57192 0.000855464
1164 1054.77207 1046.55681 0.000858978
1209 1054.80009 1046.54167 0.000827162
1222 1054.92422 1046.5265 0.000818196
1226 1054.87599 1046.5113 0.00081586
1247 1055.03128 1046.49608 0.000802056
1269 1055.19744 1046.48083 0.000788156
1356 1055.37373 1046.46554 0.00073762
1341 1055.55985 1046.45023 0.000745699
1339 1055.71822 1046.43489 0.000746922
1219 1055.92458 1046.41953 0.000820541
1274 1056.14105 1046.40413 0.000785067
1241 1058.06639 1046.38871 0.000805703
1217 1058.51282 1046.37325 0.000821482
1203 1058.72788 1046.35777 0.000831461
1214 1060.7414 1046.34226 0.000823842
1172 1061.09947 1046.32672 0.000853466
1150 1061.4733 1046.31115 0.00086965
1162 1061.86368 1046.29556 0.00086049
1170 1062.27151 1046.27993 0.000854464
1201 1062.60455 1046.26428 0.000832421
1210 1063.05154 1046.24859 0.000826211
1266 1063.51902 1046.23288 0.000789929
1230 1065.65453 1046.21714 0.000813071
1167 1066.20345 1046.20137 0.000856967
1175 1066.77801 1046.18558 0.000850978
1197 1069.35873 1046.16975 0.00083531
1175 1070.03335 1046.1539 0.000850978
1181 1070.7402 1046.13801 0.000846527
1189 1071.48134 1046.1221 0.000841135
1135 1072.34619 1046.10616 0.000881045
1107 1075.0099 1046.09019 0.00090343
1128 1075.91118 1046.07419 0.000886298
1110 1079.66413 1046.05817 0.00090072
1098 1080.72301 1046.04211 0.000910532
1156 1081.83669 1046.02603 0.000865052
1141 1083.07204 1046.00992 0.000876356
1114 1084.30896 1045.99377 0.000897485
1088 1085.61377 1045.9776 0.000919388
1134 1087.81233 1045.9614 0.000882092
1148 1089.28753 1045.94518 0.000871191
1087 1090.84874 1045.92892 0.000919946
1153 1092.50314 1045.91263 0.000867091
1124 1095.26692 1045.89632 0.000889473
1078 1097.15538 1045.87998 0.000927808
1153 1099.16499 1045.86361 0.000867091
1166 1101.30729 1045.84721 0.000857469
1135 1104.51463 1045.83078 0.000881045
1140 1106.98431 1045.81432 0.000877395
1140 1111.03118 1045.79783 0.000877395
1171 1113.91309 1045.78132 0.000853965
1230 1117.02532 1045.76477 0.000813071
1313 1120.43727 1045.7482 0.000761419
1283 1124.1425 1045.7316 0.000779379
1363 1128.25444 1045.71497 0.000733629
1339 1132.8928 1045.69831 0.000746922
1444 1138.21565 1045.68162 0.000692521
1397 1144.40255 1045.66491 0.000715684
1309 1151.61177 1045.64816 0.000763946
1360 1159.9088 1045.63139 0.000735221
1310 1169.15305 1045.61458 0.000763524
1302 1178.81791 1045.59775 0.000768187
1304 1187.91269 1045.58089 0.000766911
1282 1195.60473 1045.564 0.000779815
1238 1203.83892 1045.54708 0.000807535
1260 1212.22448 1045.53014 0.000793493
1258 1220.46766 1045.51316 0.000794836
1256 1230.68066 1045.49615 0.000796182
1312 1243.24287 1045.47912 0.00076226
1386 1260.54679 1045.46206 0.000721463
1415 1278.73096 1045.44497 0.000706582
1445 1300.28892 1045.42785 0.000692156
1528 1325.84723 1045.4107 0.000654438
1524 1356.2972 1045.39352 0.000656116
1453 1392.88984 1045.37631 0.000688168
1506 1437.43237 1045.35908 0.000663915
1589 1492.72128 1045.34181 0.000629398
1644 1565.61119 1045.32452 0.000608161
1771 1659.93616 1045.3072 0.00056474
1908 1792.26511 1045.28985 0.000524125
2106 1987.13751 1045.27247 0.000474858
2422 2279.79468 1045.25506 0.000412946
2808 2707.06801 1045.23762 0.000356133
3536 3311.6795 1045.22015 0.000282846
4421 4115.48465 1045.20266 0.000226197
5382 5092.73401 1045.18513 0.000185815
6431 6119.0583 1045.16758 0.00015551
7273 6961.89067 1045.15 0.000137501
7762 7395.95215 1045.13238 0.000128839
7611 7337.25177 1045.11474 0.000131392
6957 6799.69942 1045.09708 0.000143735
6070 5913.80353 1045.07938 0.000164746
4991 4928.2802 1045.06165 0.000200344
4107 4051.10458 1045.04389 0.000243455
3447 3372.61482 1045.02611 0.000290119
3058 2909.22734 1045.0083 0.000327001
2792 2643.53317 1044.99045 0.000358158
2711 2551.68458 1044.97258 0.000368829
2914 2617.30975 1044.95468 0.00034319
3016 2829.78471 1044.93675 0.000331542
3349 3182.7203 1044.91879 0.000298602
3729 3652.85848 1044.9008 0.000268129
4220 4174.34273 1044.88279 0.000236978
4765 4625.00986 1044.86474 0.000209857
5074 4880.59055 1044.84667 0.000197094
5082 4889.1986 1044.82856 0.000196763
4837 4664.3442 1044.81043 0.000206731
4604 4283.97539 1044.79227 0.00021722
4252 3895.83548 1044.77408 0.000235164
4061 3628.02015 1044.75586 0.000246214
3963 3546.39654 1044.73761 0.000252353
4101 3665.15451 1044.71934 0.000243836
4226 3955.73424 1044.70103 0.000236614
4384 4340.90247 1044.68269 0.000228114
4569 4710.12445 1044.66433 0.000218895
4796 4998.83124 1044.64594 0.000208526
4937 5223.98693 1044.62751 0.000202574
5052 5394.32356 1044.60906 0.000197927
5360 5494.50054 1044.59058 0.000186577
5593 5584.25304 1044.57207 0.000178778
5823 5773.53625 1044.55353 0.000171726
6351 6091.74928 1044.53496 0.000157468
7064 6435.10931 1044.51637 0.000141555
7834 6621.65609 1044.49774 0.000127648
8046 6502.61684 1044.47909 0.000124284
7437 6055.30936 1044.4604 0.000134457
6144 5424.62434 1044.44169 0.000162776
5112 4813.79088 1044.42295 0.000195609
4273 4348.11136 1044.40418 0.000234015
3919 4051.2711 1044.38538 0.000255183
3653 3877.81255 1044.36655 0.000273748
3576 3772.79671 1044.34769 0.000279639
3415 3714.38756 1044.3288 0.000292806
3374 3684.28104 1044.30988 0.000296345
3458 3653.31623 1044.29094 0.000289231
3505 3630.86599 1044.27196 0.000285336
3632 3666.06539 1044.25296 0.000275295
3728 3780.38525 1044.23393 0.000268217
4107 3928.7647 1044.21487 0.000243455
4513 4016.67411 1044.19577 0.000221575
4714 3956.63904 1044.17665 0.000212125
4381 3718.53942 1044.1575 0.000228252
3986 3355.62149 1044.13833 0.000250916
3345 2968.38804 1044.11912 0.000298912
2798 2631.34298 1044.09988 0.000357346
2485 2377.60759 1044.08061 0.000402411
2324 2215.05788 1044.06132 0.000430255
2217 2141.35686 1044.042 0.000450965
2332 2154.41871 1044.02264 0.00042883
2514 2258.70384 1044.00326 0.000397769
2635 2466.52774 1043.98385 0.00037954
2910 2793.90491 1043.96441 0.000343699
3321 3250.9763 1043.94494 0.000301094
3662 3825.56724 1043.92544 0.000273115
4230 4457.2038 1043.90591 0.000236395
4723 5019.92341 1043.88635 0.000211755
5067 5375.02931 1043.86676 0.000197371
5478 5483.16013 1043.84715 0.000182566
5671 5424.72246 1043.8275 0.000176317
5609 5280.31501 1043.80783 0.0001783
5490 5037.58217 1043.78813 0.000182172
5159 4673.69412 1043.76839 0.000193815
4596 4272.2269 1043.74863 0.000217605
4170 3968.66875 1043.72884 0.000239775
4038 3855.36095 1043.70902 0.00024761
4187 3968.64204 1043.68917 0.000238813
4576 4299.96418 1043.66929 0.000218507
5087 4788.04301 1043.64938 0.000196597
5707 5310.04523 1043.62945 0.000175245
6150 5742.78403 1043.60948 0.00016261
6396 6062.68766 1043.58948 0.000156367
6519 6288.18823 1043.56946 0.000153399
6512 6352.8399 1043.5494 0.000153551
6441 6153.42108 1043.52932 0.000155239
5989 5708.24305 1043.50921 0.000166967
5490 5159.23686 1043.48907 0.000182172
4730 4606.63609 1043.46889 0.000211447
4275 4078.62604 1043.44869 0.000233943
3704 3604.31832 1043.42846 0.000269983
3336 3232.60963 1043.4082 0.000299741
3007 2990.62047 1043.38792 0.00033251
2855 2878.12628 1043.3676 0.000350292
2891 2881.5344 1043.34725 0.000345876
3028 2970.21955 1043.32688 0.000330218
3163 3084.74924 1043.30647 0.000316162
3282 3153.9847 1043.28603 0.000304679
3444 3153.73419 1043.26557 0.000290317
3253 3116.32909 1043.24508 0.000307355
3212 3061.68669 1043.22455 0.000311382
3232 2966.25781 1043.204 0.000309413
3079 2814.63433 1043.18342 0.000324766
2793 2649.16739 1043.16281 0.000358022
2608 2532.09747 1043.14217 0.000383414
2563 2505.09169 1043.1215 0.000390107
2686 2577.98746 1043.1008 0.000372252
2840 2731.51804 1043.08007 0.000352134
3135 2916.20287 1043.05932 0.000318991
3414 3054.39179 1043.03853 0.000292906
3410 3057.99835 1043.01771 0.000293207
3184 2890.73957 1042.99687 0.000314036
2803 2611.88357 1042.97599 0.000356806
2423 2312.86657 1042.95509 0.000412778
2063 2052.06463 1042.93416 0.000484737
1850 1852.03375 1042.91319 0.000540581
1750 1715.44401 1042.8922 0.000571511
1694 1636.43673 1042.87118 0.000590268
1691 1607.65094 1042.85013 0.000591417
1662 1624.47984 1042.82905 0.000601615
1710 1686.56545 1042.80794 0.000584856
1889 1796.25666 1042.7868 0.000529445
2066 1954.05179 1042.76563 0.000484097
2228 2153.245 1042.74443 0.000448865
2460 2378.34846 1042.72321 0.000406478
2744 2602.91881 1042.70195 0.000364476
2923 2778.98662 1042.68066 0.000342175
2938 2844.3654 1042.65935 0.000340409
2948 2756.74346 1042.638 0.000339157
2720 2541.80332 1042.61663 0.000367698
2351 2266.41202 1042.59522 0.0004253
2069 2000.56773 1042.57379 0.000483246
1830 1780.45284 1042.55233 0.00054641
1638 1615.9552 1042.53084 0.000610567
1518 1503.25429 1042.50931 0.000658813
1402 1431.593 1042.48776 0.000713392
1422 1394.27879 1042.46618 0.000703213
1416 1381.88087 1042.44457 0.000706206
1390 1387.20801 1042.42293 0.000719529
1401 1408.78232 1042.40126 0.000713773
1476 1441.71092 1042.37957 0.000677463
1473 1485.04646 1042.35784 0.000678875
1487 1537.07364 1042.33608 0.000672552
1623 1588.38417 1042.31429 0.000616035
1622 1614.52261 1042.29248 0.000616647
1582 1594.89434 1042.27063 0.00063225
1509 1533.86162 1042.24876 0.000662549
1432 1453.71163 1042.22685 0.00069839
1337 1376.40599 1042.20492 0.000747739
1275 1311.99377 1042.18295 0.000784188
1211 1263.01449 1042.16096 0.000825737
1191 1227.40652 1042.13894 0.000839673
1185 1203.77483 1042.11689 0.00084407
1167 1188.07016 1042.09481 0.000856967
1134 1177.02455 1042.07269 0.000882092
1138 1170.20897 1042.05055 0.000878956
1127 1165.69948 1042.02838 0.000887355
1115 1162.8462 1042.00618 0.000896948
1145 1161.30937 1041.98395 0.000873251
1148 1161.21069 1041.96169 0.000871191
1141 1161.92585 1041.93941 0.000876356
1136 1163.74281 1041.91709 0.000880522
1101 1165.99443 1041.89474 0.000908337
1131 1170.28777 1041.87236 0.000884191
1184 1176.07719 1041.84996 0.00084456
1180 1183.66238 1041.82752 0.000847513
1192 1192.61516 1041.80505 0.0008387
1200 1205.46183 1041.78256 0.000833382
1251 1222.58299 1041.76003 0.000799337
1284 1246.2291 1041.73748 0.000778944
1337 1280.50523 1041.7149 0.000747739
1469 1331.17478 1041.69228 0.000680648
1541 1409.65597 1041.66964 0.000648783
1697 1526.15308 1041.64697 0.000589409
1910 1695.45254 1041.62426 0.000523645
2167 1924.31438 1041.60153 0.000461488
2514 2206.2629 1041.57877 0.000397769
2778 2510.89912 1041.55598 0.000359927
2879 2764.70614 1041.53316 0.000347295
2887 2863.19554 1041.51031 0.000346391
2751 2753.18692 1041.48743 0.000363504
2513 2496.91255 1041.46452 0.000397928
2276 2198.9258 1041.44158 0.00043932
2058 1929.77307 1041.41861 0.000485806
1899 1716.55411 1041.39561 0.000526533
1749 1564.14365 1041.37258 0.000571784
1687 1466.10182 1041.34952 0.000592858
1711 1411.65322 1041.32644 0.000584573
1655 1393.57464 1041.30332 0.00060428
1680 1406.77679 1041.28017 0.000595174
1711 1452.52638 1041.257 0.000584573
1737 1531.96571 1041.23379 0.000575632
1906 1645.28474 1041.21055 0.000524605
1990 1784.32342 1041.18729 0.000502499
2060 1926.65993 1041.16399 0.000485377
2099 2027.2279 1041.14067 0.000476518
2120 2036.08888 1041.11731 0.000471769
2002 1946.99128 1041.09393 0.000499583
1845 1804.80871 1041.07051 0.000542093
1818 1658.48973 1041.04707 0.000550004
1723 1533.46867 1041.0236 0.000580356
1563 1438.75499 1041.00009 0.00063995
1477 1373.92164 1040.97656 0.00067711
1458 1334.16376 1040.953 0.000686006
1436 1312.78848 1040.92941 0.000696548
1436 1305.02918 1040.90578 0.000696548
1440 1308.2634 1040.88213 0.000694347
1402 1320.20474 1040.85845 0.000713392
1419 1341.03484 1040.83474 0.000704707
1501 1372.48931 1040.811 0.000666317
1558 1420.115 1040.78723 0.000641898
1619 1491.88418 1040.76343 0.000617567
1728 1600.94685 1040.7396 0.000578682
1916 1765.40678 1040.71574 0.000521972
2187 2006.46661 1040.69185 0.000457157
2435 2343.40783 1040.66793 0.000410606
2741 2784.32185 1040.64398 0.000364894
3180 3307.00032 1040.62 0.000314482
3664 3840.30685 1040.59599 0.000272935
4064 4256.09824 1040.57195 0.000246059
4261 4442.25102 1040.54788 0.00023466
4200 4362.47435 1040.52379 0.000238076
3957 4033.44301 1040.49966 0.000252754
3665 3541.17159 1040.4755 0.000272844
3236 3016.12292 1040.45131 0.000308978
2708 2555.38506 1040.4271 0.000369254
2376 2200.40936 1040.40285 0.000420948
2217 1952.64678 1040.37857 0.000450965
2008 1801.36268 1040.35427 0.000498024
1966 1732.4695 1040.32993 0.000508638
1957 1735.96368 1040.30556 0.00051094
2037 1807.27596 1040.28117 0.000490986
2107 1944.97473 1040.25674 0.000474651
2183 2144.34492 1040.23228 0.000458136
2414 2386.07325 1040.2078 0.000414292
2585 2625.40348 1040.18328 0.000386891
2787 2794.69634 1040.15874 0.000358837
2831 2844.91957 1040.13416 0.000353194
2802 2763.87335 1040.10956 0.000356941
2619 2566.46901 1040.08492 0.000381768
2448 2301.66495 1040.06026 0.000408452
2232 2034.15056 1040.03556 0.000448105
2034 1805.9704 1040.01084 0.00049164
1876 1631.69816 1039.98609 0.000533118
1785 1510.5786 1039.9613 0.000560204
1714 1434.57594 1039.93649 0.000583444
1642 1395.45993 1039.91164 0.000609061
1616 1384.60151 1039.88677 0.000618797
1625 1396.55758 1039.86187 0.000615424
1598 1423.37486 1039.83693 0.000625939
1586 1454.23392 1039.81197 0.000630663
1623 1472.58689 1039.78698 0.000616035
1616 1463.08808 1039.76195 0.000618797
1584 1426.25297 1039.7369 0.000631297
1533 1377.07913 1039.71182 0.000652434
1428 1329.84222 1039.6867 0.000700239
1383 1291.98749 1039.66156 0.000723016
1379 1266.15663 1039.63639 0.000725354
1341 1252.8133 1039.61118 0.000745699
1377 1252.03782 1039.58595 0.000726136
1415 1264.75166 1039.56069 0.000706582
1462 1293.73155 1039.5354 0.000683855
1480 1343.39927 1039.51007 0.000675703
1626 1418.68961 1039.48472 0.000615119
1692 1522.61153 1039.45934 0.000591129
1882 1653.68346 1039.43393 0.000531399
1969 1799.85817 1039.40848 0.00050795
2143 1929.76961 1039.38301 0.000466687
2205 1996.90966 1039.35751 0.000453465
2067 1974.98253 1039.33198 0.000483884
2086 1890.52336 1039.30641 0.000479444
2002 1794.64288 1039.28082 0.000499583
1923 1723.24794 1039.2552 0.000520069
1849 1689.53149 1039.22955 0.000540833
1886 1688.41846 1039.20386 0.000530176
1776 1700.1619 1039.17815 0.000563133
1855 1701.67791 1039.15241 0.000539076
1881 1685.13554 1039.12664 0.000531644
1846 1656.93079 1039.10084 0.000541588
1776 1622.91115 1039.075 0.000563133
1709 1590.24832 1039.04914 0.000585139
1726 1571.2603 1039.02325 0.000579239
1728 1574.9903 1038.99733 0.000578682
1760 1601.20918 1038.97137 0.000568246
1742 1637.9009 1038.94539 0.000573978
1748 1666.84683 1038.91938 0.000572057
1761 1680.77835 1038.89334 0.000567975
1800 1694.58946 1038.86726 0.000555461
1816 1729.71735 1038.84116 0.000550778
1927 1796.1942 1038.81503 0.000518885
2002 1886.20815 1038.78887 0.000499583
2002 1971.51121 1038.76267 0.000499583
2066 2012.46485 1038.73645 0.000484097
2103 1993.3502 1038.7102 0.00047548
2035 1937.74277 1038.68392 0.000491422
1986 1878.92392 1038.6576 0.000503628
1944 1833.18409 1038.63126 0.000514422
1906 1801.35094 1038.60489 0.000524605
1927 1780.833 1038.57848 0.000518885
1903 1775.01755 1038.55205 0.000525568
1905 1789.19907 1038.52559 0.000524846
1942 1816.38809 1038.49909 0.000514889
1891 1831.86439 1038.47257 0.000528714
1907 1809.87917 1038.44602 0.000524365
1835 1752.63776 1038.41943 0.00054488
1804 1687.05412 1038.39282 0.000554416
1752 1636.02569 1038.36617 0.000570692
1715 1605.61777 1038.3395 0.000583162
1651 1586.7192 1038.3128 0.000605768
1634 1563.28843 1038.28606 0.000612079
1559 1529.9785 1038.2593 0.000641572
1541 1497.65729 1038.2325 0.000648783
1548 1480.5396 1038.20568 0.000646147
1520 1486.87744 1038.17882 0.000657799
1534 1517.5005 1038.15194 0.000651768
1619 1570.85229 1038.12502 0.000617567
1663 1646.69836 1038.09808 0.00060132
1707 1742.31961 1038.0711 0.000585706
1656 1843.89293 1038.0441 0.000603983
1789 1913.6358 1038.01706 0.000558881
1782 1908.27832 1037.98999 0.000561267
1758 1820.16723 1037.9629 0.000568788
1749 1686.0302 1037.93577 0.000571784
1559 1547.53398 1037.90861 0.000641572
1451 1427.91224 1037.88143 0.000689252
1373 1335.01031 1037.85421 0.00072849
1295 1268.46018 1037.82696 0.000772034
1243 1224.21854 1037.79969 0.000804332
1203 1197.39966 1037.77238 0.000831461
1198 1184.04759 1037.74504 0.000834828
1167 1181.90736 1037.71767 0.000856967
1196 1190.43335 1037.69027 0.000836277
1200 1209.52672 1037.66285 0.000833382
1198 1239.09719 1037.63539 0.000834828
1199 1276.60201 1037.6079 0.000833864
1223 1317.72194 1037.58038 0.000817728
1262 1347.61224 1037.55283 0.0007926
1272 1352.42526 1037.52525 0.000785948
1243 1327.18428 1037.49764 0.000804332
1215 1282.89798 1037.47 0.000822897
1210 1234.61513 1037.44233 0.000826211
1185 1191.55141 1037.41463 0.00084407
1139 1157.42899 1037.3869 0.000877915
1122 1131.95024 1037.35914 0.000891067
1100 1114.05009 1037.33135 0.000908885
1063 1101.88173 1037.30352 0.000940946
1113 1093.70544 1037.27567 0.000898562
1061 1088.18749 1037.24779 0.00094268
1045 1084.43593 1037.21988 0.000956728
1064 1081.88971 1037.19193 0.000939793
1003 1080.16053 1037.16396 0.00099702
1026 1078.87736 1037.13596 0.000974734
1002 1077.60497 1037.10792 0.00099828
1073 1076.56963 1037.07986 0.000931777
1004 1074.70012 1037.05177 0.000995762
986 1072.87209 1037.02364 0.00101424
994 1071.34883 1036.99549 0.001005894
1012 1070.20994 1036.9673 0.000988263
1034 1068.53773 1036.93909 0.00096687
1017 1067.78548 1036.91084 0.000983311
1028 1066.2289 1036.88256 0.000972911
1020 1065.25678 1036.85426 0.000980235
1026 1064.30878 1036.82592 0.000974734
1030 1063.52873 1036.79755 0.000971092
1023 1062.98027 1036.76916 0.000977784
1035 1062.68099 1036.74073 0.000966269
1040 1062.62804 1036.71227 0.000961481
1070 1062.81381 1036.68378 0.000934628
1025 1063.23701 1036.65526 0.000975343
1068 1063.91052 1036.62671 0.000936345
1079 1064.86656 1036.59813 0.000926679
1092 1066.16092 1036.56952 0.000915497
1120 1067.8809 1036.54088 0.000892665
1156 1071.07457 1036.51221 0.000865052
1188 1073.74593 1036.48351 0.000841623
1183 1078.00722 1036.45478 0.000845543
1184 1084.04504 1036.42602 0.00084456
1208 1093.5405 1036.39722 0.000827638
1187 1106.48491 1036.3684 0.0008426
1185 1125.1798 1036.33955 0.00084407
1192 1150.88684 1036.31067 0.0008387
1182 1183.73119 1036.28175 0.000846035
1182 1221.44291 1036.25281 0.000846035
1203 1257.38275 1036.22383 0.000831461
1204 1279.66638 1036.19483 0.000830503
1185 1277.58448 1036.16579 0.00084407
1191 1252.76776 1036.13672 0.000839673
1166 1217.24284 1036.10763 0.000857469
1143 1181.95588 1036.0785 0.000874802
1151 1152.4598 1036.04934 0.000868625
1159 1130.33567 1036.02016 0.00086302
1127 1116.02964 1035.99094 0.000887355
1086 1107.40808 1035.96169 0.000921063
1120 1103.73999 1035.93241 0.000892665
1141 1104.77755 1035.9031 0.000876356
1123 1109.19113 1035.87376 0.000890535
1138 1117.80249 1035.84439 0.000878956
1129 1131.17563 1035.81499 0.000885771
1127 1149.81554 1035.78556 0.000887355
1148 1173.67864 1035.75609 0.000871191
1134 1201.33987 1035.7266 0.000882092
1210 1229.078 1035.69708 0.000826211
1212 1252.317 1035.66753 0.000825262
1163 1270.77836 1035.63794 0.000859986
1120 1289.59402 1035.60833 0.000892665
1233 1312.73869 1035.57868 0.000811219
1266 1337.18904 1035.54901 0.000789929
1194 1351.385 1035.5193 0.00083773
1255 1343.7103 1035.48956 0.000796632
1218 1313.48006 1035.4598 0.000821011
1169 1272.63975 1035.43 0.000855464
1133 1233.01211 1035.40017 0.000882616
1136 1200.71778 1035.37031 0.000880522
1158 1177.64919 1035.34042 0.000863527
1066 1163.56106 1035.3105 0.000938067
1051 1157.1972 1035.28055 0.000951424
1093 1157.72229 1035.25057 0.000914944
1168 1164.39077 1035.22056 0.000855965
1173 1177.41935 1035.19052 0.000852469
1206 1198.37208 1035.16045 0.000829069
1273 1229.76482 1035.13034 0.000785507
1315 1275.44816 1035.10021 0.000760579
1368 1340.35097 1035.07004 0.000730855
1471 1428.92053 1035.03985 0.000679938
1596 1543.25712 1035.00962 0.000626565
1742 1681.89361 1034.97937 0.000573978
1863 1840.78533 1034.94908 0.00053683
1970 2011.07979 1034.91876 0.000507721
2131 2164.12238 1034.88842 0.000469319
2175 2245.54609 1034.85804 0.000459709
2098 2213.11926 1034.82763 0.000476726
2001 2087.31519 1034.79719 0.000499807
1821 1930.3618 1034.76672 0.000549231
1734 1790.63775 1034.73622 0.000576738
1602 1687.95444 1034.70569 0.000624375
1574 1620.45266 1034.67513 0.000635442
1500 1572.02492 1034.64453 0.000666661
1465 1523.97389 1034.61391 0.000682427
1451 1471.79678 1034.58326 0.000689252
1444 1424.98594 1034.55257 0.000692521
1408 1394.94318 1034.52186 0.000710353
1432 1388.89316 1034.49111 0.00069839
1517 1410.27035 1034.46033 0.000659151
1597 1459.60516 1034.42953 0.000626252
1556 1531.59279 1034.39869 0.000642549
1626 1612.45323 1034.36782 0.000615119
1704 1675.98532 1034.33692 0.000586841
1641 1691.21976 1034.30599 0.000609362
1615 1650.55626 1034.27503 0.000619105
1604 1578.53859 1034.24404 0.00062344
1599 1505.01889 1034.21302 0.000625313
1513 1447.01905 1034.18196 0.000660847
1559 1408.69936 1034.15088 0.000641572
1527 1385.11616 1034.11977 0.000654773
1543 1366.2848 1034.08862 0.000648122
1548 1345.16475 1034.05745 0.000646147
1484 1322.80039 1034.02624 0.00067395
1522 1304.70175 1033.995 0.000657125
1523 1295.95571 1033.96374 0.000656452
1520 1300.531 1033.93244 0.000657799
1585 1322.70185 1033.90111 0.00063098
1612 1368.2878 1033.86975 0.000620339
1647 1444.02858 1033.83836 0.000607262
1739 1557.73646 1033.80694 0.00057508
1959 1716.14231 1033.77549 0.000510478
2188 1920.48477 1033.744 0.000456961
2379 2159.08542 1033.71249 0.000420431
2600 2397.43094 1033.68095 0.000384618
2843 2585.76236 1033.64937 0.000351738
2964 2696.44149 1033.61777 0.000337415
2977 2732.96759 1033.58613 0.000335932
2875 2685.91908 1033.55446 0.000347813
2647 2535.73294 1033.52276 0.000377772
2407 2304.87121 1033.49104 0.000415475
2158 2053.09938 1033.45928 0.000463477
1937 1828.38475 1033.42749 0.000516294
1781 1651.55614 1033.39567 0.000561533
1611 1525.96459 1033.36381 0.000620648
1509 1448.00343 1033.33193 0.000662549
1499 1411.79771 1033.30002 0.000667005
1501 1412.48827 1033.26807 0.000666317
1571 1446.96466 1033.2361 0.000636404
1554 1512.93196 1033.20409 0.000643527
1644 1606.15902 1033.17206 0.000608161
1677 1714.59749 1033.13999 0.000596338
1807 1815.73923 1033.10789 0.000553373
1883 1885.8654 1033.07576 0.000531154
1900 1918.22965 1033.0436 0.000526291
1902 1914.59465 1033.01141 0.000525809
1890 1865.48409 1032.97919 0.000529201
1684 1766.08882 1032.94694 0.000593725
1589 1636.89226 1032.91465 0.000629398
1507 1507.74099 1032.88234 0.000663573
1402 1396.70392 1032.84999 0.000713392
1285 1309.57392 1032.81762 0.000778075
1293 1245.18599 1032.78521 0.000773322
1159 1199.5382 1032.75277 0.00086302
1107 1167.87967 1032.72031 0.00090343
1087 1145.90688 1032.68781 0.000919946
1009 1130.30402 1032.65528 0.000991377
1035 1118.80614 1032.62272 0.000966269
1062 1110.08961 1032.59012 0.000941524
1029 1103.1726 1032.5575 0.000971698
1035 1097.60892 1032.52485 0.000966269
1038 1093.13995 1032.49216 0.000963272
991 1089.60783 1032.45945 0.001009092
985 1086.9495 1032.4267 0.001015533
1030 1085.20132 1032.39392 0.000971092
1016 1084.52581 1032.36112 0.000984546
994 1085.24421 1032.32828 0.001005894
1006 1087.89115 1032.29541 0.000993879
1032 1092.98344 1032.26251 0.000969279
1051 1101.13781 1032.22957 0.000951424
1041 1112.63189 1032.19661 0.000960885
1047 1127.03185 1032.16362 0.000954955
1092 1142.48525 1032.13059 0.000915497
1132 1154.86523 1032.09754 0.000883141
1147 1158.61225 1032.06445 0.000871705
1128 1151.27861 1032.03133 0.000886298
1105 1136.35747 1031.99819 0.000905061
1125 1119.38667 1031.96501 0.000888943
1103 1103.97805 1031.9318 0.000906697
1056 1091.63892 1031.89855 0.000946746
1062 1082.62641 1031.86528 0.000941524
985 1076.62092 1031.83198 0.001015533
1005 1072.95254 1031.79864 0.000995134
1044 1071.364 1031.76528 0.000957913
1006 1071.47826 1031.73188 0.000993879
999 1073.26787 1031.69846 0.001000809
1020 1076.9075 1031.665 0.000980235
1001 1082.67135 1031.63151 0.000998912
1020 1090.79252 1031.59799 0.000980235
1072 1101.26313 1031.56444 0.000932916
1029 1113.48863 1031.53085 0.000971698
1039 1125.93873 1031.49724 0.000962674
1091 1136.87824 1031.4636 0.000916606
1112 1146.6201 1031.42992 0.000899101
1122 1157.84243 1031.39622 0.000891067
1134 1172.65382 1031.36248 0.000882092
1139 1190.01848 1031.32871 0.000877915
1169 1204.57845 1031.29491 0.000855464
1155 1208.0965 1031.26108 0.000865561
1136 1196.22161 1031.22722 0.000880522
1126 1173.49701 1031.19333 0.000887884
1081 1147.85189 1031.1594 0.000924989
1072 1124.6704 1031.12545 0.000932916
1043 1106.17466 1031.09146 0.000958506
1048 1092.73368 1031.05745 0.000954365
1046 1083.71915 1031.0234 0.000956137
1015 1078.53599 1030.98932 0.000985164
1038 1076.32505 1030.95521 0.000963272
986 1076.63939 1030.92107 0.00101424
973 1079.40071 1030.8869 0.001027944
982 1084.84398 1030.85269 0.001018127
1002 1093.38338 1030.81846 0.00099828
1014 1105.37079 1030.78419 0.000986402
1030 1120.86934 1030.7499 0.000971092
1050 1139.12013 1030.71557 0.000952599
1101 1157.953 1030.68121 0.000908337
1123 1174.5005 1030.64682 0.000890535
1130 1188.40994 1030.6124 0.000884717
1165 1203.08681 1030.57795 0.000858475
1137 1221.76458 1030.54347 0.000879478
1116 1243.42887 1030.50895 0.000895874
1154 1261.19545 1030.47441 0.00086658
1186 1264.88843 1030.43983 0.00084309
1145 1250.22346 1030.40522 0.000873251
1119 1224.07707 1030.37058 0.000893733
1134 1196.51987 1030.33591 0.000882092
1109 1173.8931 1030.30121 0.000901803
1104 1157.8379 1030.26648 0.000905606
1073 1149.08356 1030.23172 0.000931777
1156 1146.48663 1030.19692 0.000865052
1192 1150.54969 1030.1621 0.0008387
1199 1162.43289 1030.12724 0.000833864
1255 1182.52843 1030.09235 0.000796632
1237 1209.55415 1030.05743 0.000808454
1326 1238.58149 1030.02248 0.000754325
1321 1261.4479 1029.9875 0.000756818
1396 1271.29411 1029.95249 0.000716451
1320 1269.33871 1029.91744 0.000757651
1225 1262.72387 1029.88237 0.000816327
1236 1255.4854 1029.84726 0.000808914
1169 1246.64896 1029.81212 0.000855464
1179 1235.55221 1029.77695 0.000848007
1169 1224.73242 1029.74175 0.000855464
1214 1215.85933 1029.70652 0.000823842
1177 1206.56889 1029.67126 0.000849491
1171 1193.02999 1029.63597 0.000853965
1128 1175.93498 1029.60064 0.000886298
1103 1159.02903 1029.56529 0.000906697
1072 1146.10147 1029.5299 0.000932916
1113 1139.69345 1029.49448 0.000898562
1116 1140.40624 1029.45903 0.000895874
1147 1147.14309 1029.42355 0.000871705
1149 1156.3646 1029.38804 0.000870163
1152 1162.71071 1029.35249 0.000868113
1183 1160.82922 1029.31692 0.000845543
1159 1150.13082 1029.28131 0.00086302
1088 1134.83082 1029.24568 0.000919388
1044 1119.9103 1029.21001 0.000957913
1064 1108.48264 1029.17431 0.000939793
1095 1101.63467 1029.13858 0.000913285
1053 1098.91999 1029.10281 0.000949665
1026 1098.54771 1029.06702 0.000974734
1059 1097.6117 1029.03119 0.000944419
1071 1093.69123 1028.99534 0.000933486
1086 1086.4849 1028.95945 0.000921063
1054 1078.08229 1028.92353 0.000948496
1000 1070.0086 1028.88758 0.001000176
996 1063.93992 1028.8516 0.001003982
971 1059.84349 1028.81559 0.001029924
940 1057.67575 1028.77954 0.001063789
946 1056.66717 1028.74347 0.001056884
919 1057.34007 1028.70736 0.001087781
922 1058.47682 1028.67122 0.001084917
945 1059.35386 1028.63505 0.00105826
975 1059.71338 1028.59885 0.001025969
975 1059.72911 1028.56262 0.001025969
946 1059.31864 1028.52636 0.001056884
986 1057.92818 1028.49006 0.00101424
948 1055.22991 1028.45373 0.001054826
911 1051.69523 1028.41738 0.001097897
934 1048.10911 1028.38099 0.001070763
943 1045.03604 1028.34457 0.001060328
976 1042.53268 1028.30812 0.001024656
985 1040.65112 1028.27163 0.001015533
918 1039.10086 1028.23512 0.001089218
991 1038.18494 1028.19857 0.001009092
992 1037.60157 1028.16199 0.001007811
936 1037.28902 1028.12539 0.001068664
945 1036.9762 1028.08875 0.00105826
958 1037.17044 1028.05207 0.001043948
950 1037.64407 1028.01537 0.001052773
972 1038.41215 1027.97864 0.001028603
1003 1039.44844 1027.94187 0.00099702
978 1040.63448 1027.90507 0.001022691
958 1041.69099 1027.86825 0.001043948
970 1042.19909 1027.83139 0.001031247
988 1041.89978 1027.7945 0.001012305
978 1040.99249 1027.75757 0.001022691
948 1039.92761 1027.72062 0.001054826
946 1039.06378 1027.68363 0.001056884
992 1038.59901 1027.64662 0.001007811
1030 1038.62726 1027.60957 0.000971092
1033 1039.17591 1027.57249 0.000968073
1036 1040.20998 1027.53538 0.000965068
1043 1041.60663 1027.49823 0.000958506
1019 1043.09141 1027.46106 0.000981464
1037 1044.18936 1027.42385 0.000964469
1071 1044.41816 1027.38662 0.000933486
1038 1043.73544 1027.34935 0.000963272
1083 1042.57949 1027.31205 0.000923303
1115 1041.42631 1027.27472 0.000896948
1034 1040.54832 1027.23735 0.00096687
1002 1040.05177 1027.19996 0.00099828
1005 1039.9563 1027.16253 0.000995134
1036 1040.24606 1027.12507 0.000965068
1009 1040.90373 1027.08759 0.000991377
1036 1041.891 1027.05006 0.000965068
1013 1043.35652 1027.01251 0.000987022
1014 1045.38519 1026.97493 0.000986402
1052 1048.22002 1026.93731 0.000950837
1042 1052.2626 1026.89967 0.000959694
985 1058.11586 1026.86199 0.001015533
1019 1066.58238 1026.82428 0.000981464
1072 1078.55648 1026.78654 0.000932916
1089 1094.77334 1026.74877 0.000918274
1109 1115.48308 1026.71096 0.000901803
1172 1140.05685 1026.67313 0.000853466
1209 1166.04454 1026.63526 0.000827162
1236 1187.64684 1026.59736 0.000808914
1190 1196.47425 1026.55943 0.00084016
1213 1188.09003 1026.52147 0.000824315
1194 1167.20525 1026.48347 0.00083773
1130 1142.37691 1026.44545 0.000884717
1123 1119.79196 1026.40739 0.000890535
1114 1102.25129 1026.3693 0.000897485
1026 1090.69887 1026.33118 0.000974734
1040 1085.17208 1026.29303 0.000961481
1087 1085.5121 1026.25485 0.000919946
1132 1091.65352 1026.21663 0.000883141
1115 1103.66005 1026.17839 0.000896948
1116 1121.47393 1026.14011 0.000895874
1129 1144.25022 1026.1018 0.000885771
1196 1169.55297 1026.06346 0.000836277
1264 1191.96232 1026.02509 0.000791263
1271 1205.20555 1025.98668 0.00078683
1258 1207.34964 1025.94825 0.000794836
1228 1201.29118 1025.90978 0.000814464
1182 1189.12982 1025.87128 0.000846035
1148 1171.14228 1025.83275 0.000871191
1152 1149.6917 1025.79419 0.000868113
1139 1129.19861 1025.75559 0.000877915
1076 1113.21054 1025.71697 0.000929506
1059 1103.9019 1025.67831 0.000944419
1072 1101.04459 1025.63962 0.000932916
1090 1105.29284 1025.6009 0.000917162
1133 1116.52884 1025.56215 0.000882616
1163 1134.04316 1025.52336 0.000859986
1218 1155.81078 1025.48455 0.000821011
1254 1177.35386 1025.4457 0.000797532
1289 1192.09254 1025.40682 0.00077591
1323 1195.19696 1025.36791 0.000755985
1332 1187.22051 1025.32897 0.00075061
1277 1171.03935 1025.29 0.000782872
1171 1149.39566 1025.25099 0.000853965
1193 1126.0068 1025.21195 0.000838215
1142 1104.51064 1025.17288 0.000875838
1130 1087.1031 1025.13378 0.000884717
1072 1074.1649 1025.09465 0.000932916
1067 1065.1773 1025.05549 0.000937492
999 1059.57795 1025.01629 0.001000809
1031 1056.82632 1024.97706 0.000969883
1064 1056.80581 1024.9378 0.000939793
985 1058.98557 1024.89851 0.001015533
999 1063.4603 1024.85919 0.001000809
1044 1070.15972 1024.81984 0.000957913
1033 1078.25232 1024.78045 0.000968073
1111 1086.62632 1024.74103 0.00090018
1066 1091.61752 1024.70158 0.000938067
1050 1090.73671 1024.6621 0.000952599
1071 1084.16799 1024.62259 0.000933486
1049 1074.58386 1024.58304 0.000953187
1054 1064.88762 1024.54347 0.000948496
1021 1056.34047 1024.50386 0.000979621
971 1049.52109 1024.46422 0.001029924
982 1044.48505 1024.42454 0.001018127
998 1040.90438 1024.38484 0.001002076
959 1038.546 1024.34511 0.0010426
940 1036.81704 1024.30534 0.001063789
935 1035.54444 1024.26554 0.001069363
942 1034.62508 1024.22571 0.001061711
934 1033.91993 1024.18585 0.001070763
928 1033.37318 1024.14595 0.001077805
915 1032.91627 1024.10602 0.001092822
920 1032.58571 1024.06607 0.001087064
955 1032.27623 1024.02608 0.001047329
951 1032.22994 1023.98606 0.001051408
942 1031.99877 1023.946 0.001061711
950 1031.83603 1023.90592 0.001052773
947 1031.98401 1023.8658 0.001056197
947 1031.89586 1023.82565 0.001056197
946 1031.89923 1023.78547 0.001056884
911 1031.87076 1023.74526 0.001097897
970 1031.86936 1023.70501 0.001031247
969 1031.89437 1023.66474 0.00103191
948 1031.94559 1023.62443 0.001054826
913 1032.07286 1023.58409 0.001094992
928 1032.26867 1023.54372 0.001077805
904 1032.53113 1023.50331 0.001105944
901 1032.70147 1023.46288 0.001109631
953 1032.90499 1023.42241 0.001049365
983 1033.14502 1023.38191 0.001017478
963 1033.42594 1023.34138 0.001038572
978 1033.75341 1023.30082 0.001022691
1050 1034.13496 1023.26022 0.000952599
946 1034.58095 1023.21959 0.001056884
948 1035.1064 1023.17893 0.001054826
970 1035.7296 1023.13824 0.001031247
998 1036.64249 1023.09752 0.001002076
937 1037.62167 1023.05677 0.001067268
975 1038.91175 1023.01598 0.001025969
982 1040.67012 1022.97516 0.001018127
1009 1043.10135 1022.93431 0.000991377
999 1046.46321 1022.89343 0.001000809
1072 1050.96689 1022.85252 0.000932916
1080 1056.70926 1022.81157 0.000926115
1047 1063.56392 1022.77059 0.000954955
1061 1070.75679 1022.72958 0.00094268
1061 1076.64349 1022.68854 0.00094268
1043 1079.25175 1022.64747 0.000958506
1066 1077.77602 1022.60636 0.000938067
1022 1073.57808 1022.56522 0.000978396
1009 1068.73665 1022.52405 0.000991377
1015 1064.64243 1022.48285 0.000985164
1049 1061.90722 1022.44162 0.000953187
1056 1060.69573 1022.40035 0.000946746
1025 1060.97 1022.35906 0.000975343
997 1062.6443 1022.31773 0.001002711
998 1065.70443 1022.27637 0.001002076
1024 1070.31518 1022.23497 0.000976562
1031 1076.92924 1022.19355 0.000969883
1049 1086.42977 1022.15209 0.000953187
1073 1100.37211 1022.1106 0.000931777
1107 1120.50578 1022.06908 0.00090343
1138 1149.4369 1022.02753 0.000878956
1148 1189.58875 1021.98594 0.000871191
1196 1242.37888 1021.94432 0.000836277
1310 1306.82958 1021.90267 0.000763524
1367 1377.81105 1021.86099 0.000731646
1345 1443.46481 1021.81928 0.000743666
1424 1483.69487 1021.77753 0.000702096
1453 1479.93755 1021.73576 0.000688168
1373 1434.11016 1021.69395 0.00072849
1318 1367.15704 1021.65211 0.000758904
1279 1299.42616 1021.61023 0.000781997
1203 1241.82825 1021.56833 0.000831461
1203 1198.08509 1021.52639 0.000831461
1137 1168.17951 1021.48442 0.000879478
1024 1150.47769 1021.44242 0.000976562
1075 1143.02577 1021.40038 0.000930073
1024 1144.55962 1021.35832 0.000976562
1037 1154.14679 1021.31622 0.000964469
1065 1172.11262 1021.27409 0.000939217
1091 1199.39213 1021.23193 0.000916606
1124 1236.54887 1021.18973 0.000889473
1177 1282.92528 1021.14751 0.000849491
1125 1337.0557 1021.10525 0.000888943
1205 1397.39614 1021.06296 0.000830024
1285 1461.36676 1021.02064 0.000778075
1343 1522.33955 1020.97828 0.000744478
1425 1573.58005 1020.93589 0.000701724
1409 1615.4218 1020.89348 0.000709596
1414 1650.66534 1020.85103 0.000707334
1433 1674.90428 1020.80854 0.000698021
1463 1675.45752 1020.76603 0.000683498
1440 1642.66116 1020.72348 0.000694347
1407 1583.96184 1020.6809 0.000710732
1389 1519.21304 1020.63829 0.000719915
1368 1463.4445 1020.59565 0.000730855
1320 1420.34924 1020.55297 0.000757651
1274 1386.26948 1020.51026 0.000785067
1222 1358.89816 1020.46752 0.000818196
1210 1339.3461 1020.42475 0.000826211
1208 1327.28746 1020.38194 0.000827638
1177 1318.35595 1020.33911 0.000849491
1188 1307.80272 1020.29624 0.000841623
1156 1297.19546 1020.25334 0.000865052
1125 1292.94401 1020.21041 0.000888943
1154 1300.78632 1020.16744 0.00086658
1163 1323.09838 1020.12444 0.000859986
1209 1359.2467 1020.08141 0.000827162
1213 1405.56805 1020.03835 0.000824315
1235 1455.41617 1019.99526 0.000809835
1337 1499.6836 1019.95213 0.000747739
1410 1531.30593 1019.90897 0.000709219
1363 1548.66911 1019.86578 0.000733629
1323 1549.81928 1019.82256 0.000755985
1358 1529.80878 1019.7793 0.000736419
1291 1490.49124 1019.73602 0.000774614
1295 1443.63171 1019.6927 0.000772034
1332 1402.60638 1019.64935 0.00075061
1257 1376.20968 1019.60596 0.000795733
1305 1366.51742 1019.56255 0.000766487
1285 1369.04819 1019.5191 0.000778075
1318 1374.16834 1019.47562 0.000758904
1345 1370.30831 1019.43211 0.000743666
1292 1349.31492 1019.38856 0.000774183
1153 1312.9361 1019.34498 0.000867091
1153 1271.32872 1019.30137 0.000867091
1091 1234.55409 1019.25773 0.000916606
1089 1208.18995 1019.21406 0.000918274
1048 1194.1162 1019.17035 0.000954365
1032 1191.75574 1019.12661 0.000969279
1049 1198.4673 1019.08284 0.000953187
1056 1209.19557 1019.03904 0.000946746
1085 1216.07926 1018.9952 0.000921622
1067 1212.48363 1018.95134 0.000937492
1029 1198.6575 1018.90744 0.000971698
1054 1181.1725 1018.8635 0.000948496
1063 1166.63913 1018.81954 0.000940946
1030 1158.66408 1018.77554 0.000971092
1047 1158.11266 1018.73151 0.000954955
1053 1163.51892 1018.68745 0.000949665
1063 1170.83949 1018.64336 0.000940946
1073 1173.98606 1018.59923 0.000931777
1050 1167.9691 1018.55507 0.000952599
1027 1153.16488 1018.51088 0.000973518
1014 1134.30143 1018.46666 0.000986402
1003 1116.01832 1018.4224 0.00099702
986 1100.8783 1018.37812 0.00101424
952 1089.85025 1018.3338 0.001050726
938 1083.12986 1018.28944 0.001065874
984 1080.66648 1018.24506 0.001016181
958 1082.49819 1018.20064 0.001043948
986 1088.68543 1018.15619 0.00101424
1031 1099.45653 1018.11171 0.000969883
1026 1114.743 1018.0672 0.000974734
1004 1133.68334 1018.02265 0.000995762
1057 1153.70955 1017.97807 0.000946163
1068 1169.57602 1017.93346 0.000936345
1073 1174.65581 1017.88882 0.000931777
1033 1166.34564 1017.84414 0.000968073
995 1148.98437 1017.79943 0.001005256
1044 1130.15087 1017.75469 0.000957913
969 1112.43317 1017.70992 0.00103191
1013 1098.68106 1017.66511 0.000987022
1026 1089.37328 1017.62027 0.000974734
965 1085.28352 1017.5754 0.001036566
942 1084.21816 1017.5305 0.001061711
986 1087.0085 1017.48557 0.00101424
1081 1094.03935 1017.4406 0.000924989
1046 1106.30206 1017.3956 0.000956137
995 1125.34662 1017.35057 0.001005256
1027 1153.02178 1017.3055 0.000973518
1061 1190.95473 1017.2604 0.00094268
1086 1239.63578 1017.21527 0.000921063
1103 1296.78057 1017.17011 0.000906697
1199 1355.05195 1017.12492 0.000833864
1194 1402.07047 1017.07969 0.00083773
1228 1427.22891 1017.03443 0.000814464
1231 1428.71898 1016.98914 0.000812144
1220 1409.55323 1016.94381 0.000819602
1209 1372.13028 1016.89846 0.000827162
1157 1321.71462 1016.85307 0.000864543
1100 1266.62986 1016.80765 0.000908885
1073 1216.31808 1016.76219 0.000931777
993 1175.9708 1016.7167 0.001007171
990 1145.66929 1016.67118 0.001010375
1020 1125.05043 1016.62563 0.000980235
1001 1112.75256 1016.58005 0.000998912
976 1108.0017 1016.53443 0.001024656
968 1109.19453 1016.48878 0.001033237
1002 1116.55762 1016.4431 0.00099828
1006 1130.27456 1016.39739 0.000993879
976 1150.54625 1016.35164 0.001024656
1012 1176.87412 1016.30586 0.000988263
1076 1207.09848 1016.26005 0.000929506
1086 1237.49158 1016.2142 0.000921063
1112 1263.69341 1016.16833 0.000899101
1114 1285.53593 1016.12242 0.000897485
1116 1302.34785 1016.07648 0.000895874
1080 1310.02068 1016.0305 0.000926115
1108 1302.83975 1015.98449 0.000902345
1124 1278.35835 1015.93845 0.000889473
1053 1241.12429 1015.89238 0.000949665
1056 1200.10896 1015.84628 0.000946746
1040 1162.5615 1015.80014 0.000961481
1023 1131.80472 1015.75397 0.000977784
960 1108.38867 1015.70777 0.001041927
932 1091.54266 1015.66153 0.001072868
966 1080.20918 1015.61527 0.001035233
977 1072.65435 1015.56897 0.001023345
993 1068.05024 1015.52263 0.001007171
992 1065.71428 1015.47627 0.001007811
969 1065.36643 1015.42987 0.00103191
966 1067.00292 1015.38344 0.001035233
950 1070.60794 1015.33698 0.001052773
1017 1077.00696 1015.29048 0.000983311
979 1085.58055 1015.24395 0.001021384
954 1096.03765 1015.19739 0.001048007
965 1106.86843 1015.1508 0.001036566
971 1115.13029 1015.10417 0.001029924
989 1117.49152 1015.05751 0.001011018
965 1114.15037 1015.01082 0.001036566
963 1106.22508 1014.9641 0.001038572
976 1098.35344 1014.91734 0.001024656
964 1093.07422 1014.87055 0.001037234
998 1091.6766 1014.82373 0.001002076
1025 1094.60656 1014.77688 0.000975343
1026 1101.64994 1014.72999 0.000974734
1005 1111.77743 1014.68307 0.000995134
1013 1122.696 1014.63612 0.000987022
1067 1130.51483 1014.58913 0.000937492
1071 1131.3927 1014.54211 0.000933486
1059 1124.7831 1014.49506 0.000944419
1079 1113.85801 1014.44798 0.000926679
1043 1102.55069 1014.40086 0.000958506
1019 1092.92949 1014.35372 0.000981464
1027 1085.81127 1014.30653 0.000973518
992 1081.35087 1014.25932 0.001007811
998 1079.24851 1014.21207 0.001002076
985 1078.95266 1014.16479 0.001015533
988 1080.49883 1014.11748 0.001012305
947 1083.98798 1014.07014 0.001056197
967 1088.49801 1014.02276 0.001033902
1010 1094.6207 1013.97535 0.00099013
1003 1102.57088 1013.92791 0.00099702
993 1112.78317 1013.88043 0.001007171
990 1125.49485 1013.83292 0.001010375
1031 1140.84472 1013.78538 0.000969883
1013 1158.62669 1013.73781 0.000987022
1067 1178.07183 1013.6902 0.000937492
1129 1198.63373 1013.64256 0.000885771
1150 1221.53522 1013.59489 0.00086965
1145 1251.35883 1013.54719 0.000873251
1209 1294.99708 1013.49945 0.000827162
1283 1360.23246 1013.45168 0.000779379
1321 1455.01781 1013.40388 0.000756818
1480 1586.44424 1013.35604 0.000675703
1661 1758.15605 1013.30817 0.00060191
1853 1965.93329 1013.26027 0.000539577
2023 2189.04048 1013.21234 0.000494266
2227 2386.50145 1013.16437 0.000449056
2372 2515.90205 1013.11637 0.00042164
2392 2564.86664 1013.06834 0.000418027
2478 2539.01721 1013.02027 0.000403543
2337 2434.18804 1012.97218 0.000427944
2204 2255.66229 1012.92404 0.000453658
1993 2040.55242 1012.87588 0.000501824
1753 1832.97665 1012.82768 0.000570419
1559 1658.66525 1012.77946 0.000641572
1432 1525.48196 1012.73119 0.00069839
1367 1431.77261 1012.6829 0.000731646
1275 1372.92032 1012.63457 0.000784188
1258 1343.0307 1012.58621 0.000794836
1257 1338.68377 1012.53782 0.000795733
1257 1358.26149 1012.48939 0.000795733
1320 1401.89546 1012.44093 0.000757651
1369 1470.26589 1012.39244 0.00073046
1466 1562.42384 1012.34392 0.000682071
1585 1672.12598 1012.29536 0.00063098
1668 1783.83394 1012.24677 0.000599554
1790 1876.01725 1012.19815 0.000558617
1884 1937.11566 1012.14949 0.000530665
1932 1970.65004 1012.1008 0.000517705
1875 1979.31157 1012.05208 0.000533365
1910 1961.51901 1012.00332 0.000523645
1860 1926.77283 1011.95454 0.000537578
1770 1889.85582 1011.90572 0.000565008
1795 1852.36482 1011.85686 0.000557036
1824 1803.74164 1011.80798 0.000548202
1714 1741.8823 1011.75906 0.000583444
1606 1681.67011 1011.71011 0.000622818
1542 1639.76139 1011.66112 0.000648453
1502 1621.30007 1011.6121 0.000665629
1517 1618.65031 1011.56305 0.000659151
1527 1612.42029 1011.51397 0.000654773
1437 1581.87727 1011.46485 0.000695813
1421 1522.94019 1011.4157 0.000703586
1319 1450.08241 1011.36652 0.000758068
1313 1380.14312 1011.31731 0.000761419
1364 1323.00044 1011.26806 0.000733232
1203 1282.6196 1011.21878 0.000831461
1228 1259.84058 1011.16946 0.000814464
1182 1253.9263 1011.12012 0.000846035
1177 1263.23615 1011.07074 0.000849491
1267 1284.94891 1011.02132 0.000789485
1307 1314.7849 1010.97188 0.000765215
1325 1345.81426 1010.9224 0.00075474
1351 1368.36433 1010.87289 0.000740029
1393 1376.13634 1010.82334 0.000717987
1430 1373.43091 1010.77376 0.000699128
1429 1371.56731 1010.72415 0.000699868
1401 1379.79536 1010.67451 0.000713773
1450 1401.60504 1010.62483 0.000689614
1487 1434.69849 1010.57512 0.000672552
1482 1473.10816 1010.52538 0.00067465
1532 1514.39372 1010.47561 0.000652767
1610 1565.58172 1010.4258 0.000621267
1694 1636.99137 1010.37596 0.000590268
1790 1731.29838 1010.32608 0.000558617
1900 1836.19146 1010.27617 0.000526291
1959 1919.80189 1010.22623 0.000510478
1998 1939.6473 1010.17626 0.000500478
1940 1876.51968 1010.12625 0.000515357
1773 1754.75078 1010.07621 0.000563936
1660 1615.05312 1010.02614 0.000602501
1528 1485.82577 1009.97603 0.000654438
1454 1379.14948 1009.9259 0.000687807
1285 1297.77455 1009.87572 0.000778075
1266 1239.48487 1009.82552 0.000789929
1243 1200.27414 1009.77528 0.000804332
1181 1175.77629 1009.72501 0.000846527
1136 1162.66018 1009.67471 0.000880522
1149 1159.21104 1009.62437 0.000870163
1100 1164.89336 1009.574 0.000908885
1150 1180.79609 1009.5236 0.00086965
1215 1208.52275 1009.47316 0.000822897
1205 1249.27064 1009.42269 0.000830024
1302 1302.78422 1009.37219 0.000768187
1323 1365.2169 1009.32165 0.000755985
1435 1426.00793 1009.27108 0.000696915
1449 1466.07469 1009.22048 0.000689976
1517 1466.22688 1009.16985 0.000659151
1487 1424.97762 1009.11918 0.000672552
1341 1360.09764 1009.06848 0.000745699
1251 1291.38638 1009.01774 0.000799337
1181 1230.23378 1008.96698 0.000846527
1108 1180.87933 1008.91618 0.000902345
1065 1143.62295 1008.86534 0.000939217
1003 1116.81963 1008.81448 0.00099702
993 1098.23645 1008.76358 0.001007171
1047 1085.50223 1008.71264 0.000954955
1002 1076.74334 1008.66168 0.00099828
1021 1070.68253 1008.61068 0.000979621
1006 1066.33351 1008.55965 0.000993879
1022 1063.25377 1008.50858 0.000978396
1010 1061.33852 1008.45748 0.00099013
972 1060.08806 1008.40635 0.001028603
945 1059.62084 1008.35519 0.00105826
962 1059.95144 1008.30399 0.001039241
978 1061.17461 1008.25276 0.001022691
964 1063.50161 1008.20149 0.001037234
969 1067.32838 1008.15019 0.00103191
966 1073.3331 1008.09886 0.001035233
976 1082.57914 1008.0475 0.001024656
999 1096.56503 1007.9961 0.001000809
1017 1117.1348 1007.94467 0.000983311
1070 1146.16599 1007.89321 0.000934628
1099 1184.9841 1007.84171 0.000909982
1093 1233.38718 1007.79018 0.000914944
1123 1288.1588 1007.73862 0.000890535
1184 1340.31736 1007.68702 0.00084456
1235 1374.19659 1007.63539 0.000809835
1261 1375.13128 1007.58373 0.000793047
1281 1344.3925 1007.53203 0.000780686
1262 1295.79085 1007.48031 0.0007926
1205 1246.17366 1007.42854 0.000830024
1100 1205.19316 1007.37675 0.000908885
1108 1176.33426 1007.32492 0.000902345
1112 1160.61523 1007.27306 0.000899101
1138 1157.02049 1007.22116 0.000878956
1079 1163.38151 1007.16923 0.000926679
1082 1176.00477 1007.11727 0.000924426
1090 1189.25524 1007.06528 0.000917162
1105 1196.39595 1007.01325 0.000905061
1053 1194.1144 1006.96119 0.000949665
1135 1186.01102 1006.90909 0.000881045
1110 1178.99333 1006.85696 0.00090072
1097 1178.16102 1006.8048 0.000911632
1053 1185.32077 1006.75261 0.000949665
1085 1198.9782 1006.70038 0.000921622
1067 1213.80389 1006.64812 0.000937492
1094 1220.97583 1006.59582 0.000913838
1121 1213.19127 1006.54349 0.000892132
1089 1191.88717 1006.49113 0.000918274
1024 1163.99832 1006.43874 0.000976562
1029 1137.1632 1006.38631 0.000971698
1025 1115.418 1006.33385 0.000975343
1026 1100.12447 1006.28136 0.000974734
1020 1091.45731 1006.22883 0.000980235
1027 1088.77228 1006.17627 0.000973518
1022 1090.74698 1006.12367 0.000978396
985 1095.31164 1006.07104 0.001015533
993 1099.32512 1006.01838 0.001007171
999 1099.16427 1005.96569 0.001000809
977 1093.12441 1005.91296 0.001023345
971 1082.86079 1005.8602 0.001029924
986 1071.36856 1005.80741 0.00101424
966 1060.75619 1005.75458 0.001035233
942 1052.70141 1005.70172 0.001061711
918 1045.46611 1005.64882 0.001089218
947 1040.46261 1005.59589 0.001056197
992 1036.93037 1005.54293 0.001007811
943 1034.50848 1005.48994 0.001060328
933 1033.26254 1005.43691 0.001071464
925 1032.2289 1005.38385 0.001081352
948 1031.61272 1005.33075 0.001054826
936 1031.32664 1005.27763 0.001068664
916 1031.32861 1005.22446 0.001091378
958 1031.60881 1005.17127 0.001043948
938 1032.18443 1005.11804 0.001065874
949 1033.10336 1005.06478 0.001053456
933 1034.45818 1005.01148 0.001071464
931 1036.41232 1004.95816 0.001074275
949 1039.23769 1004.90479 0.001053456
911 1043.35557 1004.8514 0.001097897
968 1049.36126 1004.79797 0.001033237
934 1058.00144 1004.74451 0.001070763
967 1070.07176 1004.69101 0.001033902
956 1086.58461 1004.63748 0.001045974
1007 1106.70062 1004.58392 0.000993253
1023 1130.19947 1004.53032 0.000977784
1003 1153.83594 1004.47669 0.00099702
1011 1171.89267 1004.42303 0.000988885
1068 1178.96056 1004.36933 0.000936345
1038 1173.75262 1004.31561 0.000963272
1080 1159.10515 1004.26184 0.000926115
1018 1139.89008 1004.20804 0.000982079
1055 1119.291 1004.15421 0.000947912
1039 1100.44545 1004.10035 0.000962674
1031 1084.95906 1004.04645 0.000969883
1035 1073.42907 1003.99252 0.000966269
1033 1065.64344 1003.93856 0.000968073
1048 1061.08129 1003.88456 0.000954365
1021 1059.23865 1003.83053 0.000979621
1019 1059.61696 1003.77647 0.000981464
1028 1062.56058 1003.72237 0.000972911
1047 1068.14712 1003.66824 0.000954955
1037 1076.91627 1003.61407 0.000964469
1045 1089.58711 1003.55987 0.000956728
1095 1106.86424 1003.50564 0.000913285
1132 1129.06133 1003.45137 0.000883141
1129 1155.48287 1003.39707 0.000885771
1145 1183.86509 1003.34274 0.000873251
1161 1210.86852 1003.28838 0.000861501
1151 1233.57927 1003.23398 0.000868625
1151 1249.05859 1003.17954 0.000868625
1142 1252.39081 1003.12507 0.000875838
1132 1240.50714 1003.07057 0.000883141
1122 1216.9876 1003.01604 0.000891067
1104 1189.93305 1002.96147 0.000905606
1117 1165.84007 1002.90687 0.000895338
1127 1147.9178 1002.85224 0.000887355
1112 1137.28152 1002.79757 0.000899101
1091 1134.13649 1002.74287 0.000916606
1108 1139.0127 1002.68813 0.000902345
1122 1152.80713 1002.63336 0.000891067
1126 1177.57803 1002.57856 0.000887884
1203 1216.54894 1002.52372 0.000831461
1270 1273.74261 1002.46885 0.000787272
1412 1353.28142 1002.41395 0.000708087
1471 1456.35913 1002.35901 0.000679938
1533 1581.55669 1002.30404 0.000652434
1659 1716.64671 1002.24904 0.000602797
1718 1835.08705 1002.194 0.000582037
1795 1900.50342 1002.13893 0.000557036
1739 1891.80874 1002.08382 0.00057508
1669 1820.02581 1002.02868 0.000599261
1551 1711.11028 1001.97351 0.000644835
1525 1588.73137 1001.91831 0.00065578
1336 1471.91116 1001.86307 0.000748558
1303 1372.85557 1001.80779 0.000767336
1257 1295.96953 1001.75249 0.000795733
1145 1240.35597 1001.69715 0.000873251
1151 1202.80905 1001.64177 0.000868625
1119 1179.79819 1001.58636 0.000893733
1122 1168.55102 1001.53092 0.000891067
1164 1167.53579 1001.47545 0.000858978
1147 1176.51673 1001.41994 0.000871705
1162 1196.26749 1001.3644 0.00086049
1179 1227.98853 1001.30882 0.000848007
1239 1272.52413 1001.25321 0.000807076
1237 1328.73176 1001.19757 0.000808454
1281 1391.83476 1001.14189 0.000780686
1351 1450.287 1001.08618 0.000740029
1348 1486.66231 1001.03043 0.000741643
1311 1488.27157 1000.97465 0.000762681
1324 1459.21989 1000.91884 0.000755155
1344 1413.91223 1000.863 0.000744072
1313 1365.45675 1000.80712 0.000761419
1284 1323.42052 1000.7512 0.000778944
1252 1294.71723 1000.69526 0.000798885
1271 1283.79566 1000.63928 0.00078683
1305 1293.60104 1000.58326 0.000766487
1270 1326.62823 1000.52721 0.000787272
1341 1385.2221 1000.47113 0.000745699
1424 1470.97699 1000.41502 0.000702096
1467 1583.09354 1000.35887 0.000681714
1600 1714.98213 1000.30268 0.000625
1728 1849.18364 1000.24647 0.000578682
1842 1956.43874 1000.19022 0.000542851
1925 2014.68939 1000.13393 0.000519595
1926 2032.12541 1000.07761 0.000519121
1970 2036.50056 1000.02126 0.000507721
1971 2043.55889 999.96488 0.000507264
1848 2041.26882 999.90846 0.000541085
1828 1999.84144 999.852 0.000546921
1707 1903.29834 999.79552 0.000585706
1666 1769.43269 999.739 0.000600142
1495 1629.95831 999.68244 0.000668731
1335 1506.88397 999.62585 0.000748967
1363 1409.65331 999.56923 0.000733629
1298 1339.73381 999.51257 0.000770321
1215 1295.83027 999.45589 0.000822897
1220 1276.01547 999.39916 0.000819602
1215 1277.71219 999.3424 0.000822897
1150 1299.08819 999.28561 0.00086965
1238 1338.16103 999.22879 0.000807535
1263 1391.48672 999.17193 0.000791708
1300 1451.66446 999.11504 0.000769039
1286 1505.07368 999.05811 0.000777642
1405 1537.49493 999.00115 0.00071187
1420 1546.92163 998.94416 0.000704333
1418 1545.30697 998.88713 0.000705082
1413 1544.23887 998.83007 0.00070771
1404 1542.69693 998.77297 0.00071225
1374 1527.61372 998.71584 0.000727704
1337 1486.14461 998.65868 0.000747739
1334 1420.90641 998.60148 0.000749788
1266 1346.79581 998.54425 0.000789929
1179 1277.11982 998.48698 0.000848007
1128 1218.31661 998.42968 0.000886298
1085 1172.00402 998.37235 0.000921622
1045 1136.96732 998.31498 0.000956728
979 1111.48767 998.25758 0.001021384
949 1093.27248 998.20015 0.001053456
955 1080.2066 998.14268 0.001047329
936 1070.71703 998.08518 0.001068664
951 1063.67131 998.02764 0.001051408
927 1058.33797 997.97007 0.001078513
957 1054.26935 997.91247 0.001044623
1010 1051.1914 997.85483 0.00099013
937 1048.91799 997.79716 0.001067268
918 1047.32436 997.73945 0.001089218
1027 1046.10088 997.68171 0.000973518
969 1045.09848 997.62394 0.00103191
981 1044.09543 997.56613 0.001019428
966 1043.12149 997.50829 0.001035233
1021 1042.3941 997.45042 0.000979621
994 1042.15394 997.39251 0.001005894
986 1042.60903 997.33456 0.00101424
979 1043.98804 997.27659 0.001021384
963 1046.62227 997.21857 0.001038572
928 1051.02754 997.16053 0.001077805
1003 1057.96713 997.10245 0.00099702
941 1068.45743 997.04434 0.001062403
988 1083.66605 996.98619 0.001012305
1024 1104.6633 996.92801 0.000976562
1063 1131.99809 996.86979 0.000940946
1100 1165.00283 996.81154 0.000908885
1127 1200.57497 996.75326 0.000887355
1173 1231.57229 996.69494 0.000852469
1160 1247.41241 996.63659 0.000862007
1188 1240.9168 996.57821 0.000841623
1154 1215.60225 996.51979 0.00086658
1094 1181.84307 996.46134 0.000913838
1093 1148.36407 996.40285 0.000914944
1034 1119.62855 996.34433 0.00096687
1039 1097.16694 996.28577 0.000962674
1046 1081.02132 996.22718 0.000956137
976 1070.33184 996.16856 0.001024656
934 1064.18025 996.1099 0.001070763
972 1061.75252 996.05121 0.001028603
980 1062.64742 995.99249 0.001020731
957 1066.91684 995.93373 0.001044623
986 1075.14508 995.87493 0.00101424
1009 1088.5334 995.81611 0.000991377
1011 1108.3558 995.75724 0.000988885
1055 1135.82579 995.69835 0.000947912
1085 1171.56608 995.63942 0.000921622
1108 1214.44657 995.58046 0.000902345
1168 1260.18196 995.52146 0.000855965
1197 1299.5094 995.46243 0.00083531
1245 1320.46423 995.40336 0.00080342
1254 1317.48427 995.34426 0.000797532
1223 1296.63446 995.28513 0.000817728
1165 1267.71202 995.22596 0.000858475
1150 1235.99834 995.16676 0.00086965
1166 1203.29132 995.10752 0.000857469
1130 1171.96309 995.04825 0.000884717
1139 1144.95148 994.98894 0.000877915
1084 1123.78091 994.92961 0.000922742
1007 1108.77837 994.87023 0.000993253
1025 1099.98242 994.81083 0.000975343
1007 1097.57827 994.75138 0.000993253
1018 1101.80359 994.69191 0.000982079
1072 1112.92305 994.6324 0.000932916
1100 1130.91211 994.57286 0.000908885
1109 1155.03861 994.51328 0.000901803
1145 1182.89087 994.45367 0.000873251
1211 1209.65705 994.39402 0.000825737
1213 1228.67387 994.33434 0.000824315
1216 1236.09182 994.27463 0.000822425
1298 1233.03483 994.21488 0.000770321
1283 1222.79524 994.1551 0.000779379
1245 1209.37259 994.09528 0.00080342
1229 1197.48085 994.03543 0.000813535
1236 1190.59232 993.97554 0.000808914
1230 1189.97113 993.91562 0.000813071
1178 1196.19886 993.85567 0.000848996
1188 1210.10804 993.79568 0.000841623
1218 1231.22029 993.73566 0.000821011
1213 1255.59981 993.67561 0.000824315
1255 1275.40171 993.61552 0.000796632
1235 1282.62026 993.55539 0.000809835
1228 1275.53079 993.49523 0.000814464
1204 1258.74373 993.43504 0.000830503
1185 1237.41036 993.37481 0.00084407
1167 1216.99036 993.31455 0.000856967
1133 1201.20319 993.25426 0.000882616
1141 1191.74725 993.19393 0.000876356
1163 1186.97082 993.13356 0.000859986
1168 1183.14488 993.07316 0.000855965
1148 1177.48825 993.01273 0.000871191
1134 1168.67628 992.95227 0.000882092
1134 1155.76724 992.89176 0.000882092
1122 1139.43214 992.83123 0.000891067
1135 1122.84415 992.77066 0.000881045
1122 1109.60489 992.71006 0.000891067
1091 1101.96672 992.64942 0.000916606
1082 1100.75182 992.58875 0.000924426
1044 1105.67081 992.52804 0.000957913
1060 1115.24705 992.4673 0.00094326
996 1126.3435 992.40652 0.001003982
1018 1134.23507 992.34572 0.000982079
1074 1134.91422 992.28487 0.000931209
1055 1128.02894 992.22399 0.000947912
1035 1115.79136 992.16308 0.000966269
999 1101.09319 992.10214 0.001000809
978 1086.16173 992.04116 0.001022691
963 1073.23351 991.98014 0.001038572
962 1063.77973 991.91909 0.001039241
962 1058.0866 991.85801 0.001039241
1019 1055.57864 991.79689 0.000981464
901 1054.88479 991.73574 0.001109631
898 1053.93738 991.67455 0.001113337
957 1050.79552 991.61333 0.001044623
937 1045.0498 991.55207 0.001067268
894 1037.89049 991.49078 0.001118556
944 1030.74253 991.42946 0.001059638
944 1024.44354 991.3681 0.001059638
947 1019.29341 991.30671 0.001056197
937 1015.29225 991.24528 0.001067268
943 1011.96206 991.18382 0.001060328
926 1009.77948 991.12233 0.001079931
878 1008.21017 991.0608 0.001139034
912 1007.09266 990.99923 0.001096443
905 1006.31095 990.93763 0.001105209
898 1005.43628 990.876 0.001113337
885 1005.15157 990.81433 0.001129864
892 1005.09232 990.75263 0.001120804
903 1005.28744 990.69089 0.001107417
907 1005.80436 990.62912 0.001102275
892 1006.75997 990.56732 0.001120804
857 1008.33033 990.50548 0.001167225
889 1010.75025 990.4436 0.001124565
924 1014.29278 990.3817 0.001082064
922 1019.22067 990.31975 0.001084917
956 1025.70205 990.25778 0.001045974
959 1033.66451 990.19576 0.0010426
933 1042.53041 990.13372 0.001071464
908 1050.87614 990.07164 0.001101544
923 1056.58515 990.00952 0.001083489
934 1058.10819 989.94737 0.001070763
950 1056.5056 989.88519 0.001052773
932 1053.42376 989.82297 0.001072868
920 1049.93834 989.76072 0.001087064
956 1046.19891 989.69843 0.001045974
969 1042.45383 989.63611 0.00103191
956 1039.23561 989.57376 0.001045974
988 1037.36299 989.51137 0.001012305
946 1036.27607 989.44894 0.001056884
946 1034.82536 989.38648 0.001056884
914 1031.93786 989.32399 0.001094268
924 1027.66118 989.26146 0.001082064
911 1023.02639 989.1989 0.001097897
934 1019.08196 989.1363 0.001070763
997 1016.44444 989.07367 0.001002711
906 1015.37416 989.011 0.001103741
887 1015.903 988.9483 0.001127588
894 1017.86307 988.88557 0.001118556
873 1020.81071 988.8228 0.00114521
850 1023.88948 988.75999 0.001176855
898 1025.92157 988.69715 0.001113337
873 1026.12349 988.63428 0.00114521
885 1024.79138 988.57137 0.001129864
894 1022.7972 988.50843 0.001118556
950 1020.6595 988.44545 0.001052773
935 1018.43253 988.38244 0.001069363
905 1016.22334 988.31939 0.001105209
916 1014.37132 988.25631 0.001091378
940 1013.10737 988.1932 0.001063789
928 1012.24481 988.13005 0.001077805
906 1011.79339 988.06687 0.001103741
915 1010.00627 988.00365 0.001092822
921 1007.42569 987.94039 0.001085632
881 1004.50915 987.87711 0.0011352
865 1001.72768 987.81378 0.001156139
871 999.32936 987.75043 0.001148316
858 997.38287 987.68704 0.001165631
866 995.86344 987.62361 0.001154568
873 994.70482 987.56015 0.00114521
863 993.82788 987.49665 0.001158501
885 993.15776 987.43312 0.001129864
902 992.63312 987.36956 0.001108892
898 992.31107 987.30596 0.001113337
898 991.84949 987.24233 0.001113337
889 991.54796 987.17866 0.001124565
901 991.28359 987.11496 0.001109631
981 991.04708 987.05122 0.001019428
994 990.83503 986.98745 0.001005894
938 990.64233 986.92364 0.001065874
956 990.46596 986.8598 0.001045974
908 990.30357 986.79592 0.001101544
965 990.44623 986.73201 0.001036566
988 990.31219 986.66807 0.001012305
970 990.18766 986.60409 0.001031247
880 990.07163 986.54007 0.001136731
848 989.96325 986.47602 0.001179281
896 989.86185 986.41194 0.001116315
933 989.76684 986.34782 0.001071464
842 989.67774 986.28367 0.001187422
892 989.67978 986.21948 0.001120804
915 989.60304 986.15526 0.001092822
941 989.53125 986.091 0.001062403
884 989.56857 986.02671 0.001131384
939 989.45326 985.96238 0.001065179
905 989.37772 985.89802 0.001105209
883 989.32873 985.83362 0.001132146
881 989.28406 985.76919 0.0011352
941 989.24365 985.70473 0.001062403
916 989.17026 985.64023 0.001091378
889 989.13885 985.57569 0.001124565
901 989.11174 985.51113 0.001109631
895 989.08898 985.44652 0.001117061
904 989.16694 985.38188 0.001105944
920 989.15515 985.31721 0.001087064
892 989.14809 985.2525 0.001120804
878 989.1459 985.18776 0.001139034
888 989.14877 985.12298 0.001126075
894 989.1569 985.05817 0.001118556
895 989.17052 984.99332 0.001117061
900 989.19315 984.92844 0.001111111
896 989.21864 984.86352 0.001116315
861 989.29362 984.79857 0.001161662
858 989.26886 984.73358 0.001165631
901 989.67497 984.66856 0.001109631
888 989.75326 984.60351 0.001126075
877 989.82505 984.53842 0.001140573
929 989.90573 984.47329 0.001076391
916 989.99594 984.40813 0.001091378
903 990.09636 984.34294 0.001107417
931 990.21889 984.27771 0.001074275
867 990.34296 984.21244 0.001153784
824 990.47985 984.14714 0.001213203
834 990.6285 984.08181 0.001198963
842 990.84394 984.01644 0.001187422
849 991.05635 983.95104 0.001177663
875 991.17037 983.8856 0.001142888
846 991.39284 983.82013 0.001181714
833 991.63683 983.75462 0.001200625
868 991.87253 983.68908 0.001152218
892 992.73315 983.6235 0.001120804
851 993.06717 983.55789 0.001175242
915 993.43522 983.49224 0.001092822
887 993.83774 983.42656 0.001127588
932 994.24856 983.36084 0.001072868
874 994.73938 983.29509 0.001144435
887 995.45642 983.2293 0.001127588
910 996.57929 983.16348 0.001098625
895 997.25602 983.09762 0.001117061
906 998.00753 983.03173 0.001103741
902 998.84468 982.96581 0.001108892
869 1000.36205 982.89984 0.001150655
911 1001.42318 982.83385 0.001097897
898 1002.61766 982.76782 0.001113337
918 1003.96849 982.70175 0.001089218
901 1005.50386 982.63565 0.001109631
855 1007.22883 982.56952 0.001169621
888 1009.24795 982.50335 0.001126075
921 1011.60853 982.43714 0.001085632
910 1014.32308 982.3709 0.001098625
931 1017.54403 982.30463 0.001074275
928 1021.39413 982.23832 0.001077805
894 1026.36668 982.17197 0.001118556
915 1032.22908 982.10559 0.001092822
951 1039.79567 982.03918 0.001051408
926 1049.92382 981.97273 0.001079931
913 1063.92402 981.90624 0.001094992
964 1083.65017 981.83972 0.001037234
1029 1111.71733 981.77317 0.000971698
1076 1150.21189 981.70658 0.000929506
1098 1201.65125 981.63996 0.000910532
1127 1267.03642 981.5733 0.000887355
1206 1344.5474 981.5066 0.000829069
1296 1427.09891 981.43988 0.000771605
1319 1497.82789 981.37311 0.000758068
1343 1533.62423 981.30631 0.000744478
1315 1519.12183 981.23948 0.000760579
1289 1462.34366 981.17261 0.00077591
1274 1386.40905 981.10571 0.000785067
1202 1311.3723 981.03877 0.000831941
1114 1247.93345 980.97179 0.000897485
1107 1200.01531 980.90478 0.00090343
1042 1167.92072 980.83774 0.000959694
1037 1150.08391 980.77066 0.000964469
1080 1143.9931 980.70355 0.000926115
1010 1146.52382 980.6364 0.00099013
1037 1153.76415 980.56922 0.000964469
1100 1160.98153 980.502 0.000908885
1052 1164.37293 980.43474 0.000950837
1082 1164.17536 980.36746 0.000924426
1041 1164.68898 980.30013 0.000960885
1046 1170.84328 980.23277 0.000956137
1101 1185.79875 980.16538 0.000908337
1136 1210.42932 980.09795 0.000880522
1110 1242.89688 980.03049 0.00090072
1130 1277.39126 979.96299 0.000884717
1203 1303.43011 979.89545 0.000831461
1184 1309.77762 979.82788 0.00084456
1163 1294.00474 979.76028 0.000859986
1193 1265.16771 979.69264 0.000838215
1205 1235.39778 979.62497 0.000830024
1127 1212.94137 979.55726 0.000887355
1143 1201.44462 979.48951 0.000874802
1171 1201.23904 979.42173 0.000853965
1167 1209.88422 979.35392 0.000856967
1203 1222.68955 979.28607 0.000831461
1208 1234.56531 979.21819 0.000827638
1196 1241.91424 979.15027 0.000836277
1184 1241.72001 979.08231 0.00084456
1160 1231.55845 979.01432 0.000862007
1154 1212.74236 978.9463 0.00086658
1127 1190.8065 978.87824 0.000887355
1083 1171.72885 978.81014 0.000923303
1057 1159.12562 978.74201 0.000946163
1040 1154.08065 978.67385 0.000961481
1039 1155.68317 978.60565 0.000962674
1073 1161.15289 978.53741 0.000931777
1096 1166.24559 978.46914 0.000912182
1136 1167.39801 978.40083 0.000880522
1106 1164.98115 978.33249 0.000903973
1106 1163.1564 978.26412 0.000903973
1094 1166.77541 978.19571 0.000913838
1113 1179.57564 978.12726 0.000898562
1106 1203.99132 978.05878 0.000903973
1089 1241.13444 977.99026 0.000918274
1166 1290.23693 977.92171 0.000857469
1154 1347.50887 977.85312 0.00086658
1196 1404.60041 977.7845 0.000836277
1227 1448.13841 977.71584 0.000814929
1207 1463.89905 977.64715 0.000828591
1232 1447.09714 977.57842 0.000811682
1177 1407.55556 977.50966 0.000849491
1221 1361.28906 977.44086 0.000819133
1164 1320.48853 977.37203 0.000858978
1136 1291.03043 977.30316 0.000880522
1142 1275.53914 977.23426 0.000875838
1147 1272.8941 977.16532 0.000871705
1158 1284.44198 977.09634 0.000863527
1159 1310.1251 977.02733 0.00086302
1150 1348.86945 976.95829 0.00086965
1250 1399.81121 976.88921 0.000799789
1301 1463.73771 976.82009 0.000768613
1371 1541.32025 976.75094 0.000729277
1511 1628.16802 976.68176 0.000661867
1625 1710.87509 976.61254 0.000615424
1634 1771.34014 976.54328 0.000612079
1589 1803.00564 976.47399 0.000629398
1634 1820.34047 976.40467 0.000612079
1692 1845.09495 976.3353 0.000591129
1694 1888.31405 976.26591 0.000590268
1742 1943.86168 976.19647 0.000573978
1838 1991.75914 976.12701 0.000544118
1886 2011.73909 976.05751 0.000530176
1877 2000.86748 975.98797 0.000532872
1853 1974.21732 975.91839 0.000539577
1795 1944.75844 975.84879 0.000557036
1747 1908.0259 975.77914 0.000572331
1720 1848.992 975.70946 0.000581476
1599 1761.95995 975.63975 0.000625313
1465 1662.15558 975.57 0.000682427
1391 1569.97629 975.50021 0.000718757
1297 1498.13257 975.43039 0.000771176
1250 1450.63962 975.36054 0.000799789
1257 1426.36557 975.29065 0.000795733
1226 1421.38725 975.22072 0.00081586
1229 1428.9815 975.15076 0.000813535
1237 1438.73723 975.08076 0.000808454
1311 1439.72604 975.01073 0.000762681
1244 1429.80079 974.94067 0.000803876
1281 1415.2911 974.87056 0.000780686
1334 1407.36883 974.80042 0.000749788
1307 1411.59227 974.73025 0.000765215
1332 1426.31746 974.66004 0.00075061
1307 1443.33299 974.5898 0.000765215
1348 1452.8044 974.51952 0.000741643
1370 1452.67983 974.44921 0.000730066
1347 1446.38825 974.37886 0.000742451
1288 1438.30282 974.30847 0.000776342
1230 1424.13525 974.23805 0.000813071
1318 1395.95132 974.16759 0.000758904
1228 1352.36616 974.0971 0.000814464
1108 1300.86169 974.02657 0.000902345
1071 1250.10703 973.95601 0.000933486
1081 1204.84955 973.88541 0.000924989
1049 1166.52472 973.81478 0.000953187
1002 1134.77149 973.74411 0.00099828
968 1108.73044 973.67341 0.001033237
917 1087.65493 973.60267 0.001090657
897 1070.92868 973.5319 0.001114824
888 1057.95395 973.46109 0.001126075
910 1047.7893 973.39024 0.001098625
950 1040.25655 973.31936 0.001052773
924 1034.06477 973.24844 0.001082064
889 1029.15985 973.17749 0.001124565
864 1025.261 973.1065 0.001157713
869 1022.16278 973.03548 0.001150655
915 1019.73363 972.96442 0.001092822
923 1018.3015 972.89333 0.001083489
892 1017.17323 972.8222 0.001120804
867 1016.46341 972.75104 0.001153784
864 1016.28934 972.67984 0.001157713
874 1016.59786 972.6086 0.001144435
883 1017.24378 972.53733 0.001132146
883 1017.9275 972.46603 0.001132146
879 1018.22351 972.39468 0.001137498
884 1017.81223 972.32331 0.001131384
879 1016.69359 972.25189 0.001137498
896 1015.10093 972.18045 0.001116315
919 1013.28327 972.10896 0.001087781
884 1011.53169 972.03744 0.001131384
878 1010.05562 971.96589 0.001139034
872 1009.00592 971.8943 0.001146762
915 1008.30148 971.82267 0.001092822
844 1007.96599 971.75101 0.001184971
871 1007.9598 971.67932 0.001148316
903 1008.24491 971.60759 0.001107417
880 1008.79311 971.53582 0.001136731
865 1009.58932 971.46401 0.001156139
887 1010.87115 971.39218 0.001127588
853 1012.1765 971.3203 0.001172025
852 1013.76344 971.24839 0.001173632
846 1015.73559 971.17645 0.001181714
877 1018.00604 971.10447 0.001140573
895 1020.70568 971.03245 0.001117061
914 1023.91894 970.9604 0.001094268
900 1027.75922 970.88831 0.001111111
908 1032.38458 970.81619 0.001101544
873 1038.02606 970.74403 0.00114521
881 1045.03848 970.67184 0.0011352
920 1053.9853 970.59961 0.001087064
934 1065.76531 970.52734 0.001070763
966 1081.77315 970.45504 0.001035233
991 1103.78946 970.38271 0.001009092
1036 1135.08495 970.31033 0.000965068
1093 1178.72649 970.23793 0.000914944
1164 1237.94435 970.16548 0.000858978
1231 1315.24597 970.093 0.000812144
1340 1410.81827 970.02049 0.000746106
1451 1520.25841 969.94794 0.000689252
1528 1630.60705 969.87536 0.000654438
1597 1716.60691 969.80273 0.000626252
1562 1747.36036 969.73008 0.000640274
1480 1709.01276 969.65739 0.000675703
1454 1619.41832 969.58466 0.000687807
1397 1510.40323 969.51189 0.000715684
1317 1405.20571 969.4391 0.000759322
1229 1315.69348 969.36626 0.000813535
1178 1245.27049 969.29339 0.000848996
1123 1193.27505 969.22048 0.000890535
1019 1157.04988 969.14754 0.000981464
1038 1133.12227 969.07457 0.000963272
1034 1118.68859 969.00155 0.00096687
996 1111.55341 968.9285 0.001003982
1003 1110.47519 968.85542 0.00099702
1098 1115.03356 968.7823 0.000910532
1095 1126.03128 968.70914 0.000913285
1109 1144.51917 968.63595 0.000901803
1144 1171.89315 968.56273 0.000874285
1151 1209.41643 968.48946 0.000868625
1161 1257.43769 968.41617 0.000861501
1258 1314.35703 968.34283 0.000794836
1306 1374.81369 968.26946 0.000765638
1397 1427.60298 968.19606 0.000715684
1384 1457.56826 968.12262 0.000722627
1408 1456.39842 968.04914 0.000710353
1320 1431.78302 967.97563 0.000757651
1321 1401.28783 967.90208 0.000756818
1294 1380.8895 967.82849 0.000772893
1287 1380.47599 967.75488 0.000777208
1349 1405.99963 967.68122 0.000741239
1383 1460.35764 967.60753 0.000723016
1488 1543.60381 967.5338 0.000672203
1608 1650.94896 967.46004 0.000621887
1733 1770.02074 967.38624 0.000577015
1845 1877.46614 967.31241 0.000542093
1838 1946.26566 967.23854 0.000544118
1853 1967.44345 967.16463 0.000539577
1951 1959.94589 967.09069 0.000512561
1929 1951.66286 967.01671 0.000518412
1877 1956.73822 966.9427 0.000532872
1887 1967.42397 966.86865 0.000529932
1861 1957.83759 966.79457 0.000537328
1818 1902.76054 966.72045 0.000550004
1740 1802.06538 966.64629 0.000574804
1603 1679.59901 966.5721 0.000623752
1495 1560.75509 966.49787 0.000668731
1451 1460.37547 966.42361 0.000689252
1358 1384.00829 966.34931 0.000736419
1235 1332.84493 966.27498 0.000809835
1229 1305.55281 966.20061 0.000813535
1206 1299.66216 966.1262 0.000829069
1193 1312.75808 966.05176 0.000838215
1262 1343.02608 965.97728 0.0007926
1288 1388.31661 965.90277 0.000776342
1401 1445.78538 965.82822 0.000713773
1479 1508.06385 965.75363 0.000676054
1487 1562.54026 965.67901 0.000672552
1513 1595.48865 965.60435 0.000660847
1545 1601.88082 965.52966 0.000647134
1557 1591.42269 965.45493 0.000642223
1518 1580.91515 965.38017 0.000658813
1526 1581.57553 965.30537 0.000655444
1523 1592.91039 965.23053 0.000656452
1512 1602.28286 965.15566 0.000661527
1451 1592.03983 965.08075 0.000689252
1507 1551.2417 965.00581 0.000663573
1507 1484.70903 964.93083 0.000663573
1407 1406.77571 964.85581 0.000710732
1312 1331.17111 964.78076 0.00076226
1187 1266.36658 964.70567 0.0008426
1228 1214.7756 964.63055 0.000814464
1144 1177.09219 964.55539 0.000874285
1120 1151.45321 964.4802 0.000892665
1052 1135.39105 964.40496 0.000950837
1039 1126.60274 964.3297 0.000962674
1078 1123.24133 964.2544 0.000927808
1045 1124.45994 964.17906 0.000956728
1052 1128.95151 964.10368 0.000950837
1029 1135.50053 964.02827 0.000971698
1050 1143.95602 963.95283 0.000952599
1026 1155.99949 963.87734 0.000974734
1034 1173.95093 963.80183 0.00096687
1087 1198.77317 963.72627 0.000919946
1078 1228.72219 963.65068 0.000927808
1067 1258.11905 963.57506 0.000937492
1104 1277.5832 963.49939 0.000905606
1096 1279.21271 963.4237 0.000912182
1066 1261.90215 963.34796 0.000938067
1090 1231.21775 963.27219 0.000917162
1098 1194.45993 963.19639 0.000910532
1059 1157.99621 963.12054 0.000944419
1008 1126.11121 963.04467 0.000992002
988 1100.81009 962.96875 0.001012305
1010 1082.36078 962.8928 0.00099013
991 1070.28788 962.81682 0.001009092
972 1063.79498 962.7408 0.001028603
967 1062.08579 962.66474 0.001033902
1007 1064.35076 962.58865 0.000993253
1001 1070.23911 962.51252 0.000998912
960 1078.93888 962.43635 0.001041927
994 1089.34575 962.36015 0.001005894
1011 1100.33836 962.28391 0.000988885
1020 1111.83569 962.20764 0.000980235
1020 1125.61017 962.13133 0.000980235
1056 1144.34245 962.05498 0.000946746
1012 1169.95662 961.9786 0.000988263
1033 1202.45356 961.90218 0.000968073
1104 1239.4288 961.82573 0.000905606
1131 1276.95985 961.74924 0.000884191
1220 1312.13407 961.67272 0.000819602
1116 1343.31494 961.59615 0.000895874
1159 1366.9351 961.51956 0.00086302
1165 1378.16454 961.44292 0.000858475
1158 1376.44566 961.36625 0.000863527
1131 1366.2813 961.28955 0.000884191
1145 1349.91922 961.2128 0.000873251
1137 1324.60833 961.13603 0.000879478
1145 1288.11157 961.05921 0.000873251
1093 1244.09991 960.98236 0.000914944
1061 1199.86207 960.90548 0.00094268
1110 1161.08211 960.82855 0.00090072
1039 1130.10156 960.7516 0.000962674
1011 1106.80227 960.6746 0.000988885
984 1089.66858 960.59757 0.001016181
1018 1076.91839 960.5205 0.000982079
1004 1067.46637 960.4434 0.000995762
965 1061.29374 960.36626 0.001036566
974 1058.91705 960.28909 0.001026626
984 1060.87524 960.21188 0.001016181
974 1067.59098 960.13463 0.001026626
976 1079.27939 960.05735 0.001024656
979 1095.68794 959.98003 0.001021384
995 1115.54728 959.90267 0.001005256
999 1135.87456 959.82528 0.001000809
997 1152.24431 959.74785 0.001002711
1001 1161.44521 959.67039 0.000998912
1012 1163.82707 959.59289 0.000988263
1030 1161.55534 959.51535 0.000971092
998 1154.81985 959.43778 0.001002076
994 1142.03481 959.36017 0.001005894
980 1123.17908 959.28253 0.001020731
946 1101.21107 959.20484 0.001056884
984 1079.87924 959.12713 0.001016181
956 1061.59261 959.04937 0.001045974
940 1047.2469 958.97158 0.001063789
926 1036.86251 958.89376 0.001079931
917 1030.10637 958.8159 0.001090657
856 1026.59242 958.738 0.001168023
896 1026.06159 958.66007 0.001116315
942 1028.49792 958.5821 0.001061711
912 1034.19038 958.50409 0.001096443
939 1043.73344 958.42605 0.001065179
885 1057.95154 958.34797 0.001129864
975 1077.71896 958.26985 0.001025969
1056 1103.61538 958.1917 0.000946746
951 1135.32752 958.11351 0.001051408
956 1170.85481 958.03529 0.001045974
1025 1206.17909 957.95703 0.000975343
1046 1236.2282 957.87873 0.000956137
1042 1255.74628 957.8004 0.000959694
1048 1259.11836 957.72203 0.000954365
1078 1242.88498 957.64363 0.000927808
1093 1211.82811 957.56519 0.000914944
1079 1174.59726 957.48671 0.000926679
1040 1139.02411 957.4082 0.000961481
1015 1109.33394 957.32965 0.000985164
977 1087.07302 957.25106 0.001023345
940 1072.46188 957.17244 0.001063789
954 1065.30046 957.09378 0.001048007
929 1065.34391 957.01508 0.001076391
937 1072.74724 956.93635 0.001067268
981 1087.98795 956.85758 0.001019428
973 1111.72572 956.77878 0.001027944
970 1144.40872 956.69994 0.001031247
992 1185.57493 956.62106 0.001007811
1055 1232.61933 956.54215 0.000947912
1106 1279.07231 956.4632 0.000903973
1114 1314.35314 956.38422 0.000897485
1143 1328.88504 956.3052 0.000874802
1158 1321.90488 956.22614 0.000863527
1146 1300.95207 956.14704 0.000872736
1138 1274.03483 956.06791 0.000878956
1127 1244.96254 955.98875 0.000887355
1126 1213.4285 955.90954 0.000887884
1121 1179.17883 955.8303 0.000892132
1092 1144.00081 955.75103 0.000915497
1028 1111.38662 955.67172 0.000972911
1054 1083.78975 955.59237 0.000948496
1010 1062.00243 955.51298 0.00099013
957 1045.80914 955.43356 0.001044623
953 1034.63971 955.3541 0.001049365
975 1027.94856 955.27461 0.001025969
961 1025.32525 955.19508 0.001040583
921 1026.64577 955.11551 0.001085632
926 1031.97498 955.03591 0.001079931
887 1041.10947 954.95627 0.001127588
916 1054.71021 954.8766 0.001091378
952 1071.91708 954.79688 0.001050726
937 1091.01818 954.71714 0.001067268
979 1108.35164 954.63735 0.001021384
960 1118.46726 954.55753 0.001041927
976 1117.16641 954.47767 0.001024656
1023 1105.02166 954.39778 0.000977784
986 1087.89511 954.31785 0.00101424
1009 1070.47723 954.23788 0.000991377
998 1055.48236 954.15788 0.001002076
957 1043.45451 954.07784 0.001044623
949 1033.5632 953.99776 0.001053456
939 1024.64765 953.91765 0.001065179
944 1016.26935 953.8375 0.001059638
928 1008.83334 953.75731 0.001077805
955 1002.92865 953.67709 0.001047329
930 998.92548 953.59683 0.00107498
866 997.40119 953.51654 0.001154568
852 997.79381 953.43621 0.001173632
878 1000.52885 953.35584 0.001139034
882 1005.558 953.27544 0.001133671
846 1012.57033 953.195 0.001181714
884 1020.71775 953.11452 0.001131384
938 1028.66151 953.03401 0.001065874
942 1033.67785 952.95346 0.001061711
933 1033.46301 952.87287 0.001071464
911 1027.78625 952.79225 0.001097897
912 1018.89628 952.71159 0.001096443
910 1009.22549 952.63089 0.001098625
891 1000.82044 952.55016 0.001122306
893 994.17332 952.46939 0.001120054
871 989.52974 952.38858 0.001148316
879 986.56799 952.30774 0.001137498
805 984.72796 952.22686 0.001242457
812 983.24679 952.14595 0.001231148
861 981.46661 952.065 0.001161662
878 979.23156 951.98401 0.001139034
892 976.87255 951.90299 0.001120804
911 974.87664 951.82193 0.001097897
853 973.47468 951.74083 0.001172025
868 972.91658 951.65969 0.001152218
870 973.51895 951.57852 0.001149095
856 975.01095 951.49732 0.001168023
848 977.56739 951.41607 0.001179281
863 981.11434 951.33479 0.001158501
880 985.28056 951.25348 0.001136731
851 989.2873 951.17212 0.001175242
843 992.08347 951.09073 0.001186604
886 992.02124 951.00931 0.001128346
912 989.15585 950.92784 0.001096443
887 984.46545 950.84634 0.001127588
873 979.16657 950.76481 0.00114521
875 974.32923 950.68323 0.001142888
872 970.19731 950.60163 0.001146762
877 967.00677 950.51998 0.001140573
877 964.49843 950.4383 0.001140573
861 962.63139 950.35658 0.001161662
855 961.26167 950.27482 0.001169621
852 960.25635 950.19303 0.001173632
846 959.50846 950.1112 0.001181714
815 958.94037 950.02934 0.00122684
779 958.52542 949.94743 0.00128375
801 958.23 949.8655 0.001248611
823 957.9617 949.78352 0.001214895
848 957.75769 949.70151 0.001179281
847 957.61231 949.61946 0.001180902
814 957.52402 949.53737 0.00122856
820 957.47422 949.45525 0.001219141
882 957.51222 949.37309 0.001133671
875 957.63078 949.2909 0.001142888
809 959.00503 949.20867 0.001236348
808 959.39425 949.1264 0.001237218
833 959.98867 949.04409 0.001200625
849 960.81876 948.96175 0.001177663
859 962.09622 948.87937 0.001164041
854 963.88257 948.79696 0.001171223
850 966.28098 948.71451 0.001176855
818 969.93055 948.63202 0.001222554
853 973.61861 948.54949 0.001172025
844 977.64084 948.46693 0.001184971
805 981.35051 948.38433 0.001242457
839 983.68133 948.3017 0.001191525
860 983.71056 948.21903 0.001162454
804 981.52438 948.13632 0.001244211
849 977.95734 948.05357 0.001177663
816 974.05168 947.97079 0.001225123
826 970.47127 947.88797 0.001210672
868 967.50439 947.80511 0.001152218
788 965.21572 947.72222 0.001269156
851 963.54649 947.63929 0.001175242
787 962.4199 947.55633 0.001270967
831 961.7156 947.47333 0.001203125
882 961.33629 947.39029 0.001133671
900 961.2101 947.30721 0.001111111
921 961.29527 947.2241 0.001085632
889 961.57976 947.14095 0.001124565
843 962.07821 947.05776 0.001186604
853 962.82697 946.97454 0.001172025
880 963.87637 946.89128 0.001136731
896 965.27894 946.80798 0.001116315
869 967.01691 946.72465 0.001150655
832 969.19615 946.64128 0.001202291
818 971.66757 946.55787 0.001222554
819 974.17609 946.47443 0.001220846
829 976.24159 946.39095 0.00120647
824 977.3504 946.30743 0.001213203
894 977.3931 946.22388 0.001118556
869 976.69902 946.14029 0.001150655
840 975.8335 946.05666 0.001190702
855 975.22259 945.973 0.001169621
847 975.09463 945.8893 0.001180902
869 975.554 945.80556 0.001150655
878 976.65135 945.72178 0.001139034
871 978.43138 945.63797 0.001148316
862 980.97298 945.55412 0.00116008
840 984.43292 945.47024 0.001190702
858 989.09777 945.38632 0.001165631
890 995.44293 945.30236 0.001123812
918 1004.18716 945.21836 0.001089218
923 1016.3173 945.13433 0.001083489
921 1033.04684 945.05026 0.001085632
928 1055.67228 944.96615 0.001077805
935 1085.30065 944.88201 0.001069363
961 1122.40707 944.79783 0.001040583
973 1166.04547 944.71361 0.001027944
1023 1212.69484 944.62936 0.000977784
1082 1254.39325 944.54507 0.000924426
1108 1279.36648 944.46074 0.000902345
1090 1278.94392 944.37638 0.000917162
1161 1254.8965 944.29198 0.000861501
1045 1218.02522 944.20754 0.000956728
1019 1179.33563 944.12306 0.000981464
1037 1145.38772 944.03855 0.000964469
973 1118.49266 943.954 0.001027944
985 1098.06458 943.86942 0.001015533
1007 1081.96303 943.7848 0.000993253
936 1068.18474 943.70014 0.001068664
939 1056.16159 943.61544 0.001065179
890 1046.45299 943.53071 0.001123812
933 1039.74959 943.44594 0.001071464
895 1036.50796 943.36113 0.001117061
852 1037.08137 943.27628 0.001173632
893 1041.87239 943.1914 0.001120054
927 1051.3687 943.10649 0.001078513
893 1065.92946 943.02153 0.001120054
954 1086.14235 942.93654 0.001048007
970 1111.62673 942.85151 0.001031247
1005 1141.11723 942.76644 0.000995134
1002 1172.22019 942.68134 0.00099828
1060 1201.64395 942.5962 0.00094326
1098 1225.53675 942.51103 0.000910532
1102 1240.59285 942.42581 0.000907243
1109 1246.78919 942.34056 0.000901803
1094 1248.91849 942.25527 0.000913838
1088 1252.6671 942.16995 0.000919388
1074 1260.10563 942.08459 0.000931209
1041 1268.059 941.99919 0.000960885
1027 1269.77835 941.91375 0.000973518
1022 1260.32077 941.82828 0.000978396
1003 1241.28845 941.74277 0.00099702
991 1218.99057 941.65723 0.001009092
994 1199.32614 941.57164 0.001005894
1002 1185.06043 941.48602 0.00099828
1019 1175.69727 941.40036 0.000981464
998 1168.7547 941.31467 0.001002076
981 1162.27517 941.22894 0.001019428
964 1156.86977 941.14317 0.001037234
0 1154.88855 941.05736 0
0 1158.6776 940.97152 0
0 1169.29635 940.88564 0
0 0 0 0
loop_
_refln_index_h
_refln_index_k
_refln_index_l
_refln_F_squared_meas
_refln_F_squared_calc
_refln_phase_calc
_pd_refln_d_spacing
_gsas_i100_meas
0 0 2 129593.5691 133008.3353 22.8 6.192 46.37
1 1 0 2094.6125 151.9140 19.7 5.346 1.11
1 1 -1 77213.6747 78366.0924 -162.8 5.186 38.59
2 0 0 97892.6725 95994.7130 71.3 5.157 24.19
1 1 1 9671.2842 10254.2490 51.6 4.670 3.91
2 0 -2 19914.5237 20346.1276 -122.1 4.645 3.98
1 1 -2 103.0082 174.8574 -149.7 4.368 0.04
1 1 2 2258.1842 87.8528 144.2 3.786 0.59
1 1 -3 22268.8445 20608.0674 -11.1 3.521 5.04
2 0 2 19902.9831 15671.8861 -78.0 3.513 2.24
0 2 0 50621.4987 41211.4429 0.0 3.125 4.48
3 1 -1 47426.6965 43680.2595 74.4 3.105 8.29
0 0 4 1.1516545831e6 1.1088846665e6 53.9 3.096 100.00
1 1 3 64411.9506 58382.8664 -109.0 3.062 10.93
2 0 -4 73625.5013 70445.3197 46.7 3.053 6.21
0 2 1 334895.8663 324379.7038 -77.4 3.030 55.63
3 1 0 342435.0954 327461.6635 -167.5 3.012 56.19
3 1 -2 314949.3123 301864.8625 156.8 3.011 51.64
1 1 -4 18430.3869 5391.8658 162.9 2.863 2.72
0 2 2 229457.7731 220545.7909 24.0 2.790 32.09
3 1 1 179030.4650 181337.9957 117.9 2.777 24.79
3 1 -3 160888.2843 164346.0240 61.1 2.775 22.25
2 2 -1 538.3127 186.6034 68.5 2.694 0.07
2 2 0 45454.9403 45637.9456 -107.6 2.673 5.81
4 0 -2 32588.7612 36920.9419 -55.6 2.656 2.06
2 2 -2 203273.0869 193557.3089 44.0 2.593 24.39
4 0 0 183925.2413 180858.7251 143.6 2.579 10.91
2 2 1 372.5379 1189.8151 -98.7 2.539 0.04
1 1 4 2361.2304 3126.2426 100.5 2.526 0.27
0 2 3 157634.1954 164259.2753 -53.8 2.492 17.40
3 1 2 163374.8011 164221.2212 -150.7 2.482 17.89
3 1 -4 189382.0124 189199.4665 145.5 2.481 20.71
2 2 -3 1.7148 16.0893 -65.0 2.407 0.00
1 1 -5 19927.6456 21583.4957 145.8 2.381 2.00
2 0 4 31383.9580 38009.1749 123.1 2.380 1.57
2 2 2 186527.4323 183641.5382 101.3 2.335 17.96
4 0 -4 165097.0298 176703.0175 92.0 2.323 7.86
0 2 4 4930.6423 12196.3938 64.7 2.199 0.42
3 1 3 11825.8057 14516.7869 139.4 2.193 1.00
3 1 -5 11279.1598 12716.2441 11.2 2.192 0.95
2 2 -4 89034.7070 83099.5333 -165.0 2.184 7.44
4 0 2 78939.5733 74763.5012 -3.8 2.176 3.27
1 1 5 250.9876 953.8526 106.6 2.133 0.02
2 0 -6 495.3385 3659.4861 -176.7 2.130 0.02
2 2 3 13.4186 767.8387 -162.1 2.110 0.00
0 0 6 172272.7591 157187.2977 74.2 2.064 6.39
1 3 0 47716.4305 41340.0031 103.1 2.042 3.46
1 3 -1 22384.1725 19998.6481 26.8 2.033 1.61
4 2 -1 44808.7239 40117.3753 23.0 2.033 3.22
5 1 -2 39916.7878 40355.9072 -128.2 2.027 2.85
1 1 -6 1792.4622 1936.1446 142.5 2.025 0.13
4 2 -2 30405.4934 35790.0605 141.7 2.024 2.16
5 1 -1 11735.3061 18839.5730 -7.3 2.018 0.83
1 3 1 5451.6714 7061.8498 -117.4 1.998 0.38
4 2 0 12169.2908 16554.7505 -8.9 1.989 0.83
5 1 -3 4567.3312 6934.2895 163.2 1.983 0.31
1 3 -2 44588.9997 38447.6983 102.0 1.972 3.00
4 2 -3 43602.6256 34432.4328 -1.6 1.963 2.91
2 2 -5 2273.7371 1818.5809 -47.9 1.962 0.15
5 1 0 45314.8792 42229.3608 -127.3 1.959 3.01
0 2 5 214265.6364 221408.3547 -25.9 1.941 13.95
3 1 4 191745.2214 193468.2453 -113.2 1.937 12.43
3 1 -6 207338.3510 213484.6383 106.8 1.936 13.42
1 3 2 13346.5228 15693.3729 -178.4 1.909 0.84
4 2 1 14294.1955 11423.5583 65.5 1.901 0.89
5 1 -4 10072.4592 9070.8676 -155.2 1.896 0.62
2 2 4 47092.1451 41322.2243 -41.6 1.893 2.91
4 0 -6 28706.7057 24106.8433 -112.8 1.886 0.88
1 3 -3 13565.4002 16800.3669 -170.3 1.872 0.82
4 2 -4 25872.1493 29546.9146 -67.5 1.864 1.55
5 1 1 14789.4217 20752.9499 -174.5 1.861 0.88
1 1 6 4866.3104 2044.5757 150.6 1.839 0.28
3 3 -1 512844.3891 496656.8208 84.8 1.800 28.47
1 3 3 20773.8631 16840.8031 65.0 1.792 1.14
6 0 -2 510642.5093 491262.7232 -2.1 1.789 13.98
4 2 2 33576.0561 31859.5282 171.9 1.786 1.83
3 3 0 1185.1787 1302.1671 160.5 1.782 0.06
3 3 -2 485.6123 541.0602 24.1 1.782 0.03
5 1 -5 15992.0417 18474.0920 -75.4 1.781 0.87
2 2 -6 188598.8207 152776.8240 -11.4 1.760 9.98
4 0 4 170694.1978 154088.8006 -155.7 1.757 4.50
1 1 -7 6083.5799 5485.4531 -27.2 1.756 0.32
2 0 6 13242.0625 12006.9915 -32.0 1.756 0.35
1 3 -4 9533.0189 11283.6062 60.6 1.749 0.50
4 2 -5 11519.1622 10234.1859 -38.4 1.743 0.60
5 1 2 14396.3762 12689.1744 -61.6 1.741 0.74
3 3 1 177361.4746 160020.3263 111.1 1.729 9.04
3 3 -3 151081.8187 136418.0739 60.4 1.729 7.70
0 2 6 240441.9621 206984.8468 71.6 1.722 12.15
3 1 5 183153.4645 160277.1869 171.6 1.719 9.23
6 0 0 179972.7241 157434.2639 2.0 1.719 4.53
6 0 -4 174936.7165 151429.5895 -50.8 1.718 4.40
3 1 -7 172109.8578 148972.4214 8.9 1.718 8.66
2 2 5 10199.5957 6791.5420 -58.2 1.699 0.50
1 3 4 32059.8801 22670.2145 153.8 1.663 1.51
4 2 3 37133.8548 24790.7949 96.4 1.659 1.73
5 1 -6 63041.4770 41626.9850 -178.9 1.654 2.93
3 3 2 987.7048 554.5228 -94.1 1.651 0.05
3 3 -4 1700.4460 924.6904 136.9 1.650 0.08
1 3 -5 19353.1283 14098.5935 -19.5 1.620 0.86
4 2 -6 32902.5956 26696.1303 84.9 1.615 1.45
5 1 3 15571.4057 13794.9906 47.0 1.613 0.69
1 1 7 32979.8047 28350.9366 -48.9 1.612 1.45
2 0 -8 75715.6745 69008.7275 2.4 1.610 1.66
2 2 -7 2195.7879 292.0459 -98.6 1.583 0.09
0 4 0 5761.5864 3222.4568 0.0 1.563 0.12
3 3 3 346865.0333 303461.0350 140.1 1.557 14.20
3 3 -5 340756.9236 301796.7649 35.4 1.556 13.94
6 2 -2 16763.8719 15405.1395 -103.2 1.553 0.68
0 4 1 152072.1920 146829.3419 -71.9 1.550 6.17
6 0 2 364137.0885 357122.6839 52.1 1.550 7.38
6 0 -6 364967.4563 332879.6960 -45.7 1.548 7.39
0 0 8 563024.5217 504713.4039 107.4 1.548 11.39
1 1 -8 6143.6024 5603.2202 108.9 1.547 0.25
6 2 -1 148524.9703 143439.7255 -87.5 1.541 5.95
6 2 -3 140669.6573 135494.3598 -110.1 1.540 5.63
0 2 7 201770.4556 190343.8454 1.6 1.540 8.07
3 1 6 212821.1149 199444.5619 -101.9 1.538 8.49
3 1 -8 192211.7666 180104.8390 81.4 1.537 7.66
1 3 5 11843.4387 11155.0956 -39.1 1.535 0.47
4 2 4 19919.2802 18271.5672 19.9 1.531 0.79
2 2 6 150169.8517 137399.3955 153.0 1.531 5.94
5 1 -7 12324.1951 11669.2709 93.3 1.528 0.49
4 0 -8 165299.0187 159278.1436 32.1 1.527 3.25
0 4 2 198059.3151 167099.2743 -150.8 1.515 7.67
6 2 0 192455.9036 178564.5263 31.6 1.506 7.36
6 2 -4 191501.2051 174432.5580 -21.5 1.506 7.32
2 4 -1 37134.6594 27288.9395 -41.4 1.499 1.41
2 4 0 84128.4312 67682.7364 76.8 1.495 3.17
5 3 -2 39399.9206 32714.5859 -117.7 1.494 1.48
1 3 -6 22341.5477 18538.5156 35.4 1.493 0.84
5 3 -1 60545.4712 54119.2006 158.4 1.490 2.27
4 2 -7 23751.2448 21563.4193 -70.1 1.489 0.89
7 1 -2 32771.4893 30436.1227 -85.7 1.488 1.22
5 1 4 24015.8091 22305.6514 -90.4 1.488 0.90
7 1 -3 47667.6499 52365.6022 -156.4 1.484 1.77
2 4 -2 810.3554 1241.8782 -61.2 1.481 0.03
5 3 -3 305.0162 350.3821 39.4 1.476 0.01
2 4 1 19471.3888 20872.4693 -11.0 1.471 0.71
7 1 -1 1945.5965 2123.0452 138.2 1.471 0.07
5 3 0 20201.8227 25385.5491 -126.9 1.466 0.73
0 4 3 115069.5935 113956.3442 -56.2 1.461 4.14
7 1 -4 30125.7797 26990.6148 -70.8 1.460 1.08
3 3 4 136.2791 106.9580 -140.3 1.457 0.00
3 3 -6 1238.2999 912.3645 -104.6 1.456 0.04
6 2 1 106956.1725 94547.0352 -56.8 1.454 3.81
6 2 -5 123411.5603 115494.9799 -141.0 1.453 4.39
2 4 -3 5472.6501 10774.2207 -67.6 1.444 0.19
5 3 -4 8267.5514 16245.2675 -171.0 1.439 0.29
7 1 0 14176.9182 21045.0539 -14.5 1.434 0.49
1 1 8 2116.1342 2701.5495 156.9 1.433 0.07
2 2 -8 17269.1498 18274.8856 142.2 1.432 0.60
4 0 6 12571.3532 19179.7008 51.0 1.430 0.22
2 4 2 1273.8917 2517.9296 -75.8 1.428 0.04
5 3 1 167.1907 1747.6945 111.8 1.423 0.01
7 1 -5 1127.7027 1065.0530 70.5 1.418 0.04
1 3 6 17996.4205 18186.0336 -145.8 1.413 0.61
4 2 5 16041.9163 13926.8364 122.0 1.411 0.54
5 1 -8 13891.3141 13364.8428 155.2 1.408 0.46
0 4 4 2750.7248 4637.4776 32.3 1.395 0.09
2 4 -4 36282.7231 51666.3860 23.7 1.391 1.18
6 2 2 3675.3846 7064.6152 -47.2 1.388 0.12
6 2 -6 1996.6698 3465.9119 -144.6 1.387 0.06
0 2 8 6120.8071 10289.1296 113.1 1.387 0.20
5 3 -5 29244.9010 47503.4568 123.1 1.387 0.95
2 2 7 1609.1107 2572.8895 -36.8 1.386 0.05
3 1 7 8861.2980 14098.3648 -172.5 1.386 0.29
3 1 -9 6638.8492 11294.5749 -29.1 1.385 0.21
7 1 1 16160.1515 32815.7498 -103.3 1.383 0.52
1 1 -9 5959.8122 12741.4022 86.6 1.381 0.19
2 0 8 12919.8545 28990.0812 172.6 1.381 0.21
1 3 -7 3705.8194 15956.3202 126.8 1.375 0.12
4 2 -8 7294.2716 23679.0008 -118.3 1.372 0.23
2 4 3 3186.2343 9984.9024 0.9 1.371 0.10
5 1 5 4781.1251 15736.2999 -138.2 1.371 0.15
5 3 2 2907.3602 17349.4826 -52.5 1.367 0.09
7 1 -6 3029.8838 9989.8663 -141.8 1.362 0.10
3 3 5 93690.9221 113910.2367 162.2 1.357 2.92
3 3 -7 96933.5575 113676.8450 5.8 1.356 3.02
6 0 4 97332.8920 107063.9645 57.0 1.352 1.51
6 0 -8 92625.2402 103216.0533 -106.4 1.351 1.43
4 4 -1 871.6370 925.3608 -25.5 1.349 0.03
4 4 -2 106777.2463 110977.9215 -68.0 1.347 3.28
8 0 -2 44139.5820 92175.3398 73.9 1.338 0.67
4 4 0 6057.9135 17046.6914 162.8 1.336 0.18
4 4 -3 366.4875 1070.6973 88.5 1.329 0.01
2 4 -5 6325.8443 17047.6098 -75.9 1.328 0.19
8 0 -4 3907.2428 9258.0329 -113.3 1.328 0.06
5 3 -6 14405.4296 20562.1115 -160.0 1.324 0.43
0 4 5 81391.4468 100224.8041 -23.9 1.322 2.41
7 1 2 14149.4367 17664.6649 -15.1 1.321 0.42
6 2 3 77028.5182 97945.8709 -34.4 1.316 2.26
6 2 -7 78025.3700 103560.2860 -164.0 1.315 2.29
4 4 1 172.6812 635.2221 124.5 1.309 0.01
2 4 4 17258.6226 32475.4602 128.8 1.306 0.50
5 3 3 15303.4239 21503.9824 -150.8 1.303 0.44
1 3 7 8250.7621 11140.0154 102.6 1.302 0.24
2 2 -9 848.4521 1253.3391 -57.6 1.302 0.02
4 2 6 15959.9684 19286.5785 -140.5 1.300 0.46
7 1 -7 18108.4158 26488.8418 148.0 1.298 0.52
5 1 -9 5943.5602 9658.6625 -140.5 1.298 0.17
4 4 -4 5826.1994 10666.0258 96.2 1.297 0.17
8 0 0 250.7011 14492.2614 -19.3 1.289 0.00
1 1 9 49.9107 3211.9966 132.7 1.289 0.00
2 0 -10 164.4708 7964.1217 111.1 1.288 0.00
4 4 2 45771.5513 82405.2889 -7.0 1.269 1.26
1 3 -8 7695.6603 14351.9033 0.8 1.268 0.21
4 2 -9 8110.2291 12195.2167 -92.6 1.265 0.22
5 1 6 9548.8259 14870.3813 -42.5 1.265 0.26
2 2 8 8503.1220 14092.9701 26.9 1.263 0.23
3 3 6 286.2647 459.4307 -147.6 1.262 0.01
3 3 -8 432.4829 695.2145 30.0 1.262 0.01
8 0 -6 62239.0368 100012.6689 32.1 1.262 0.85
4 0 -10 5284.0580 8368.9665 -173.7 1.261 0.07
2 4 -6 2666.7549 4131.9615 -94.3 1.260 0.07
0 2 9 56287.2860 80320.5707 27.1 1.259 1.53
3 1 8 58165.1889 78957.4217 -59.9 1.258 1.58
3 1 -10 55545.9952 81722.1316 58.7 1.258 1.51
5 3 -7 1644.1457 3169.3858 89.7 1.257 0.04
7 1 3 816.2895 2835.2542 -130.1 1.254 0.02
4 4 -5 244.0815 1185.0136 -81.4 1.254 0.01
1 1 -10 535.9713 812.7143 44.8 1.246 0.01
0 4 6 86458.3665 121345.8155 -92.6 1.246 2.31
6 2 4 98157.8731 113706.2802 79.9 1.241 2.60
1 5 0 3905.2603 4506.1146 131.0 1.241 0.10
6 2 -8 102161.4917 118629.8668 -79.3 1.240 2.71
1 5 -1 3054.2087 4070.9036 4.9 1.239 0.08
0 0 10 21516.7084 29592.7778 117.4 1.238 0.28
2 4 5 14049.0415 20170.3703 31.1 1.237 0.37
7 3 -2 3857.5727 8845.0886 113.5 1.234 0.10
5 3 4 11732.9667 26905.3187 -70.8 1.234 0.31
7 3 -3 966.3322 2840.4573 171.3 1.232 0.03
8 2 -3 1461.7218 4295.1051 -50.7 1.232 0.04
1 5 1 13940.3863 37412.2353 40.1 1.231 0.36
8 2 -2 4158.3851 11575.9643 -13.0 1.230 0.11
7 1 -8 8326.8784 23517.0150 -146.1 1.230 0.22
1 5 -2 4132.2743 13600.3061 78.7 1.225 0.11
7 3 -1 12664.3918 36888.4741 -136.2 1.224 0.33
8 2 -4 14403.4844 47630.8505 60.4 1.222 0.37
4 4 3 99.9987 302.6104 79.5 1.221 0.00
7 3 -4 320.8601 4341.5556 56.1 1.218 0.01
8 2 -1 155.0036 11591.7436 -32.9 1.216 0.00
1 5 2 36.0377 4846.4268 133.3 1.209 0.00
4 4 -6 15993.9442 53825.7156 -121.7 1.203 0.40
7 3 0 377.3101 1214.9061 103.2 1.203 0.01
1 3 8 1538.1871 7112.7710 -163.3 1.202 0.04
8 2 -5 622.1783 2842.5563 -61.5 1.201 0.02
4 2 7 1153.3830 5091.9873 159.8 1.201 0.03
1 5 -3 7784.1411 31266.3020 -9.8 1.200 0.20
5 1 -10 2091.8439 11122.6207 147.5 1.199 0.05
