#------------------------------------------------------------------------------
#$Date: 2021-05-17 12:47:39 +0300 (Mon, 17 May 2021) $
#$Revision: 265282 $
#$URL: file:///home/coder/svn-repositories/cod/cif/1/56/26/1562617.cif $
#------------------------------------------------------------------------------
#
# This file is available in the Crystallography Open Database (COD),
# http://www.crystallography.net/
#
# All data on this site have been placed in the public domain by the
# contributors.
#
data_1562617
loop_
_publ_author_name
'Zibrov, Igor P.'
'Filonenko, Vladimir P.'
'Zakharov, Nikolai D.'
'Werner, Peter'
'Drobot, Dmitrii V.'
'Nikishina, Elena E.'
'Lebedeva, Elena N.'
_publ_section_title
;
 New high pressure rare earth tantalates RExTa2O5+1.5x (RE=La, Eu, Yb)
;
_journal_name_full               'Journal of Solid State Chemistry'
_journal_page_first              240
_journal_page_last               246
_journal_paper_doi               10.1016/j.jssc.2013.03.057
_journal_volume                  203
_journal_year                    2013
_chemical_formula_structural     'YB0.051 TA2 O5.077 (H2O)0.3'
_chemical_formula_sum            'O8.45 Ta3 Yb0.08'
_chemical_formula_weight         691.36
_chemical_name_common            'Ytterbium Tantalate Hydrate'
_space_group_IT_number           72
_space_group_name_Hall           '-I 2 2c'
_space_group_name_H-M_alt        'I b a m'
_symmetry_cell_setting           orthorhombic
_symmetry_space_group_name_Hall  '-I 2 2c'
_symmetry_space_group_name_H-M   'I b a m'
_cell_angle_alpha                90.0
_cell_angle_beta                 90.0
_cell_angle_gamma                90.0
_cell_formula_units_Z            4
_cell_length_a                   10.90564(10)
_cell_length_b                   7.27511(6)
_cell_length_c                   6.85526(5)
_cell_measurement_temperature    298(2)
_cell_volume                     543.894(8)
_computing_structure_refinement  GSAS
_diffrn_ambient_temperature      298
_diffrn_detector                 'imaging plate'
_diffrn_measurement_device_type  'Imaging Plate Guinier Camera 670 (Huber)'
_diffrn_radiation_monochromator  'Primary, curved Ge (111)'
_diffrn_radiation_polarisn_ratio 0.8
_diffrn_radiation_probe          x-ray
_diffrn_radiation_type           'Cu K\a~1~'
_diffrn_radiation_wavelength     1.5406
_diffrn_source                   'sealed X-ray tube'
_diffrn_source_target            Cu
_exptl_absorpt_correction_T_max  1.00000
_exptl_absorpt_correction_T_min  1.00000
_exptl_absorpt_process_details
;   GSAS Absorption/surface roughness correction: function number 0
 No correction is applied.
;
_exptl_crystal_density_diffrn    8.443
_exptl_crystal_density_method    'not measured'
_pd_calc_method                  'Rietveld Refinement'
_pd_char_colour                  grey
_pd_instr_location               ' ?'
_pd_meas_2theta_range_inc        0.005
_pd_meas_2theta_range_max        100.495
_pd_meas_2theta_range_min        3.0
_pd_meas_number_of_points        19500
_pd_meas_scan_method             fixed
_pd_phase_name                   'from C:/GSAS/MyWork/YB907.EXP'
_pd_prep_cool_rate               100
_pd_prep_pressure                7000000
_pd_prep_temperature             1323
_pd_proc_2theta_range_inc        0.005
_pd_proc_2theta_range_max        100.5069
_pd_proc_2theta_range_min        3.0119
_pd_proc_info_datetime           2013-03-02T13:29:31
_pd_proc_info_excluded_regions   ' ?'
_pd_proc_ls_background_function
;   GSAS Background function number 1 with 30 terms.
 Shifted Chebyshev function of 1st kind
      1:    696.258     2:   -343.359     3:    187.326     4:   -8.33232    
      5:   -35.5691     6:    23.8337     7:   -9.51029     8:   -8.48609    
      9:    6.11008    10:   0.503807    11:   -1.37741    12:   -11.0886    
     13:   -1.37995    14:   -3.49411    15:   0.936598    16:   -3.38491    
     17:   -3.83203    18:   -8.12169    19:   -5.74720    20:    4.07534    
     21:   -2.75584    22:   -2.81026    23:    7.38373    24:    4.09511    
     25:   -7.38077    26:    9.46410    27:    8.65498    28:    2.47870    
     29:    8.66302    30:    4.90936    
;
_pd_proc_ls_peak_cutoff          0.00200
_pd_proc_ls_profile_function
;
 CW Profile function number 2 with  18 terms
 Profile coefficients for Simpson's rule integration of pseudovoigt function
 C.J. Howard (1982). J. Appl. Cryst.,15,615-620.
 P. Thompson, D.E. Cox & J.B. Hastings (1987). J. Appl. Cryst.,20,79-83.
 #1(GU)   =    0.000 #2(GV)   =   73.464 #3(GW)   =  -14.446
 #4(LX)   =   10.649 #5(LY)   =    0.000 #6(trns) =    1.279
 #7(asym) =   7.8814 #8(shft) =  -0.2806 #9(GP)   =    0.000
 #10(stec)=     0.00 #11(ptec)=    -2.94 #12(sfec)=     0.00
 #13(L11) =    0.000 #14(L22) =    0.000 #15(L33) =    0.000
 #16(L12) =    0.000 #17(L13) =    0.000 #18(L23) =    0.000
 Peak tails are ignored  where the intensity is below 0.0020 times the peak
   Aniso. broadening axis   0.0   0.0   1.0
;
_pd_proc_ls_prof_R_factor        0.0599
_pd_proc_ls_prof_wR_expected     0.0327
_pd_proc_ls_prof_wR_factor       0.0825
_pd_proc_number_of_points        19500
_pd_spec_mounting                'powder on Mylar film'
_pd_spec_mount_mode              transmission
_pd_spec_shape                   flat_sheet
_pd_spec_size_axial              8
_pd_spec_size_equat              0.1
_refine_ls_goodness_of_fit_all   2.53
_refine_ls_matrix_type           full
_refine_ls_number_parameters     51
_refine_ls_number_restraints     0
_refine_ls_R_Fsqd_factor         0.06546
_refine_ls_shift/su_max          0.05
_refine_ls_shift/su_mean         0.01
_cod_data_source_file            Yb0051Ta2O5077H2O03.cif
_cod_data_source_block           YB0.051TA2O5.077(0.3H2O)_publ
_cod_depositor_comments
;
The following automatic conversions were performed:

data item '_geom_angle_publ_flag' value 'N' was changed to 'n' in
accordance with the built-in table derived from the CIF Core
dictionary named 'cif_core.dic' version 2.4.5 last updated on
2014-11-21 (109 times).

data item '_geom_bond_publ_flag' value 'N' was changed to 'n' in
accordance with the built-in table derived from the CIF Core
dictionary named 'cif_core.dic' version 2.4.5 last updated on
2014-11-21 (47 times).

Automatic conversion script
Id: cif_fix_values 8369 2020-08-20 11:38:08Z andrius 
;
_cod_original_cell_volume        543.895(7)
_cod_database_code               1562617
_gsas_exptl_extinct_corr_t_min   1.00000
_gsas_exptl_extinct_corr_t_max   1.00000
loop_
_symmetry_equiv_pos_site_id
_symmetry_equiv_pos_as_xyz
1 +x,+y,+z
2 -x+1/2,+y+1/2,+z
3 +x+1/2,-y+1/2,+z
4 -x,-y,+z
-1 -x,-y,-z
-2 +x+1/2,-y+1/2,-z
-3 -x+1/2,+y+1/2,-z
-4 +x,+y,-z
101 +x+1/2,+y+1/2,+z+1/2
102 -x,+y,+z+1/2
103 +x,-y,+z+1/2
104 -x+1/2,-y+1/2,+z+1/2
-101 -x+1/2,-y+1/2,-z+1/2
-102 +x,-y,-z+1/2
-103 -x,+y,-z+1/2
-104 +x+1/2,+y+1/2,-z+1/2
loop_
_atom_site_type_symbol
_atom_site_label
_atom_site_fract_x
_atom_site_fract_y
_atom_site_fract_z
_atom_site_occupancy
_atom_site_thermal_displace_type
_atom_site_U_iso_or_equiv
_atom_site_symmetry_multiplicity
Ta Ta1 0.22907(6) 0.23265(12) 0.0 1.0 Uiso 0.01328(28) 8
Ta Ta2 0.0 0.0 0.25 1.0 Uiso 0.0175(4) 4
O O1 0.1554(5) 0.2001(8) 0.2924(8) 1.0 Uiso 0.0201(15) 16
O O2 0.1854(7) 0.4960(13) 0.0 1.0 Uiso 0.0201(15) 8
O O3 0.0567(7) 0.1182(11) 0.0 1.0 Uiso 0.0201(15) 8
Yb Yb 0.0 0.5 0.25 0.0770(17) Uiso 0.037 4
O H2O 0.0 0.5 0.25 0.45 Uiso 0.037 4
loop_
_atom_type_symbol
_atom_type_number_in_cell
_atom_type_scat_dispersion_real
_atom_type_scat_dispersion_imag
_atom_type_scat_Cromer_Mann_a1
_atom_type_scat_Cromer_Mann_a2
_atom_type_scat_Cromer_Mann_a3
_atom_type_scat_Cromer_Mann_a4
_atom_type_scat_Cromer_Mann_b1
_atom_type_scat_Cromer_Mann_b2
_atom_type_scat_Cromer_Mann_b3
_atom_type_scat_Cromer_Mann_b4
_atom_type_scat_Cromer_Mann_c
_atom_type_scat_source
Ta 12.0 0.000 0.000 29.2024 1.77333 15.2293 9.37046 14.5135 0.29598 4.76492
63.3644 9.24354 International_Tables_Vol_C
O 33.8 0.000 0.000 3.04850 13.2771 2.28680 5.70110 1.54630 0.32390 0.86700
32.9089 0.25080 International_Tables_Vol_C
Yb 0.308 0.000 0.000 28.6641 1.98890 15.4345 0.25712 15.3087 10.6647 2.98963
100.417 7.56672 International_Tables_Vol_C
loop_
_geom_angle_atom_site_label_1
_geom_angle_atom_site_label_2
_geom_angle_atom_site_label_3
_geom_angle
_geom_angle_site_symmetry_1
_geom_angle_site_symmetry_2
_geom_angle_site_symmetry_3
_geom_angle_publ_flag
O1 Ta1 O1 134.66(27) 1_555 . -4_555 n
O1 Ta1 O1 159.01(17) 1_555 . 104_554 n
O1 Ta1 O1 66.12(22) 1_555 . -101_665 n
O1 Ta1 O2 90.95(17) 1_555 . 1_555 n
O1 Ta1 O2 94.61(16) 1_555 . 2_545 n
O1 Ta1 O3 67.53(14) 1_555 . 1_555 n
O1 Ta1 O1 66.12(22) -4_555 . 104_554 n
O1 Ta1 O1 159.01(17) -4_555 . -101_665 n
O1 Ta1 O2 90.95(17) -4_555 . 1_555 n
O1 Ta1 O2 94.61(16) -4_555 . 2_545 n
O1 Ta1 O3 67.53(14) -4_555 . 1_555 n
O1 Ta1 O1 92.98(29) 104_554 . -101_665 n
O1 Ta1 O2 85.01(21) 104_554 . 1_555 n
O1 Ta1 O2 85.02(21) 104_554 . 2_545 n
O1 Ta1 O3 133.45(14) 104_554 . 1_555 n
O1 Ta1 O2 85.01(21) -101_665 . 1_555 n
O1 Ta1 O2 85.02(21) -101_665 . 2_545 n
O1 Ta1 O3 133.45(14) -101_444 . 1_555 n
O2 Ta1 O2 165.51(21) 1_555 . 2_545 n
O2 Ta1 O3 99.91(32) 1_555 . 1_555 n
O2 Ta1 O3 94.58(35) 2_545 . 1_555 n
O1 Ta2 O1 165.19(28) 1_555 . 4_555 n
O1 Ta2 O1 82.42(29) 1_555 . -102_665 n
O1 Ta2 O1 99.50(29) 1_555 . -103_665 n
O1 Ta2 O3 66.62(22) 1_555 . 1_555 n
O1 Ta2 O3 128.03(23) 1_555 . 4_555 n
O1 Ta2 O3 81.10(26) 1_555 . 102_334 n
O1 Ta2 O3 86.30(27) 1_555 . 103_334 n
O1 Ta2 O1 99.50(29) 4_555 . -102_665 n
O1 Ta2 O1 82.42(29) 4_555 . -103_665 n
O1 Ta2 O3 128.03(23) 4_555 . 1_555 n
O1 Ta2 O3 66.62(22) 4_555 . 4_555 n
O1 Ta2 O3 86.30(27) 4_555 . 102_334 n
O1 Ta2 O3 81.10(26) 4_555 . 103_334 n
O1 Ta2 O1 165.19(28) -102_665 . -103_665 n
O1 Ta2 O3 86.30(27) -102_444 . 1_555 n
O1 Ta2 O3 81.10(26) -102_444 . 4_555 n
O1 Ta2 O3 128.03(23) -102_444 . 102_334 n
O1 Ta2 O3 66.62(22) -102_444 . 103_334 n
O1 Ta2 O3 81.10(26) -103_444 . 1_555 n
O1 Ta2 O3 86.30(27) -103_444 . 4_555 n
O1 Ta2 O3 66.62(22) -103_444 . 102_334 n
O1 Ta2 O3 128.03(23) -103_444 . 103_334 n
O3 Ta2 O3 63.4(4) 1_555 . 4_555 n
O3 Ta2 O3 129.5(4) 1_555 . 102_334 n
O3 Ta2 O3 144.3(4) 1_555 . 103_334 n
O3 Ta2 O3 144.3(4) 4_555 . 102_334 n
O3 Ta2 O3 129.5(4) 4_555 . 103_334 n
O3 Ta2 O3 63.4(4) 102_334 . 103_334 n
Ta1 O1 Ta1 113.88(22) 1_555 . 104_555 n
Ta1 O1 Ta2 103.28(23) 1_555 . 1_555 n
Ta1 O1 Yb 92.50(19) 1_555 . 1_555 n
Ta1 O1 Ta2 137.50(27) 104_555 . 1_555 n
Ta1 O1 Yb 105.76(24) 104_555 . 1_555 n
Ta2 O1 Yb 92.00(17) 1_555 . 1_555 n
Ta1 O2 Ta1 137.6(4) 1_555 . 2_555 n
Ta1 O2 Yb 101.23(30) 1_555 . 1_555 n
Ta1 O2 Yb 101.23(30) 1_555 . -1_565 n
Ta1 O2 Yb 110.73(31) 2_555 . 1_555 n
Ta1 O2 Yb 110.73(31) 2_555 . -1_565 n
Yb O2 Yb 80.58(22) 1_555 . -1_565 n
Ta1 O3 Ta2 116.95(22) 1_555 . 1_555 n
Ta1 O3 Ta2 116.95(22) 1_555 . -1_555 n
Ta2 O3 Ta2 116.6(4) 1_555 . -1_555 n
O1 Yb O1 168.00(23) 1_555 . 4_565 n
O1 Yb O1 104.80(20) 1_555 . -102_675 n
O1 Yb O1 76.49(20) 1_555 . -103_665 n
O1 Yb O2 66.02(21) 1_555 . 1_555 n
O1 Yb O2 122.79(23) 1_555 . 4_565 n
O1 Yb O2 112.91(22) 1_555 . 102_555 n
O1 Yb O2 58.37(22) 1_555 . 103_565 n
O1 Yb Yb 96.00(11) 1_555 . -1_565 n
O1 Yb Yb 84.00(11) 1_555 . -1_566 n
O1 Yb O1 76.49(20) 4_565 . -102_675 n
O1 Yb O1 104.80(20) 4_565 . -103_665 n
O1 Yb O2 122.79(23) 4_565 . 1_555 n
O1 Yb O2 66.02(21) 4_565 . 4_565 n
O1 Yb O2 58.37(22) 4_565 . 102_555 n
O1 Yb O2 112.91(22) 4_565 . 103_565 n
O1 Yb Yb 96.00(11) 4_565 . -1_565 n
O1 Yb Yb 84.00(11) 4_565 . -1_566 n
O1 Yb O1 168.00(23) -102_675 . -103_665 n
O1 Yb O2 58.37(22) -102_675 . 1_555 n
O1 Yb O2 112.91(22) -102_675 . 4_565 n
O1 Yb O2 122.79(23) -102_675 . 102_555 n
O1 Yb O2 66.02(21) -102_675 . 103_565 n
O1 Yb Yb 84.00(11) -102_454 . -1_565 n
O1 Yb Yb 96.00(11) -102_454 . -1_566 n
O1 Yb O2 112.91(22) -103_665 . 1_555 n
O1 Yb O2 58.37(22) -103_665 . 4_565 n
O1 Yb O2 66.02(21) -103_665 . 102_555 n
O1 Yb O2 122.79(23) -103_665 . 103_565 n
O1 Yb Yb 84.00(11) -103_444 . -1_565 n
O1 Yb Yb 96.00(11) -103_444 . -1_566 n
O2 Yb O2 99.42(22) 1_555 . 4_565 n
O2 Yb O2 178.8(4) 1_555 . 102_555 n
O2 Yb O2 80.59(22) 1_555 . 103_565 n
O2 Yb Yb 49.71(11) 1_555 . -1_565 n
O2 Yb Yb 130.29(11) 1_555 . -1_566 n
O2 Yb O2 80.59(22) 4_565 . 102_555 n
O2 Yb O2 178.8(4) 4_565 . 103_565 n
O2 Yb Yb 49.71(11) 4_565 . -1_565 n
O2 Yb Yb 130.29(11) 4_565 . -1_566 n
O2 Yb O2 99.42(22) 102_555 . 103_565 n
O2 Yb Yb 130.29(11) 102_334 . -1_565 n
O2 Yb Yb 49.71(11) 102_334 . -1_566 n
O2 Yb Yb 130.29(11) 103_344 . -1_565 n
O2 Yb Yb 49.71(11) 103_344 . -1_566 n
Yb Yb Yb 180.0 -1_565 . -1_566 n
loop_
_geom_bond_atom_site_label_1
_geom_bond_atom_site_label_2
_geom_bond_distance
_geom_bond_site_symmetry_1
_geom_bond_site_symmetry_2
_geom_bond_publ_flag
Ta1 O1 2.172(5) . 1_555 n
Ta1 O1 2.172(5) . -4_555 n
Ta1 O1 1.963(5) . 104_554 n
Ta1 O1 1.963(5) . -101_444 n
Ta1 O2 1.975(10) . 1_555 n
Ta1 O2 1.958(9) . 2_545 n
Ta1 O3 2.056(7) . 1_555 n
Ta1 Yb 3.6001(7) . 1_555 n
Ta1 Yb 3.6001(7) . -1_565 n
Ta2 O1 2.253(5) . 1_555 n
Ta2 O1 2.253(5) . 4_555 n
Ta2 O1 2.253(5) . -102_444 n
Ta2 O1 2.253(5) . -103_444 n
Ta2 O3 2.014(4) . 1_555 n
Ta2 O3 2.014(4) . 4_555 n
Ta2 O3 2.014(4) . 102_555 n
Ta2 O3 2.014(4) . 103_555 n
Ta2 Yb 3.637560(30) . 1_545 n
Ta2 Yb 3.637560(30) . 1_555 n
O1 Ta1 2.172(5) . 1_555 n
O1 Ta1 1.963(5) . 104_555 n
O1 Ta2 2.253(5) . 1_555 n
O1 Yb 2.778(6) . 1_555 n
O2 Ta1 1.975(10) . 1_555 n
O2 Ta1 1.958(9) . 2_555 n
O2 Yb 2.650(6) . 1_555 n
O2 Yb 2.650(6) . -1_565 n
O3 Ta1 2.056(7) . 1_555 n
O3 Ta2 2.014(4) . 1_555 n
O3 Ta2 2.014(4) . -1_555 n
O3 O3 2.118(14) . 4_555 n
Yb Ta1 3.6001(7) . 1_555 n
Yb Ta1 3.6001(7) . 4_565 n
Yb Ta1 3.6001(7) . 102_555 n
Yb Ta1 3.6001(7) . 103_565 n
Yb Ta2 3.637560(30) . 1_555 n
Yb Ta2 3.637560(30) . 1_565 n
Yb O1 2.778(6) . 1_555 n
Yb O1 2.778(6) . 4_565 n
Yb O1 2.778(6) . -102_454 n
Yb O1 2.778(6) . -103_444 n
Yb O2 2.650(6) . 1_555 n
Yb O2 2.650(6) . 4_565 n
Yb O2 2.650(6) . 102_555 n
Yb O2 2.650(6) . 103_565 n
Yb Yb 3.427630(30) . -1_565 n
Yb Yb 3.427630(30) . -1_566 n
loop_
_pd_meas_counts_total
_pd_proc_ls_weight
_pd_proc_intensity_bkg_calc
_pd_calc_intensity_total
1162.0 0.000861 1187.49683 1187.51013
1147.0 0.000872 1187.58838 1187.60095
1154.0 0.000867 1187.67542 1187.68787
1157.0 0.000864 1187.75891 1187.77087
1124.0 0.000890 1187.83789 1187.84875
1159.0 0.000863 1187.91296 1187.92285
1177.0 0.000850 1187.98352 1187.99329
1171.0 0.000854 1188.05005 1188.05969
1151.0 0.000869 1188.11267 1188.12158
1107.0 0.000903 1188.17139 1188.17981
1140.0 0.000877 1188.22620 1188.23401
1174.0 0.000852 1188.27673 1188.28442
1194.0 0.000838 1188.32349 1188.33044
1167.0 0.000857 1188.36731 1188.37317
1222.0 0.000818 1188.40649 1188.41223
1239.0 0.000807 1188.44165 1188.44727
1187.0 0.000842 1188.47375 1188.47913
1147.0 0.000872 1188.50232 1188.50684
1188.0 0.000842 1188.52686 1188.53113
1162.0 0.000861 1188.54785 1188.55139
1152.0 0.000868 1188.56567 1188.56909
1169.0 0.000855 1188.57947 1188.58289
1172.0 0.000853 1188.59021 1188.59277
1120.0 0.000893 1188.59766 1188.59998
1148.0 0.000871 1188.60156 1188.60364
1162.0 0.000861 1188.60193 1188.60437
1166.0 0.000858 1188.59937 1188.60071
1189.0 0.000841 1188.59326 1188.59448
1217.0 0.000822 1188.58398 1188.58496
1210.0 0.000826 1188.57166 1188.57239
1220.0 0.000820 1188.55676 1188.55652
1244.0 0.000804 1188.53760 1188.53784
1240.0 0.000806 1188.51611 1188.51575
1221.0 0.000819 1188.49109 1188.49109
1187.0 0.000842 1188.46375 1188.46289
1216.0 0.000822 1188.43298 1188.43188
1286.0 0.000778 1188.39917 1188.39819
1209.0 0.000827 1188.36279 1188.36121
1219.0 0.000820 1188.32349 1188.32214
1224.0 0.000817 1188.28137 1188.27991
1259.0 0.000794 1188.23706 1188.23438
1300.0 0.000769 1188.18896 1188.18689
1256.0 0.000796 1188.13879 1188.13623
1208.0 0.000828 1188.08569 1188.08301
1182.0 0.000846 1188.03015 1188.02747
1171.0 0.000854 1187.97180 1187.96875
1160.0 0.000862 1187.91077 1187.90784
1161.0 0.000861 1187.84766 1187.84424
1205.0 0.000830 1187.78186 1187.77856
1216.0 0.000822 1187.71338 1187.70959
1216.0 0.000822 1187.64221 1187.63916
1165.0 0.000858 1187.56897 1187.56555
1173.0 0.000853 1187.49402 1187.48975
1204.0 0.000831 1187.41577 1187.41150
1218.0 0.000821 1187.33569 1187.33154
1213.0 0.000824 1187.25317 1187.24866
1179.0 0.000848 1187.16846 1187.16370
1167.0 0.000857 1187.08167 1187.07678
1194.0 0.000838 1186.99243 1186.98755
1156.0 0.000865 1186.90039 1186.89600
1139.0 0.000878 1186.80725 1186.80286
1157.0 0.000864 1186.71179 1186.70691
1188.0 0.000842 1186.61377 1186.60889
1208.0 0.000828 1186.51440 1186.50916
1255.0 0.000797 1186.41272 1186.40759
1263.0 0.000792 1186.30920 1186.30396
1220.0 0.000820 1186.20361 1186.19836
1200.0 0.000833 1186.09607 1186.09106
1206.0 0.000829 1185.98633 1185.98132
1226.0 0.000816 1185.87524 1185.86987
1205.0 0.000830 1185.76196 1185.75671
1184.0 0.000845 1185.64734 1185.64221
1151.0 0.000869 1185.53027 1185.52515
1154.0 0.000867 1185.41174 1185.40662
1191.0 0.000840 1185.29175 1185.28662
1183.0 0.000845 1185.16980 1185.16492
1170.0 0.000855 1185.04602 1185.04077
1220.0 0.000820 1184.92102 1184.91565
1249.0 0.000801 1184.79468 1184.78943
1245.0 0.000803 1184.66553 1184.66077
1215.0 0.000823 1184.53601 1184.53064
1231.0 0.000812 1184.40479 1184.39917
1219.0 0.000820 1184.27173 1184.26636
1232.0 0.000812 1184.13721 1184.13171
1232.0 0.000812 1184.00085 1183.99597
1176.0 0.000850 1183.86365 1183.85828
1156.0 0.000865 1183.72485 1183.71973
1206.0 0.000829 1183.58447 1183.57935
1228.0 0.000814 1183.44336 1183.43823
1246.0 0.000803 1183.30017 1183.29529
1178.0 0.000849 1183.15588 1183.15088
1156.0 0.000865 1183.01050 1183.00549
1153.0 0.000867 1182.86401 1182.85901
1192.0 0.000839 1182.71594 1182.71094
1202.0 0.000832 1182.56665 1182.56177
1193.0 0.000838 1182.41614 1182.41138
1169.0 0.000855 1182.26453 1182.25964
1213.0 0.000824 1182.11194 1182.10742
1179.0 0.000848 1181.95825 1181.95313
1154.0 0.000867 1181.80298 1181.79810
1145.0 0.000873 1181.64709 1181.64246
1135.0 0.000881 1181.49011 1181.48572
1115.0 0.000897 1181.33191 1181.32739
1172.0 0.000853 1181.17285 1181.16833
1175.0 0.000851 1181.01294 1181.00867
1187.0 0.000842 1180.85193 1180.84741
1178.0 0.000849 1180.68958 1180.68567
1134.0 0.000882 1180.52673 1180.52258
1178.0 0.000849 1180.36292 1180.35889
1219.0 0.000820 1180.19824 1180.19434
1209.0 0.000827 1180.03259 1180.02893
1255.0 0.000797 1179.86621 1179.86292
1223.0 0.000818 1179.69897 1179.69519
1225.0 0.000816 1179.53101 1179.52722
1152.0 0.000868 1179.36243 1179.35876
1190.0 0.000840 1179.19275 1179.18884
1204.0 0.000831 1179.02234 1179.01880
1212.0 0.000825 1178.85132 1178.84851
1230.0 0.000813 1178.67944 1178.67639
1235.0 0.000810 1178.50720 1178.50391
1183.0 0.000845 1178.33435 1178.33093
1192.0 0.000839 1178.16028 1178.15710
1171.0 0.000854 1177.98572 1177.98303
1166.0 0.000858 1177.81116 1177.80847
1195.0 0.000837 1177.63599 1177.63306
1201.0 0.000833 1177.45911 1177.45667
1186.0 0.000843 1177.28296 1177.28003
1192.0 0.000839 1177.10571 1177.10291
1185.0 0.000844 1176.92798 1176.92542
1186.0 0.000843 1176.74951 1176.74731
1235.0 0.000810 1176.57080 1176.56873
1226.0 0.000816 1176.39209 1176.39001
1193.0 0.000838 1176.21240 1176.21033
1160.0 0.000862 1176.03247 1176.03052
1196.0 0.000836 1175.85217 1175.85010
1177.0 0.000850 1175.67139 1175.66968
1159.0 0.000863 1175.49036 1175.48840
1158.0 0.000864 1175.30835 1175.30664
1169.0 0.000855 1175.12659 1175.12500
1211.0 0.000826 1174.94458 1174.94287
1178.0 0.000849 1174.76184 1174.76074
1206.0 0.000829 1174.57922 1174.57764
1158.0 0.000864 1174.39648 1174.39478
1161.0 0.000861 1174.21277 1174.21130
1172.0 0.000853 1174.02930 1174.02820
1144.0 0.000874 1173.84570 1173.84424
1170.0 0.000855 1173.66138 1173.66052
1191.0 0.000840 1173.47754 1173.47620
1198.0 0.000835 1173.29285 1173.29224
1187.0 0.000842 1173.10852 1173.10767
1173.0 0.000853 1172.92371 1172.92273
1173.0 0.000853 1172.73926 1172.73804
1139.0 0.000878 1172.55371 1172.55347
1154.0 0.000867 1172.36865 1172.36841
1161.0 0.000861 1172.18335 1172.18323
1167.0 0.000857 1171.99792 1171.99805
1200.0 0.000833 1171.81287 1171.81287
1180.0 0.000847 1171.62781 1171.62756
1139.0 0.000878 1171.44189 1171.44214
1174.0 0.000852 1171.25684 1171.25659
1146.0 0.000873 1171.07153 1171.07153
1118.0 0.000894 1170.88574 1170.88623
1130.0 0.000885 1170.70044 1170.70068
1141.0 0.000876 1170.51477 1170.51514
1200.0 0.000833 1170.32983 1170.32983
1181.0 0.000847 1170.14417 1170.14441
1166.0 0.000858 1169.95862 1169.95947
1167.0 0.000857 1169.77344 1169.77454
1149.0 0.000870 1169.58850 1169.58948
1137.0 0.000880 1169.40381 1169.40454
1155.0 0.000866 1169.21887 1169.21936
1126.0 0.000888 1169.03369 1169.03503
1151.0 0.000869 1168.84937 1168.85022
1202.0 0.000832 1168.66443 1168.66577
1195.0 0.000837 1168.48047 1168.48169
1128.0 0.000887 1168.29675 1168.29724
1138.0 0.000879 1168.11255 1168.11365
1199.0 0.000834 1167.92834 1167.92993
1178.0 0.000849 1167.74463 1167.74634
1165.0 0.000858 1167.56177 1167.56348
1141.0 0.000876 1167.37878 1167.38049
1155.0 0.000866 1167.19617 1167.19788
1117.0 0.000895 1167.01355 1167.01514
1117.0 0.000895 1166.83105 1166.83289
1096.0 0.000912 1166.64905 1166.65100
1111.0 0.000900 1166.46729 1166.46899
1143.0 0.000875 1166.28564 1166.28772
1152.0 0.000868 1166.10437 1166.10620
1135.0 0.000881 1165.92371 1165.92615
1150.0 0.000870 1165.74292 1165.74548
1150.0 0.000870 1165.56311 1165.56519
1144.0 0.000874 1165.38318 1165.38550
1116.0 0.000896 1165.20337 1165.20581
1091.0 0.000917 1165.02454 1165.02686
1138.0 0.000879 1164.84570 1164.84827
1177.0 0.000850 1164.66711 1164.66980
1209.0 0.000827 1164.48938 1164.49219
1181.0 0.000847 1164.31238 1164.31506
1157.0 0.000864 1164.13464 1164.13757
1127.0 0.000887 1163.95801 1163.96045
1099.0 0.000910 1163.78162 1163.78467
1114.0 0.000898 1163.60559 1163.60913
1173.0 0.000853 1163.43042 1163.43335
1135.0 0.000881 1163.25537 1163.25867
1131.0 0.000884 1163.08081 1163.08398
1115.0 0.000897 1162.90686 1162.91016
1165.0 0.000858 1162.73352 1162.73621
1154.0 0.000867 1162.55981 1162.56372
1146.0 0.000873 1162.38782 1162.39111
1127.0 0.000887 1162.21570 1162.21912
1154.0 0.000867 1162.04419 1162.04724
1178.0 0.000849 1161.87292 1161.87634
1209.0 0.000827 1161.70239 1161.70605
1165.0 0.000858 1161.53247 1161.53613
1180.0 0.000847 1161.36316 1161.36682
1185.0 0.000844 1161.19421 1161.19824
1211.0 0.000826 1161.02588 1161.02954
1170.0 0.000855 1160.85815 1160.86243
1160.0 0.000862 1160.69104 1160.69482
1140.0 0.000877 1160.52417 1160.52856
1110.0 0.000901 1160.35876 1160.36230
1120.0 0.000893 1160.19312 1160.19727
1119.0 0.000894 1160.02844 1160.03210
1100.0 0.000909 1159.86377 1159.86829
1135.0 0.000881 1159.70044 1159.70435
1118.0 0.000894 1159.53735 1159.54163
1155.0 0.000866 1159.37524 1159.37927
1202.0 0.000832 1159.21350 1159.21753
1173.0 0.000853 1159.05237 1159.05652
1142.0 0.000876 1158.89197 1158.89600
1121.0 0.000892 1158.73242 1158.73596
1153.0 0.000867 1158.57312 1158.57727
1154.0 0.000867 1158.41443 1158.41882
1151.0 0.000869 1158.25684 1158.26074
1150.0 0.000870 1158.09949 1158.10364
1145.0 0.000873 1157.94324 1157.94727
1192.0 0.000839 1157.78735 1157.79150
1194.0 0.000838 1157.63220 1157.63647
1136.0 0.000880 1157.47742 1157.48218
1127.0 0.000887 1157.32397 1157.32849
1155.0 0.000866 1157.17151 1157.17578
1146.0 0.000873 1157.01917 1157.02307
1173.0 0.000853 1156.86731 1156.87195
1157.0 0.000864 1156.71655 1156.72083
1155.0 0.000866 1156.56653 1156.57104
1136.0 0.000880 1156.41711 1156.42151
1139.0 0.000878 1156.26880 1156.27332
1127.0 0.000887 1156.12048 1156.12500
1149.0 0.000870 1155.97339 1155.97827
1121.0 0.000892 1155.82727 1155.83154
1146.0 0.000873 1155.68140 1155.68604
1199.0 0.000834 1155.53625 1155.54102
1157.0 0.000864 1155.39233 1155.39734
1167.0 0.000857 1155.24902 1155.25366
1182.0 0.000846 1155.10620 1155.11084
1134.0 0.000882 1154.96460 1154.96936
1151.0 0.000869 1154.82361 1154.82825
1115.0 0.000897 1154.68311 1154.68823
1119.0 0.000894 1154.54370 1154.54846
1128.0 0.000887 1154.40515 1154.40955
1139.0 0.000878 1154.26746 1154.27197
1125.0 0.000889 1154.13013 1154.13464
1152.0 0.000868 1153.99390 1153.99841
1140.0 0.000877 1153.85864 1153.86316
1121.0 0.000892 1153.72388 1153.72827
1171.0 0.000854 1153.58984 1153.59436
1154.0 0.000867 1153.45691 1153.46130
1194.0 0.000838 1153.32446 1153.32935
1170.0 0.000855 1153.19299 1153.19751
1168.0 0.000856 1153.06250 1153.06726
1179.0 0.000848 1152.93298 1152.93738
1164.0 0.000859 1152.80383 1152.80835
1146.0 0.000873 1152.67566 1152.68018
1130.0 0.000885 1152.54846 1152.55310
1120.0 0.000893 1152.42175 1152.42664
1144.0 0.000874 1152.29614 1152.30090
1181.0 0.000847 1152.17151 1152.17590
1206.0 0.000829 1152.04761 1152.05225
1169.0 0.000855 1151.92432 1151.92920
1143.0 0.000875 1151.80212 1151.80688
1098.0 0.000911 1151.68066 1151.68506
1116.0 0.000896 1151.56018 1151.56470
1149.0 0.000870 1151.44055 1151.44519
1133.0 0.000883 1151.32166 1151.32629
1127.0 0.000887 1151.20349 1151.20813
1115.0 0.000897 1151.08716 1151.09070
1193.0 0.000838 1150.97034 1150.97510
1177.0 0.000850 1150.85535 1150.85925
1207.0 0.000829 1150.74072 1150.74512
1155.0 0.000866 1150.62683 1150.63135
1116.0 0.000896 1150.51428 1150.51843
1137.0 0.000880 1150.40234 1150.40625
1184.0 0.000845 1150.29102 1150.29553
1148.0 0.000871 1150.18140 1150.18518
1137.0 0.000880 1150.07178 1150.07605
1177.0 0.000850 1149.96326 1149.96765
1165.0 0.000858 1149.85571 1149.85999
1133.0 0.000883 1149.74915 1149.75317
1132.0 0.000883 1149.64319 1149.64771
1106.0 0.000904 1149.53833 1149.54224
1113.0 0.000898 1149.43457 1149.43823
1156.0 0.000865 1149.33105 1149.33557
1150.0 0.000870 1149.22900 1149.23291
1150.0 0.000870 1149.12781 1149.13196
1190.0 0.000840 1149.02759 1149.03113
1172.0 0.000853 1148.92725 1148.93140
1181.0 0.000847 1148.82861 1148.83264
1230.0 0.000813 1148.73096 1148.73462
1217.0 0.000822 1148.63403 1148.63818
1174.0 0.000852 1148.53784 1148.54199
1155.0 0.000866 1148.44275 1148.44653
1148.0 0.000871 1148.34839 1148.35254
1153.0 0.000867 1148.25537 1148.25916
1129.0 0.000886 1148.16260 1148.16638
1120.0 0.000893 1148.07117 1148.07483
1131.0 0.000884 1147.98047 1147.98401
1167.0 0.000857 1147.89050 1147.89429
1181.0 0.000847 1147.80188 1147.80579
1199.0 0.000834 1147.71375 1147.71716
1148.0 0.000871 1147.62695 1147.63013
1142.0 0.000876 1147.54041 1147.54395
1177.0 0.000850 1147.45532 1147.45862
1192.0 0.000839 1147.37061 1147.37390
1169.0 0.000855 1147.28687 1147.29065
1183.0 0.000845 1147.20422 1147.20764
1197.0 0.000835 1147.12256 1147.12585
1206.0 0.000829 1147.04150 1147.04517
1192.0 0.000839 1146.96179 1146.96497
1202.0 0.000832 1146.88281 1146.88574
1195.0 0.000837 1146.80457 1146.80725
1153.0 0.000867 1146.72717 1146.73035
1148.0 0.000871 1146.65076 1146.65369
1137.0 0.000880 1146.57520 1146.57800
1149.0 0.000870 1146.50037 1146.50366
1150.0 0.000870 1146.42639 1146.42957
1135.0 0.000881 1146.35388 1146.35681
1102.0 0.000907 1146.28149 1146.28455
1106.0 0.000904 1146.21057 1146.21362
1157.0 0.000864 1146.14038 1146.14368
1154.0 0.000867 1146.07104 1146.07397
1147.0 0.000872 1146.00256 1146.00537
1126.0 0.000888 1145.93506 1145.93762
1159.0 0.000863 1145.86816 1145.87109
1121.0 0.000892 1145.80273 1145.80542
1095.0 0.000913 1145.73718 1145.73975
1132.0 0.000883 1145.67358 1145.67627
1160.0 0.000862 1145.61023 1145.61279
1126.0 0.000888 1145.54810 1145.55029
1151.0 0.000869 1145.48645 1145.48914
1189.0 0.000841 1145.42578 1145.42847
1203.0 0.000831 1145.36633 1145.36853
1232.0 0.000812 1145.30750 1145.30969
1209.0 0.000827 1145.24951 1145.25171
1180.0 0.000847 1145.19214 1145.19434
1154.0 0.000867 1145.13586 1145.13818
1144.0 0.000874 1145.08044 1145.08276
1151.0 0.000869 1145.02600 1145.02832
1176.0 0.000850 1144.97253 1144.97461
1133.0 0.000883 1144.91956 1144.92151
1120.0 0.000893 1144.86768 1144.86975
1154.0 0.000867 1144.81653 1144.81836
1201.0 0.000833 1144.76648 1144.76868
1148.0 0.000871 1144.71729 1144.71863
1171.0 0.000854 1144.66870 1144.67041
1114.0 0.000898 1144.62097 1144.62268
1140.0 0.000877 1144.57361 1144.57568
1159.0 0.000863 1144.52771 1144.52954
1117.0 0.000895 1144.48279 1144.48486
1125.0 0.000889 1144.43860 1144.43994
1088.0 0.000919 1144.39551 1144.39648
1130.0 0.000885 1144.35266 1144.35388
1136.0 0.000880 1144.31055 1144.31201
1131.0 0.000884 1144.26978 1144.27112
1113.0 0.000898 1144.22986 1144.23059
1107.0 0.000903 1144.19031 1144.19153
1132.0 0.000883 1144.15222 1144.15332
1164.0 0.000859 1144.11401 1144.11560
1175.0 0.000851 1144.07703 1144.07861
1231.0 0.000812 1144.04138 1144.04285
1202.0 0.000832 1144.00598 1144.00745
1106.0 0.000904 1143.97156 1143.97290
1109.0 0.000902 1143.93811 1143.93909
1111.0 0.000900 1143.90540 1143.90625
1160.0 0.000862 1143.87402 1143.87476
1127.0 0.000887 1143.84253 1143.84314
1109.0 0.000902 1143.81213 1143.81299
1161.0 0.000861 1143.78247 1143.78320
1138.0 0.000879 1143.75427 1143.75439
1103.0 0.000907 1143.72571 1143.72693
1109.0 0.000902 1143.69922 1143.69946
1069.0 0.000935 1143.67273 1143.67322
1091.0 0.000917 1143.64697 1143.64758
1115.0 0.000897 1143.62207 1143.62292
1079.0 0.000927 1143.59814 1143.59875
1137.0 0.000880 1143.57520 1143.57581
1159.0 0.000863 1143.55225 1143.55322
1188.0 0.000842 1143.53113 1143.53162
1183.0 0.000845 1143.51025 1143.51062
1140.0 0.000877 1143.48987 1143.49084
1138.0 0.000879 1143.47058 1143.47083
1160.0 0.000862 1143.45227 1143.45203
1196.0 0.000836 1143.43420 1143.43433
1116.0 0.000896 1143.41724 1143.41736
1086.0 0.000921 1143.40100 1143.40100
1148.0 0.000871 1143.38574 1143.38513
1177.0 0.000850 1143.37109 1143.37073
1181.0 0.000847 1143.35669 1143.35669
1137.0 0.000880 1143.34326 1143.34326
1146.0 0.000873 1143.33057 1143.33081
1182.0 0.000846 1143.31897 1143.31873
1150.0 0.000870 1143.30786 1143.30725
1154.0 0.000867 1143.29724 1143.29700
1147.0 0.000872 1143.28809 1143.28784
1155.0 0.000866 1143.27893 1143.27844
1145.0 0.000873 1143.27100 1143.27063
1096.0 0.000912 1143.26343 1143.26294
1159.0 0.000863 1143.25647 1143.25574
1199.0 0.000834 1143.25073 1143.25024
1169.0 0.000855 1143.24548 1143.24463
1143.0 0.000875 1143.24048 1143.23999
1113.0 0.000898 1143.23645 1143.23584
1122.0 0.000891 1143.23352 1143.23279
1078.0 0.000928 1143.23096 1143.23010
1078.0 0.000928 1143.22913 1143.22839
1130.0 0.000885 1143.22766 1143.22705
1134.0 0.000882 1143.22754 1143.22681
1121.0 0.000892 1143.22778 1143.22717
1114.0 0.000898 1143.22839 1143.22778
1150.0 0.000870 1143.23035 1143.22949
1160.0 0.000862 1143.23254 1143.23132
1137.0 0.000880 1143.23535 1143.23450
1132.0 0.000883 1143.23914 1143.23816
1152.0 0.000868 1143.24353 1143.24219
1164.0 0.000859 1143.24878 1143.24731
1169.0 0.000855 1143.25403 1143.25281
1109.0 0.000902 1143.26025 1143.25903
1108.0 0.000903 1143.26672 1143.26599
1122.0 0.000891 1143.27429 1143.27307
1154.0 0.000867 1143.28271 1143.28162
1179.0 0.000848 1143.29175 1143.29028
1156.0 0.000865 1143.30139 1143.30005
1146.0 0.000873 1143.31104 1143.30994
1147.0 0.000872 1143.32190 1143.32043
1161.0 0.000861 1143.33337 1143.33142
1135.0 0.000881 1143.34521 1143.34399
1144.0 0.000874 1143.35779 1143.35608
1125.0 0.000889 1143.37097 1143.36938
1111.0 0.000900 1143.38452 1143.38306
1137.0 0.000880 1143.39941 1143.39746
1147.0 0.000872 1143.41431 1143.41272
1142.0 0.000876 1143.42993 1143.42847
1110.0 0.000901 1143.44604 1143.44458
1089.0 0.000918 1143.46277 1143.46118
1100.0 0.000909 1143.48035 1143.47852
1148.0 0.000871 1143.49841 1143.49646
1152.0 0.000868 1143.51648 1143.51477
1141.0 0.000876 1143.53589 1143.53418
1148.0 0.000871 1143.55566 1143.55359
1209.0 0.000827 1143.57605 1143.57397
1193.0 0.000838 1143.59692 1143.59509
1147.0 0.000872 1143.61841 1143.61646
1146.0 0.000873 1143.64001 1143.63806
1150.0 0.000870 1143.66309 1143.66064
1143.0 0.000875 1143.68579 1143.68372
1152.0 0.000868 1143.70972 1143.70715
1156.0 0.000865 1143.73315 1143.73145
1140.0 0.000877 1143.75830 1143.75635
1139.0 0.000878 1143.78320 1143.78149
1188.0 0.000842 1143.80920 1143.80737
1157.0 0.000864 1143.83533 1143.83337
1151.0 0.000869 1143.86292 1143.86035
1145.0 0.000873 1143.88965 1143.88745
1152.0 0.000868 1143.91772 1143.91504
1181.0 0.000847 1143.94604 1143.94409
1173.0 0.000853 1143.97498 1143.97290
1164.0 0.000859 1144.00415 1144.00183
1147.0 0.000872 1144.03455 1144.03198
1135.0 0.000881 1144.06433 1144.06201
1160.0 0.000862 1144.09546 1144.09290
1169.0 0.000855 1144.12671 1144.12415
1149.0 0.000870 1144.15869 1144.15637
1129.0 0.000886 1144.19128 1144.18860
1139.0 0.000878 1144.22388 1144.22144
1165.0 0.000858 1144.25708 1144.25452
1168.0 0.000856 1144.29114 1144.28821
1147.0 0.000872 1144.32544 1144.32263
1175.0 0.000851 1144.35986 1144.35742
1152.0 0.000868 1144.39539 1144.39221
1188.0 0.000842 1144.43079 1144.42773
1183.0 0.000845 1144.46692 1144.46423
1158.0 0.000864 1144.50317 1144.50049
1133.0 0.000883 1144.53979 1144.53735
1109.0 0.000902 1144.57751 1144.57458
1113.0 0.000898 1144.61560 1144.61255
1159.0 0.000863 1144.65344 1144.65112
1165.0 0.000858 1144.69226 1144.68933
1163.0 0.000860 1144.73108 1144.72839
1169.0 0.000855 1144.77075 1144.76807
1090.0 0.000917 1144.81091 1144.80786
1123.0 0.000890 1144.85132 1144.84814
1134.0 0.000882 1144.89185 1144.88892
1135.0 0.000881 1144.93298 1144.93042
1110.0 0.000901 1144.97461 1144.97156
1115.0 0.000897 1145.01624 1145.01379
1139.0 0.000878 1145.05872 1145.05566
1154.0 0.000867 1145.10144 1145.09851
1183.0 0.000845 1145.14490 1145.14172
1143.0 0.000875 1145.18823 1145.18506
1151.0 0.000869 1145.23206 1145.22937
1180.0 0.000847 1145.27612 1145.27344
1159.0 0.000863 1145.32104 1145.31787
1155.0 0.000866 1145.36560 1145.36304
1192.0 0.000839 1145.41125 1145.40833
1168.0 0.000856 1145.45715 1145.45374
1157.0 0.000864 1145.50293 1145.49988
1155.0 0.000866 1145.54919 1145.54639
1211.0 0.000826 1145.59619 1145.59290
1221.0 0.000819 1145.64319 1145.64014
1232.0 0.000812 1145.69080 1145.68762
1189.0 0.000841 1145.73804 1145.73499
1190.0 0.000840 1145.78674 1145.78320
1143.0 0.000875 1145.83484 1145.83142
1160.0 0.000862 1145.88342 1145.88049
1159.0 0.000863 1145.93237 1145.92920
1163.0 0.000860 1145.98193 1145.97852
1163.0 0.000860 1146.03149 1146.02844
1125.0 0.000889 1146.08142 1146.07800
1142.0 0.000876 1146.13196 1146.12854
1112.0 0.000899 1146.18225 1146.17871
1105.0 0.000905 1146.23303 1146.22961
1148.0 0.000871 1146.28406 1146.28076
1177.0 0.000850 1146.33545 1146.33228
1129.0 0.000886 1146.38696 1146.38391
1130.0 0.000885 1146.43982 1146.43616
1109.0 0.000902 1146.49121 1146.48828
1108.0 0.000903 1146.54382 1146.54053
1117.0 0.000895 1146.59668 1146.59351
1123.0 0.000890 1146.65015 1146.64624
1116.0 0.000896 1146.70300 1146.69958
1139.0 0.000878 1146.75635 1146.75354
1152.0 0.000868 1146.81018 1146.80713
1172.0 0.000853 1146.86414 1146.86108
1187.0 0.000842 1146.91858 1146.91541
1193.0 0.000838 1146.97314 1146.96985
1146.0 0.000873 1147.02771 1147.02429
1173.0 0.000853 1147.08240 1147.07935
1188.0 0.000842 1147.13855 1147.13464
1146.0 0.000873 1147.19348 1147.19031
1122.0 0.000891 1147.24878 1147.24573
1125.0 0.000889 1147.30530 1147.30188
1150.0 0.000870 1147.36121 1147.35742
1178.0 0.000849 1147.41748 1147.41431
1173.0 0.000853 1147.47400 1147.47034
1201.0 0.000833 1147.53052 1147.52759
1210.0 0.000826 1147.58740 1147.58350
1197.0 0.000835 1147.64453 1147.64136
1159.0 0.000863 1147.70129 1147.69836
1113.0 0.000898 1147.75903 1147.75574
1115.0 0.000897 1147.81653 1147.81335
1116.0 0.000896 1147.87439 1147.87146
1144.0 0.000874 1147.93237 1147.92932
1154.0 0.000867 1147.99048 1147.98767
1154.0 0.000867 1148.04907 1148.04590
1184.0 0.000845 1148.10742 1148.10388
1167.0 0.000857 1148.16614 1148.16272
1152.0 0.000868 1148.22510 1148.22144
1131.0 0.000884 1148.28381 1148.28015
1180.0 0.000847 1148.34229 1148.33972
1222.0 0.000818 1148.40210 1148.39856
1211.0 0.000826 1148.46155 1148.45801
1192.0 0.000839 1148.52112 1148.51746
1158.0 0.000864 1148.58044 1148.57715
1103.0 0.000907 1148.63989 1148.63708
1134.0 0.000882 1148.69983 1148.69678
1172.0 0.000853 1148.76001 1148.75659
1165.0 0.000858 1148.82056 1148.81702
1127.0 0.000887 1148.88049 1148.87708
1129.0 0.000886 1148.94043 1148.93713
1149.0 0.000870 1149.00122 1148.99768
1161.0 0.000861 1149.06152 1149.05835
1115.0 0.000897 1149.12195 1149.11902
1140.0 0.000877 1149.18250 1149.17969
1142.0 0.000876 1149.24377 1149.24023
1120.0 0.000893 1149.30481 1149.30176
1106.0 0.000904 1149.36572 1149.36267
1124.0 0.000890 1149.42676 1149.42334
1132.0 0.000883 1149.48767 1149.48438
1156.0 0.000865 1149.54907 1149.54590
1150.0 0.000870 1149.61011 1149.60742
1156.0 0.000865 1149.67175 1149.66858
1127.0 0.000887 1149.73291 1149.72998
1102.0 0.000907 1149.79431 1149.79150
1109.0 0.000902 1149.85583 1149.85291
1147.0 0.000872 1149.91760 1149.91467
1124.0 0.000890 1149.97937 1149.97607
1166.0 0.000858 1150.04041 1150.03809
1137.0 0.000880 1150.10254 1150.09973
1122.0 0.000891 1150.16431 1150.16162
1128.0 0.000887 1150.22644 1150.22327
1173.0 0.000853 1150.28796 1150.28491
1171.0 0.000854 1150.34985 1150.34717
1162.0 0.000861 1150.41162 1150.40881
1163.0 0.000860 1150.47339 1150.47083
1188.0 0.000842 1150.53528 1150.53271
1145.0 0.000873 1150.59717 1150.59436
1126.0 0.000888 1150.65918 1150.65625
1154.0 0.000867 1150.72107 1150.71814
1156.0 0.000865 1150.78296 1150.78040
1157.0 0.000864 1150.84473 1150.84229
1148.0 0.000871 1150.90710 1150.90405
1137.0 0.000880 1150.96899 1150.96619
1131.0 0.000884 1151.03088 1151.02783
1160.0 0.000862 1151.09277 1151.08984
1137.0 0.000880 1151.15479 1151.15186
1157.0 0.000864 1151.21631 1151.21399
1167.0 0.000857 1151.27795 1151.27563
1115.0 0.000897 1151.34045 1151.33716
1096.0 0.000912 1151.40210 1151.39917
1178.0 0.000849 1151.46375 1151.46094
1170.0 0.000855 1151.52539 1151.52332
1158.0 0.000864 1151.58728 1151.58435
1134.0 0.000882 1151.64893 1151.64587
1119.0 0.000894 1151.71033 1151.70801
1129.0 0.000886 1151.77161 1151.76941
1138.0 0.000879 1151.83313 1151.83105
1131.0 0.000884 1151.89453 1151.89233
1131.0 0.000884 1151.95605 1151.95374
1158.0 0.000864 1152.01758 1152.01477
1202.0 0.000832 1152.07874 1152.07642
1178.0 0.000849 1152.14038 1152.13733
1141.0 0.000876 1152.20117 1152.19849
1150.0 0.000870 1152.26196 1152.25964
1194.0 0.000838 1152.32336 1152.32129
1176.0 0.000850 1152.38354 1152.38171
1144.0 0.000874 1152.44446 1152.44214
1172.0 0.000853 1152.50562 1152.50330
1162.0 0.000861 1152.56641 1152.56384
1149.0 0.000870 1152.62622 1152.62427
1136.0 0.000880 1152.68738 1152.68481
1147.0 0.000872 1152.74756 1152.74500
1139.0 0.000878 1152.80774 1152.80518
1136.0 0.000880 1152.86780 1152.86597
1136.0 0.000880 1152.92773 1152.92590
1152.0 0.000868 1152.98767 1152.98560
1168.0 0.000856 1153.04749 1153.04590
1155.0 0.000866 1153.10742 1153.10510
1117.0 0.000895 1153.16711 1153.16516
1097.0 0.000912 1153.22607 1153.22437
1141.0 0.000876 1153.28564 1153.28345
1155.0 0.000866 1153.34485 1153.34338
1158.0 0.000864 1153.40417 1153.40222
1202.0 0.000832 1153.46301 1153.46094
1212.0 0.000825 1153.52173 1153.52002
1204.0 0.000831 1153.58044 1153.57874
1188.0 0.000842 1153.63892 1153.63770
1180.0 0.000847 1153.69727 1153.69531
1223.0 0.000818 1153.75586 1153.75378
1192.0 0.000839 1153.81384 1153.81201
1157.0 0.000864 1153.87158 1153.87012
1156.0 0.000865 1153.92957 1153.92761
1164.0 0.000859 1153.98730 1153.98572
1234.0 0.000810 1154.04419 1154.04272
1182.0 0.000846 1154.10193 1154.10046
1182.0 0.000846 1154.15906 1154.15771
1156.0 0.000865 1154.21606 1154.21448
1112.0 0.000899 1154.27271 1154.27112
1173.0 0.000853 1154.32947 1154.32813
1160.0 0.000862 1154.38586 1154.38452
1226.0 0.000816 1154.44214 1154.44067
1192.0 0.000839 1154.49878 1154.49719
1180.0 0.000847 1154.55432 1154.55298
1203.0 0.000831 1154.60999 1154.60840
1150.0 0.000870 1154.66516 1154.66406
1165.0 0.000858 1154.72070 1154.71997
1129.0 0.000886 1154.77649 1154.77454
1148.0 0.000871 1154.83105 1154.82959
1181.0 0.000847 1154.88611 1154.88416
1163.0 0.000860 1154.94006 1154.93909
1148.0 0.000871 1154.99475 1154.99390
1104.0 0.000906 1155.04883 1155.04761
1091.0 0.000917 1155.10278 1155.10144
1122.0 0.000891 1155.15625 1155.15552
1113.0 0.000898 1155.20984 1155.20874
1161.0 0.000861 1155.26306 1155.26184
1143.0 0.000875 1155.31665 1155.31567
1165.0 0.000858 1155.36951 1155.36841
1129.0 0.000886 1155.42200 1155.42102
1133.0 0.000883 1155.47437 1155.47327
1165.0 0.000858 1155.52649 1155.52551
1191.0 0.000840 1155.57825 1155.57776
1187.0 0.000842 1155.63037 1155.62952
1182.0 0.000846 1155.68176 1155.68115
1126.0 0.000888 1155.73340 1155.73254
1107.0 0.000903 1155.78357 1155.78357
1104.0 0.000906 1155.83533 1155.83472
1131.0 0.000884 1155.88525 1155.88477
1134.0 0.000882 1155.93591 1155.93494
1133.0 0.000883 1155.98584 1155.98547
1149.0 0.000870 1156.03564 1156.03503
1115.0 0.000897 1156.08521 1156.08472
1119.0 0.000894 1156.13489 1156.13379
1125.0 0.000889 1156.18372 1156.18274
1148.0 0.000871 1156.23230 1156.23206
1123.0 0.000890 1156.28101 1156.28076
1147.0 0.000872 1156.32947 1156.32910
1162.0 0.000861 1156.37732 1156.37695
1156.0 0.000865 1156.42493 1156.42493
1161.0 0.000861 1156.47229 1156.47217
1146.0 0.000873 1156.51965 1156.51978
1163.0 0.000860 1156.56677 1156.56665
1190.0 0.000840 1156.61328 1156.61304
1162.0 0.000861 1156.66003 1156.65955
1162.0 0.000861 1156.70618 1156.70569
1151.0 0.000869 1156.75195 1156.75183
1178.0 0.000849 1156.79749 1156.79736
1185.0 0.000844 1156.84277 1156.84277
1176.0 0.000850 1156.88770 1156.88757
1211.0 0.000826 1156.93225 1156.93225
1168.0 0.000856 1156.97681 1156.97681
1184.0 0.000845 1157.02087 1157.02075
1176.0 0.000850 1157.06494 1157.06494
1130.0 0.000885 1157.10828 1157.10840
1130.0 0.000885 1157.15173 1157.15186
1193.0 0.000838 1157.19470 1157.19495
1192.0 0.000839 1157.23743 1157.23730
1182.0 0.000846 1157.27954 1157.27942
1161.0 0.000861 1157.32153 1157.32166
1145.0 0.000873 1157.36328 1157.36353
1138.0 0.000879 1157.40454 1157.40527
1151.0 0.000869 1157.44617 1157.44629
1158.0 0.000864 1157.48718 1157.48743
1198.0 0.000835 1157.52698 1157.52759
1161.0 0.000861 1157.56750 1157.56763
1187.0 0.000842 1157.60767 1157.60754
1200.0 0.000833 1157.64697 1157.64746
1177.0 0.000850 1157.68652 1157.68628
1223.0 0.000818 1157.72534 1157.72559
1160.0 0.000862 1157.76379 1157.76465
1149.0 0.000870 1157.80188 1157.80273
1150.0 0.000870 1157.84009 1157.84106
1172.0 0.000853 1157.87793 1157.87842
1145.0 0.000873 1157.91516 1157.91602
1169.0 0.000855 1157.95227 1157.95264
1174.0 0.000852 1157.98889 1157.98950
1125.0 0.000889 1158.02527 1158.02612
1182.0 0.000846 1158.06116 1158.06189
1218.0 0.000821 1158.09668 1158.09753
1177.0 0.000850 1158.13196 1158.13306
1158.0 0.000864 1158.16724 1158.16797
1143.0 0.000875 1158.20154 1158.20264
1166.0 0.000858 1158.23547 1158.23694
1167.0 0.000857 1158.27014 1158.27112
1133.0 0.000883 1158.30359 1158.30457
1142.0 0.000876 1158.33679 1158.33826
1175.0 0.000851 1158.36963 1158.37097
1176.0 0.000850 1158.40234 1158.40369
1150.0 0.000870 1158.43481 1158.43604
1145.0 0.000873 1158.46667 1158.46802
1156.0 0.000865 1158.49792 1158.49927
1156.0 0.000865 1158.52979 1158.53076
1137.0 0.000880 1158.56042 1158.56189
1131.0 0.000884 1158.59082 1158.59253
1128.0 0.000887 1158.62097 1158.62256
1140.0 0.000877 1158.65125 1158.65210
1153.0 0.000867 1158.68042 1158.68127
1165.0 0.000858 1158.70959 1158.71106
1189.0 0.000841 1158.73792 1158.73975
1173.0 0.000853 1158.76648 1158.76782
1173.0 0.000853 1158.79468 1158.79602
1187.0 0.000842 1158.82202 1158.82361
1189.0 0.000841 1158.84949 1158.85107
1189.0 0.000841 1158.87610 1158.87830
1167.0 0.000857 1158.90308 1158.90466
1137.0 0.000880 1158.92920 1158.93103
1114.0 0.000898 1158.95520 1158.95691
1136.0 0.000880 1158.98047 1158.98230
1170.0 0.000855 1159.00549 1159.00720
1133.0 0.000883 1159.03052 1159.03198
1127.0 0.000887 1159.05444 1159.05640
1137.0 0.000880 1159.07874 1159.08081
1134.0 0.000882 1159.10229 1159.10413
1187.0 0.000842 1159.12524 1159.12732
1170.0 0.000855 1159.14844 1159.15039
1157.0 0.000864 1159.17065 1159.17261
1212.0 0.000825 1159.19299 1159.19482
1183.0 0.000845 1159.21448 1159.21631
1134.0 0.000882 1159.23596 1159.23779
1156.0 0.000865 1159.25696 1159.25928
1154.0 0.000867 1159.27747 1159.27942
1125.0 0.000889 1159.29773 1159.30017
1145.0 0.000873 1159.31738 1159.31995
1190.0 0.000840 1159.33691 1159.33960
1159.0 0.000863 1159.35632 1159.35852
1152.0 0.000868 1159.37512 1159.37720
1152.0 0.000868 1159.39343 1159.39502
1161.0 0.000861 1159.41077 1159.41321
1208.0 0.000828 1159.42847 1159.43066
1174.0 0.000852 1159.44580 1159.44775
1190.0 0.000840 1159.46265 1159.46472
1193.0 0.000838 1159.47913 1159.48145
1227.0 0.000815 1159.49512 1159.49756
1195.0 0.000837 1159.51025 1159.51257
1147.0 0.000872 1159.52551 1159.52820
1171.0 0.000854 1159.54041 1159.54309
1192.0 0.000839 1159.55493 1159.55725
1188.0 0.000842 1159.56885 1159.57153
1212.0 0.000825 1159.58252 1159.58472
1199.0 0.000834 1159.59583 1159.59827
1158.0 0.000864 1159.60876 1159.61121
1171.0 0.000854 1159.62109 1159.62390
1167.0 0.000857 1159.63318 1159.63586
1144.0 0.000874 1159.64514 1159.64771
1142.0 0.000876 1159.65637 1159.65894
1156.0 0.000865 1159.66724 1159.67004
1144.0 0.000874 1159.67786 1159.67969
1139.0 0.000878 1159.68762 1159.69067
1156.0 0.000865 1159.69800 1159.70007
1174.0 0.000852 1159.70691 1159.70972
1158.0 0.000864 1159.71594 1159.71826
1182.0 0.000846 1159.72412 1159.72681
1182.0 0.000846 1159.73242 1159.73523
1167.0 0.000857 1159.74023 1159.74304
1181.0 0.000847 1159.74805 1159.75024
1184.0 0.000845 1159.75427 1159.75732
1146.0 0.000873 1159.76074 1159.76392
1123.0 0.000890 1159.76709 1159.77014
1144.0 0.000874 1159.77258 1159.77551
1109.0 0.000902 1159.77808 1159.78113
1118.0 0.000894 1159.78284 1159.78577
1091.0 0.000917 1159.78760 1159.79053
1093.0 0.000915 1159.79187 1159.79480
1133.0 0.000883 1159.79553 1159.79834
1121.0 0.000892 1159.79871 1159.80164
1131.0 0.000884 1159.80151 1159.80469
1131.0 0.000884 1159.80420 1159.80725
1166.0 0.000858 1159.80652 1159.80920
1158.0 0.000864 1159.80835 1159.81128
1140.0 0.000877 1159.80945 1159.81226
1120.0 0.000893 1159.81030 1159.81348
1132.0 0.000883 1159.81091 1159.81372
1109.0 0.000902 1159.81116 1159.81421
1140.0 0.000877 1159.81091 1159.81396
1150.0 0.000870 1159.81030 1159.81335
1161.0 0.000861 1159.80872 1159.81213
1148.0 0.000871 1159.80750 1159.81091
1160.0 0.000862 1159.80566 1159.80884
1166.0 0.000858 1159.80322 1159.80676
1153.0 0.000867 1159.80054 1159.80359
1179.0 0.000848 1159.79736 1159.80066
1127.0 0.000887 1159.79395 1159.79700
1119.0 0.000894 1159.79004 1159.79333
1126.0 0.000888 1159.78589 1159.78906
1106.0 0.000904 1159.78101 1159.78406
1097.0 0.000912 1159.77600 1159.77954
1106.0 0.000904 1159.77039 1159.77393
1116.0 0.000896 1159.76440 1159.76831
1145.0 0.000873 1159.75818 1159.76172
1115.0 0.000897 1159.75159 1159.75513
1134.0 0.000882 1159.74426 1159.74780
1167.0 0.000857 1159.73682 1159.74036
1162.0 0.000861 1159.72876 1159.73206
1152.0 0.000868 1159.72070 1159.72412
1146.0 0.000873 1159.71204 1159.71558
1170.0 0.000855 1159.70251 1159.70630
1158.0 0.000864 1159.69324 1159.69666
1161.0 0.000861 1159.68347 1159.68689
1149.0 0.000870 1159.67322 1159.67639
1148.0 0.000871 1159.66223 1159.66589
1155.0 0.000866 1159.65100 1159.65466
1193.0 0.000838 1159.63953 1159.64331
1204.0 0.000831 1159.62769 1159.63110
1182.0 0.000846 1159.61523 1159.61914
1196.0 0.000836 1159.60266 1159.60645
1150.0 0.000870 1159.58960 1159.59314
1145.0 0.000873 1159.57581 1159.57983
1187.0 0.000842 1159.56226 1159.56567
1184.0 0.000845 1159.54797 1159.55188
1188.0 0.000842 1159.53345 1159.53687
1190.0 0.000840 1159.51831 1159.52173
1209.0 0.000827 1159.50281 1159.50610
1163.0 0.000860 1159.48694 1159.49048
1147.0 0.000872 1159.47046 1159.47424
1149.0 0.000870 1159.45361 1159.45752
1143.0 0.000875 1159.43652 1159.44067
1186.0 0.000843 1159.41919 1159.42310
1161.0 0.000861 1159.40125 1159.40503
1163.0 0.000860 1159.38318 1159.38684
1176.0 0.000850 1159.36450 1159.36829
1135.0 0.000881 1159.34521 1159.34900
1080.0 0.000926 1159.32593 1159.32971
1103.0 0.000907 1159.30591 1159.30981
1158.0 0.000864 1159.28577 1159.28967
1154.0 0.000867 1159.26514 1159.26892
1181.0 0.000847 1159.24402 1159.24829
1132.0 0.000883 1159.22266 1159.22705
1147.0 0.000872 1159.20117 1159.20483
1149.0 0.000870 1159.17932 1159.18286
1157.0 0.000864 1159.15601 1159.16052
1170.0 0.000855 1159.13342 1159.13721
1197.0 0.000835 1159.11035 1159.11389
1220.0 0.000820 1159.08643 1159.09045
1216.0 0.000822 1159.06226 1159.06616
1163.0 0.000860 1159.03748 1159.04150
1171.0 0.000854 1159.01306 1159.01648
1162.0 0.000861 1158.98730 1158.99207
1162.0 0.000861 1158.96204 1158.96582
1169.0 0.000855 1158.93591 1158.93945
1121.0 0.000892 1158.90979 1158.91370
1132.0 0.000883 1158.88281 1158.88672
1148.0 0.000871 1158.85559 1158.85938
1166.0 0.000858 1158.82788 1158.83240
1178.0 0.000849 1158.79993 1158.80432
1167.0 0.000857 1158.77185 1158.77600
1139.0 0.000878 1158.74329 1158.74744
1137.0 0.000880 1158.71423 1158.71802
1130.0 0.000885 1158.68445 1158.68872
1119.0 0.000894 1158.65454 1158.65906
1144.0 0.000874 1158.62439 1158.62903
1154.0 0.000867 1158.59387 1158.59814
1174.0 0.000852 1158.56311 1158.56702
1150.0 0.000870 1158.53162 1158.53577
1132.0 0.000883 1158.50024 1158.50391
1192.0 0.000839 1158.46814 1158.47229
1191.0 0.000840 1158.43518 1158.43982
1173.0 0.000853 1158.40259 1158.40686
1183.0 0.000845 1158.36975 1158.37390
1231.0 0.000812 1158.33569 1158.33984
1172.0 0.000853 1158.30212 1158.30627
1132.0 0.000883 1158.26807 1158.27209
1132.0 0.000883 1158.23315 1158.23755
1183.0 0.000845 1158.19812 1158.20239
1210.0 0.000826 1158.16284 1158.16675
1201.0 0.000833 1158.12671 1158.13110
1171.0 0.000854 1158.09094 1158.09509
1134.0 0.000882 1158.05457 1158.05896
1181.0 0.000847 1158.01782 1158.02197
1133.0 0.000883 1157.98108 1157.98450
1146.0 0.000873 1157.94312 1157.94690
1126.0 0.000888 1157.90576 1157.90918
1126.0 0.000888 1157.86670 1157.87122
1164.0 0.000859 1157.82849 1157.83240
1166.0 0.000858 1157.78931 1157.79358
1148.0 0.000871 1157.75012 1157.75427
1129.0 0.000886 1157.71021 1157.71436
1111.0 0.000900 1157.67017 1157.67432
1128.0 0.000887 1157.63000 1157.63428
1190.0 0.000840 1157.58887 1157.59314
1196.0 0.000836 1157.54871 1157.55188
1198.0 0.000835 1157.50696 1157.51074
1198.0 0.000835 1157.46533 1157.46887
1191.0 0.000840 1157.42297 1157.42688
1183.0 0.000845 1157.38074 1157.38464
1127.0 0.000887 1157.33752 1157.34192
1104.0 0.000906 1157.29443 1157.29834
1179.0 0.000848 1157.25110 1157.25513
1164.0 0.000859 1157.20715 1157.21118
1135.0 0.000881 1157.16309 1157.16748
1176.0 0.000850 1157.11853 1157.12244
1178.0 0.000849 1157.07373 1157.07739
1186.0 0.000843 1157.02832 1157.03223
1140.0 0.000877 1156.98315 1156.98706
1132.0 0.000883 1156.93713 1156.94128
1208.0 0.000828 1156.89075 1156.89514
1264.0 0.000791 1156.84436 1156.84839
1191.0 0.000840 1156.79749 1156.80151
1128.0 0.000887 1156.75000 1156.75415
1136.0 0.000880 1156.70276 1156.70691
1172.0 0.000853 1156.65503 1156.65894
1211.0 0.000826 1156.60669 1156.61108
1145.0 0.000873 1156.55823 1156.56189
1152.0 0.000868 1156.50928 1156.51331
1148.0 0.000871 1156.46021 1156.46411
1117.0 0.000895 1156.41040 1156.41455
1160.0 0.000862 1156.36072 1156.36450
1165.0 0.000858 1156.31091 1156.31494
1175.0 0.000851 1156.26050 1156.26453
1124.0 0.000890 1156.20959 1156.21301
1142.0 0.000876 1156.15857 1156.16248
1130.0 0.000885 1156.10718 1156.11096
1099.0 0.000910 1156.05530 1156.05908
1121.0 0.000892 1156.00354 1156.00745
1182.0 0.000846 1155.95129 1155.95471
1158.0 0.000864 1155.89856 1155.90210
1092.0 0.000916 1155.84546 1155.84912
1096.0 0.000912 1155.79199 1155.79590
1116.0 0.000896 1155.73865 1155.74231
1162.0 0.000861 1155.68494 1155.68860
1137.0 0.000880 1155.63062 1155.63452
1157.0 0.000864 1155.57568 1155.57971
1154.0 0.000867 1155.52136 1155.52490
1141.0 0.000876 1155.46582 1155.46997
1156.0 0.000865 1155.41052 1155.41418
1153.0 0.000867 1155.35474 1155.35852
1112.0 0.000899 1155.29907 1155.30286
1120.0 0.000893 1155.24292 1155.24622
1131.0 0.000884 1155.18616 1155.18945
1140.0 0.000877 1155.12915 1155.13257
1159.0 0.000863 1155.07190 1155.07593
1139.0 0.000878 1155.01477 1155.01807
1111.0 0.000900 1154.95667 1154.96057
1116.0 0.000896 1154.89893 1154.90234
1093.0 0.000915 1154.84033 1154.84424
1080.0 0.000926 1154.78174 1154.78540
1099.0 0.000910 1154.72302 1154.72656
1139.0 0.000878 1154.66382 1154.66760
1139.0 0.000878 1154.60425 1154.60767
1137.0 0.000880 1154.54456 1154.54785
1148.0 0.000871 1154.48450 1154.48792
1163.0 0.000860 1154.42407 1154.42725
1159.0 0.000863 1154.36340 1154.36719
1121.0 0.000892 1154.30273 1154.30615
1169.0 0.000855 1154.24133 1154.24475
1162.0 0.000861 1154.17993 1154.18335
1142.0 0.000876 1154.11804 1154.12207
1162.0 0.000861 1154.05627 1154.05981
1172.0 0.000853 1153.99426 1153.99780
1174.0 0.000852 1153.93164 1153.93506
1159.0 0.000863 1153.86902 1153.87244
1152.0 0.000868 1153.80579 1153.80896
1163.0 0.000860 1153.74231 1153.74609
1152.0 0.000868 1153.67920 1153.68237
1141.0 0.000876 1153.61475 1153.61841
1144.0 0.000874 1153.55103 1153.55408
1178.0 0.000849 1153.48657 1153.48975
1224.0 0.000817 1153.42200 1153.42542
1169.0 0.000855 1153.35730 1153.36047
1128.0 0.000887 1153.29187 1153.29541
1104.0 0.000906 1153.22656 1153.22998
1116.0 0.000896 1153.16113 1153.16467
1095.0 0.000913 1153.09546 1153.09839
1125.0 0.000889 1153.02917 1153.03235
1137.0 0.000880 1152.96277 1152.96594
1148.0 0.000871 1152.89600 1152.89941
1152.0 0.000868 1152.82922 1152.83276
1141.0 0.000876 1152.76184 1152.76563
1170.0 0.000855 1152.69495 1152.69788
1218.0 0.000821 1152.62708 1152.63000
1199.0 0.000834 1152.55945 1152.56201
1231.0 0.000812 1152.49109 1152.49438
1207.0 0.000829 1152.42297 1152.42627
1226.0 0.000816 1152.35425 1152.35754
1195.0 0.000837 1152.28577 1152.28894
1144.0 0.000874 1152.21667 1152.21985
1164.0 0.000859 1152.14722 1152.15039
1172.0 0.000853 1152.07825 1152.08081
1176.0 0.000850 1152.00806 1152.01123
1156.0 0.000865 1151.93811 1151.94141
1121.0 0.000892 1151.86816 1151.87109
1153.0 0.000867 1151.79785 1151.80103
1095.0 0.000913 1151.72729 1151.73010
1096.0 0.000912 1151.65662 1151.65955
1134.0 0.000882 1151.58521 1151.58813
1110.0 0.000901 1151.51416 1151.51697
1113.0 0.000898 1151.44287 1151.44580
1120.0 0.000893 1151.37134 1151.37354
1107.0 0.000903 1151.29907 1151.30164
1119.0 0.000894 1151.22668 1151.22998
1137.0 0.000880 1151.15442 1151.15747
1149.0 0.000870 1151.08203 1151.08472
1140.0 0.000877 1151.00928 1151.01196
1133.0 0.000883 1150.93640 1150.93896
1148.0 0.000871 1150.86304 1150.86560
1127.0 0.000887 1150.78967 1150.79272
1119.0 0.000894 1150.71619 1150.71912
1147.0 0.000872 1150.64209 1150.64514
1133.0 0.000883 1150.56824 1150.57092
1102.0 0.000907 1150.49438 1150.49695
1103.0 0.000907 1150.42004 1150.42236
1128.0 0.000887 1150.34534 1150.34839
1117.0 0.000895 1150.27063 1150.27332
1128.0 0.000887 1150.19568 1150.19824
1125.0 0.000889 1150.12073 1150.12329
1128.0 0.000887 1150.04529 1150.04761
1122.0 0.000891 1149.96985 1149.97229
1129.0 0.000886 1149.89429 1149.89661
1188.0 0.000842 1149.81812 1149.82031
1175.0 0.000851 1149.74207 1149.74451
1184.0 0.000845 1149.66589 1149.66821
1149.0 0.000870 1149.58948 1149.59155
1169.0 0.000855 1149.51282 1149.51514
1140.0 0.000877 1149.43591 1149.43811
1124.0 0.000890 1149.35889 1149.36145
1111.0 0.000900 1149.28235 1149.28430
1123.0 0.000890 1149.20471 1149.20679
1112.0 0.000899 1149.12756 1149.12964
1149.0 0.000870 1149.04919 1149.05151
1183.0 0.000845 1148.97168 1148.97400
1181.0 0.000847 1148.89404 1148.89600
1221.0 0.000819 1148.81567 1148.81750
1184.0 0.000845 1148.73706 1148.73926
1172.0 0.000853 1148.65881 1148.66064
1174.0 0.000852 1148.57996 1148.58215
1142.0 0.000876 1148.50122 1148.50342
1141.0 0.000876 1148.42212 1148.42419
1140.0 0.000877 1148.34351 1148.34497
1147.0 0.000872 1148.26367 1148.26587
1173.0 0.000853 1148.18457 1148.18604
1163.0 0.000860 1148.10474 1148.10669
1163.0 0.000860 1148.02527 1148.02734
1132.0 0.000883 1147.94531 1147.94702
1158.0 0.000864 1147.86536 1147.86682
1154.0 0.000867 1147.78467 1147.78674
1112.0 0.000899 1147.70459 1147.70679
1068.0 0.000936 1147.62427 1147.62598
1124.0 0.000890 1147.54370 1147.54529
1157.0 0.000864 1147.46240 1147.46484
1162.0 0.000861 1147.38184 1147.38391
1178.0 0.000849 1147.30103 1147.30237
1204.0 0.000831 1147.21924 1147.22119
1200.0 0.000833 1147.13806 1147.14001
1170.0 0.000855 1147.05652 1147.05872
1151.0 0.000869 1146.97546 1146.97693
1106.0 0.000904 1146.89331 1146.89551
1135.0 0.000881 1146.81165 1146.81335
1131.0 0.000884 1146.72961 1146.73120
1154.0 0.000867 1146.64771 1146.64917
1214.0 0.000824 1146.56567 1146.56677
1181.0 0.000847 1146.48279 1146.48425
1175.0 0.000851 1146.40051 1146.40210
1169.0 0.000855 1146.31812 1146.31970
1171.0 0.000854 1146.23535 1146.23669
1121.0 0.000892 1146.15259 1146.15369
1176.0 0.000850 1146.06995 1146.07092
1110.0 0.000901 1145.98621 1145.98792
1125.0 0.000889 1145.90320 1145.90491
1120.0 0.000893 1145.81995 1145.82190
1114.0 0.000898 1145.73682 1145.73804
1158.0 0.000864 1145.65295 1145.65454
1225.0 0.000816 1145.56958 1145.57092
1192.0 0.000839 1145.48596 1145.48706
1201.0 0.000833 1145.40173 1145.40308
1169.0 0.000855 1145.31836 1145.31934
1101.0 0.000908 1145.23364 1145.23499
1090.0 0.000917 1145.14954 1145.15076
1091.0 0.000917 1145.06543 1145.06641
1113.0 0.000898 1144.98157 1144.98242
1136.0 0.000880 1144.89722 1144.89807
1116.0 0.000896 1144.81250 1144.81348
1117.0 0.000895 1144.72791 1144.72864
1157.0 0.000864 1144.64307 1144.64380
1171.0 0.000854 1144.55811 1144.55920
1189.0 0.000841 1144.47363 1144.47449
1144.0 0.000874 1144.38831 1144.38916
1150.0 0.000870 1144.30347 1144.30420
1139.0 0.000878 1144.21802 1144.21851
1123.0 0.000890 1144.13257 1144.13379
1131.0 0.000884 1144.04749 1144.04858
1149.0 0.000870 1143.96216 1143.96265
1165.0 0.000858 1143.87659 1143.87720
1151.0 0.000869 1143.79102 1143.79175
1138.0 0.000879 1143.70532 1143.70618
1160.0 0.000862 1143.61951 1143.62061
1165.0 0.000858 1143.53369 1143.53455
1163.0 0.000860 1143.44800 1143.44873
1144.0 0.000874 1143.36206 1143.36267
1197.0 0.000835 1143.27600 1143.27637
1194.0 0.000838 1143.19031 1143.19092
1149.0 0.000870 1143.10400 1143.10449
1119.0 0.000894 1143.01794 1143.01819
1104.0 0.000906 1142.93176 1142.93188
1127.0 0.000887 1142.84521 1142.84558
1094.0 0.000914 1142.75842 1142.75879
1104.0 0.000906 1142.67212 1142.67273
1117.0 0.000895 1142.58569 1142.58594
1109.0 0.000902 1142.49890 1142.49951
1178.0 0.000849 1142.41260 1142.41272
1171.0 0.000854 1142.32593 1142.32617
1165.0 0.000858 1142.23914 1142.23962
1192.0 0.000839 1142.15198 1142.15234
1151.0 0.000869 1142.06531 1142.06555
1113.0 0.000898 1141.97815 1141.97876
1084.0 0.000923 1141.89148 1141.89172
1062.0 0.000942 1141.80469 1141.80469
1102.0 0.000907 1141.71704 1141.71765
1137.0 0.000880 1141.63013 1141.63037
1142.0 0.000876 1141.54309 1141.54321
1138.0 0.000879 1141.45605 1141.45618
1110.0 0.000901 1141.36877 1141.36877
1118.0 0.000894 1141.28198 1141.28198
1081.0 0.000925 1141.19434 1141.19434
1095.0 0.000913 1141.10669 1141.10706
1156.0 0.000865 1141.01965 1141.01978
1155.0 0.000866 1140.93225 1140.93213
1192.0 0.000839 1140.84473 1140.84485
1196.0 0.000836 1140.75732 1140.75745
1155.0 0.000866 1140.67017 1140.66980
1138.0 0.000879 1140.58228 1140.58191
1126.0 0.000888 1140.49512 1140.49451
1106.0 0.000904 1140.40710 1140.40723
1092.0 0.000916 1140.31982 1140.31958
1135.0 0.000881 1140.23193 1140.23145
1147.0 0.000872 1140.14417 1140.14368
1127.0 0.000887 1140.05664 1140.05627
1082.0 0.000924 1139.96851 1139.96863
1098.0 0.000911 1139.88123 1139.88110
1145.0 0.000873 1139.79358 1139.79333
1205.0 0.000830 1139.70569 1139.70532
1198.0 0.000835 1139.61768 1139.61743
1173.0 0.000853 1139.53015 1139.52942
1161.0 0.000861 1139.44226 1139.44189
1158.0 0.000864 1139.35413 1139.35388
1130.0 0.000885 1139.26636 1139.26611
1100.0 0.000909 1139.17908 1139.17847
1114.0 0.000898 1139.09119 1139.09058
1137.0 0.000880 1139.00281 1139.00232
1128.0 0.000887 1138.91516 1138.91479
1146.0 0.000873 1138.82715 1138.82678
1108.0 0.000903 1138.73987 1138.73901
1112.0 0.000899 1138.65210 1138.65112
1112.0 0.000899 1138.56384 1138.56299
1116.0 0.000896 1138.47607 1138.47522
1113.0 0.000898 1138.38794 1138.38721
1126.0 0.000888 1138.30017 1138.29968
1107.0 0.000903 1138.21216 1138.21118
1111.0 0.000900 1138.12500 1138.12354
1106.0 0.000904 1138.03674 1138.03601
1127.0 0.000887 1137.94849 1137.94763
1157.0 0.000864 1137.86121 1137.86035
1178.0 0.000849 1137.77319 1137.77234
1146.0 0.000873 1137.68567 1137.68445
1176.0 0.000850 1137.59766 1137.59668
1111.0 0.000900 1137.50977 1137.50891
1096.0 0.000912 1137.42200 1137.42090
1140.0 0.000877 1137.33435 1137.33313
1147.0 0.000872 1137.24646 1137.24561
1149.0 0.000870 1137.15869 1137.15759
1129.0 0.000886 1137.07104 1137.07019
1126.0 0.000888 1136.98291 1136.98218
1100.0 0.000909 1136.89551 1136.89478
1146.0 0.000873 1136.80786 1136.80676
1183.0 0.000845 1136.72046 1136.71960
1169.0 0.000855 1136.63269 1136.63159
1193.0 0.000838 1136.54492 1136.54370
1170.0 0.000855 1136.45789 1136.45630
1161.0 0.000861 1136.37036 1136.36865
1190.0 0.000840 1136.28259 1136.28076
1178.0 0.000849 1136.19519 1136.19373
1107.0 0.000903 1136.10791 1136.10657
1154.0 0.000867 1136.02014 1136.01892
1080.0 0.000926 1135.93274 1135.93164
1112.0 0.000899 1135.84546 1135.84436
1137.0 0.000880 1135.75818 1135.75696
1156.0 0.000865 1135.67126 1135.66980
1146.0 0.000873 1135.58386 1135.58228
1149.0 0.000870 1135.49609 1135.49524
1121.0 0.000892 1135.40906 1135.40784
1137.0 0.000880 1135.32239 1135.32092
1148.0 0.000871 1135.23535 1135.23352
1153.0 0.000867 1135.14807 1135.14661
1143.0 0.000875 1135.06104 1135.05994
1136.0 0.000880 1134.97412 1134.97266
1153.0 0.000867 1134.88696 1134.88513
1142.0 0.000876 1134.80066 1134.79846
1127.0 0.000887 1134.71338 1134.71191
1124.0 0.000890 1134.62671 1134.62500
1137.0 0.000880 1134.54028 1134.53845
1126.0 0.000888 1134.45325 1134.45105
1115.0 0.000897 1134.36633 1134.36450
1118.0 0.000894 1134.28015 1134.27820
1104.0 0.000906 1134.19385 1134.19165
1117.0 0.000895 1134.10742 1134.10535
1169.0 0.000855 1134.02039 1134.01855
1159.0 0.000863 1133.93408 1133.93225
1127.0 0.000887 1133.84802 1133.84619
1080.0 0.000926 1133.76160 1133.75940
1088.0 0.000919 1133.67542 1133.67407
1111.0 0.000900 1133.58923 1133.58740
1090.0 0.000917 1133.50354 1133.50183
1105.0 0.000905 1133.41699 1133.41541
1117.0 0.000895 1133.33130 1133.32935
1139.0 0.000878 1133.24561 1133.24353
1195.0 0.000837 1133.15991 1133.15759
1153.0 0.000867 1133.07385 1133.07166
1126.0 0.000888 1132.98828 1132.98633
1154.0 0.000867 1132.90247 1132.90063
1166.0 0.000858 1132.81689 1132.81482
1183.0 0.000845 1132.73145 1132.72913
1179.0 0.000848 1132.64612 1132.64355
1173.0 0.000853 1132.56006 1132.55823
1181.0 0.000847 1132.47546 1132.47302
1168.0 0.000856 1132.38989 1132.38794
1132.0 0.000883 1132.30469 1132.30273
1101.0 0.000908 1132.21997 1132.21741
1102.0 0.000907 1132.13464 1132.13245
1137.0 0.000880 1132.04993 1132.04761
1124.0 0.000890 1131.96448 1131.96240
1131.0 0.000884 1131.88000 1131.87793
1149.0 0.000870 1131.79541 1131.79285
1136.0 0.000880 1131.71082 1131.70874
1136.0 0.000880 1131.62634 1131.62390
1111.0 0.000900 1131.54187 1131.53943
1121.0 0.000892 1131.45728 1131.45544
1160.0 0.000862 1131.37280 1131.37061
1122.0 0.000891 1131.28882 1131.28662
1121.0 0.000892 1131.20496 1131.20203
1099.0 0.000910 1131.12061 1131.11829
1105.0 0.000905 1131.03638 1131.03418
1123.0 0.000890 1130.95239 1130.95056
1095.0 0.000913 1130.86890 1130.86633
1103.0 0.000907 1130.78491 1130.78235
1080.0 0.000926 1130.70166 1130.69873
1122.0 0.000891 1130.61792 1130.61523
1098.0 0.000911 1130.53455 1130.53162
1110.0 0.000901 1130.45081 1130.44861
1112.0 0.000899 1130.36780 1130.36536
1153.0 0.000867 1130.28467 1130.28198
1145.0 0.000873 1130.20154 1130.19849
1128.0 0.000887 1130.11829 1130.11536
1129.0 0.000886 1130.03528 1130.03284
1172.0 0.000853 1129.95215 1129.94995
1156.0 0.000865 1129.86975 1129.86694
1119.0 0.000894 1129.78711 1129.78442
1114.0 0.000898 1129.70459 1129.70190
1137.0 0.000880 1129.62207 1129.61914
1136.0 0.000880 1129.53955 1129.53699
1146.0 0.000873 1129.45715 1129.45435
1161.0 0.000861 1129.37537 1129.37244
1126.0 0.000888 1129.29272 1129.29053
1152.0 0.000868 1129.21082 1129.20825
1148.0 0.000871 1129.12903 1129.12622
1119.0 0.000894 1129.04736 1129.04443
1120.0 0.000893 1128.96558 1128.96289
1129.0 0.000886 1128.88416 1128.88110
1133.0 0.000883 1128.80237 1128.79944
1096.0 0.000912 1128.72107 1128.71814
1089.0 0.000918 1128.63965 1128.63684
1086.0 0.000921 1128.55872 1128.55566
1108.0 0.000903 1128.47791 1128.47449
1153.0 0.000867 1128.39685 1128.39368
1209.0 0.000827 1128.31580 1128.31299
1230.0 0.000813 1128.23523 1128.23206
1170.0 0.000855 1128.15405 1128.15125
1143.0 0.000875 1128.07385 1128.07080
1144.0 0.000874 1127.99341 1127.99011
1123.0 0.000890 1127.91260 1127.91028
1118.0 0.000894 1127.83264 1127.82959
1116.0 0.000896 1127.75269 1127.74915
1147.0 0.000872 1127.67249 1127.66931
1156.0 0.000865 1127.59241 1127.58948
1157.0 0.000864 1127.51245 1127.50952
1122.0 0.000891 1127.43298 1127.42969
1141.0 0.000876 1127.35339 1127.35022
1115.0 0.000897 1127.27393 1127.27063
1123.0 0.000890 1127.19458 1127.19128
1117.0 0.000895 1127.11523 1127.11255
1091.0 0.000917 1127.03589 1127.03308
1125.0 0.000889 1126.95691 1126.95398
1180.0 0.000847 1126.87805 1126.87524
1145.0 0.000873 1126.79956 1126.79614
1170.0 0.000855 1126.72058 1126.71716
1195.0 0.000837 1126.64185 1126.63892
1171.0 0.000854 1126.56348 1126.56018
1119.0 0.000894 1126.48547 1126.48218
1132.0 0.000883 1126.40710 1126.40381
1108.0 0.000903 1126.32910 1126.32568
1145.0 0.000873 1126.25085 1126.24829
1149.0 0.000870 1126.17310 1126.17017
1161.0 0.000861 1126.09497 1126.09241
1179.0 0.000848 1126.01794 1126.01453
1121.0 0.000892 1125.94019 1125.93689
1124.0 0.000890 1125.86255 1125.85913
1142.0 0.000876 1125.78516 1125.78223
1179.0 0.000848 1125.70813 1125.70508
1208.0 0.000828 1125.63123 1125.62805
1234.0 0.000810 1125.55396 1125.55115
1207.0 0.000829 1125.47766 1125.47437
1157.0 0.000864 1125.40076 1125.39746
1145.0 0.000873 1125.32434 1125.32092
1148.0 0.000871 1125.24756 1125.24426
1160.0 0.000862 1125.17163 1125.16797
1191.0 0.000840 1125.09521 1125.09216
1156.0 0.000865 1125.01904 1125.01563
1113.0 0.000898 1124.94312 1124.93970
1121.0 0.000892 1124.86755 1124.86389
1117.0 0.000895 1124.79150 1124.78809
1089.0 0.000918 1124.71619 1124.71252
1108.0 0.000903 1124.64038 1124.63721
1119.0 0.000894 1124.56506 1124.56165
1129.0 0.000886 1124.48987 1124.48645
1143.0 0.000875 1124.41455 1124.41150
1190.0 0.000840 1124.34009 1124.33655
1205.0 0.000830 1124.26514 1124.26160
1164.0 0.000859 1124.19031 1124.18677
1192.0 0.000839 1124.11560 1124.11230
1164.0 0.000859 1124.04114 1124.03760
1142.0 0.000876 1123.96655 1123.96362
1150.0 0.000870 1123.89258 1123.88892
1176.0 0.000850 1123.81848 1123.81519
1210.0 0.000826 1123.74451 1123.74133
1157.0 0.000864 1123.67090 1123.66711
1146.0 0.000873 1123.59717 1123.59338
1162.0 0.000861 1123.52332 1123.52014
1193.0 0.000838 1123.44983 1123.44617
1180.0 0.000847 1123.37659 1123.37305
1164.0 0.000859 1123.30347 1123.30042
1173.0 0.000853 1123.23035 1123.22668
1143.0 0.000875 1123.15735 1123.15405
1155.0 0.000866 1123.08423 1123.08105
1161.0 0.000861 1123.01135 1123.00830
1147.0 0.000872 1122.93945 1122.93530
1144.0 0.000874 1122.86707 1122.86328
1137.0 0.000880 1122.79456 1122.79102
1120.0 0.000893 1122.72229 1122.71875
1097.0 0.000912 1122.65015 1122.64661
1122.0 0.000891 1122.57800 1122.57471
1155.0 0.000866 1122.50647 1122.50269
1152.0 0.000868 1122.43457 1122.43176
1138.0 0.000879 1122.36316 1122.35962
1131.0 0.000884 1122.29187 1122.28845
1156.0 0.000865 1122.22046 1122.21729
1130.0 0.000885 1122.14941 1122.14587
1110.0 0.000901 1122.07861 1122.07483
1098.0 0.000911 1122.00732 1122.00427
1146.0 0.000873 1121.93677 1121.93323
1141.0 0.000876 1121.86560 1121.86230
1124.0 0.000890 1121.79529 1121.79224
1109.0 0.000902 1121.72534 1121.72168
1120.0 0.000893 1121.65540 1121.65137
1121.0 0.000892 1121.58484 1121.58142
1107.0 0.000903 1121.51489 1121.51147
1140.0 0.000877 1121.44519 1121.44165
1151.0 0.000869 1121.37537 1121.37195
1178.0 0.000849 1121.30554 1121.30212
1162.0 0.000861 1121.23621 1121.23242
1123.0 0.000890 1121.16699 1121.16321
1124.0 0.000890 1121.09790 1121.09424
1119.0 0.000894 1121.02856 1121.02490
1124.0 0.000890 1120.95923 1120.95618
1139.0 0.000878 1120.89087 1120.88721
1159.0 0.000863 1120.82202 1120.81873
1120.0 0.000893 1120.75415 1120.74976
1133.0 0.000883 1120.68506 1120.68152
1110.0 0.000901 1120.61670 1120.61304
1101.0 0.000908 1120.54871 1120.54504
1080.0 0.000926 1120.48059 1120.47693
1090.0 0.000917 1120.41272 1120.40942
1162.0 0.000861 1120.34521 1120.34131
1154.0 0.000867 1120.27710 1120.27356
1160.0 0.000862 1120.20947 1120.20654
1130.0 0.000885 1120.14258 1120.13867
1120.0 0.000893 1120.07544 1120.07129
1130.0 0.000885 1120.00806 1120.00439
1164.0 0.000859 1119.94128 1119.93750
1169.0 0.000855 1119.87378 1119.87061
1149.0 0.000870 1119.80725 1119.80322
1117.0 0.000895 1119.74048 1119.73743
1115.0 0.000897 1119.67419 1119.67126
1117.0 0.000895 1119.60791 1119.60449
1100.0 0.000909 1119.54150 1119.53784
1088.0 0.000919 1119.47534 1119.47192
1094.0 0.000914 1119.40955 1119.40588
1130.0 0.000885 1119.34363 1119.33997
1107.0 0.000903 1119.27808 1119.27441
1091.0 0.000917 1119.21228 1119.20874
1159.0 0.000863 1119.14685 1119.14331
1133.0 0.000883 1119.08154 1119.07825
1129.0 0.000886 1119.01636 1119.01257
1133.0 0.000883 1118.95093 1118.94775
1125.0 0.000889 1118.88623 1118.88281
1128.0 0.000887 1118.82141 1118.81824
1122.0 0.000891 1118.75696 1118.75330
1121.0 0.000892 1118.69177 1118.68835
1114.0 0.000898 1118.62756 1118.62427
1122.0 0.000891 1118.56311 1118.55957
1086.0 0.000921 1118.49902 1118.49573
1091.0 0.000917 1118.43506 1118.43140
1125.0 0.000889 1118.37109 1118.36804
1111.0 0.000900 1118.30750 1118.30396
1126.0 0.000888 1118.24353 1118.24023
1156.0 0.000865 1118.17969 1118.17676
1127.0 0.000887 1118.11670 1118.11304
1117.0 0.000895 1118.05334 1118.05017
1125.0 0.000889 1117.98987 1117.98669
1128.0 0.000887 1117.92688 1117.92346
1113.0 0.000898 1117.86401 1117.86060
1122.0 0.000891 1117.80115 1117.79749
1124.0 0.000890 1117.73804 1117.73499
1104.0 0.000906 1117.67590 1117.67249
1123.0 0.000890 1117.61316 1117.60986
1160.0 0.000862 1117.55115 1117.54785
1152.0 0.000868 1117.48853 1117.48560
1165.0 0.000858 1117.42639 1117.42322
1189.0 0.000841 1117.36462 1117.36145
1195.0 0.000837 1117.30298 1117.29932
1182.0 0.000846 1117.24072 1117.23779
1146.0 0.000873 1117.17920 1117.17603
1127.0 0.000887 1117.11780 1117.11462
1109.0 0.000902 1117.05676 1117.05286
1114.0 0.000898 1116.99548 1116.99207
1144.0 0.000874 1116.93408 1116.93079
1110.0 0.000901 1116.87292 1116.86987
1120.0 0.000893 1116.81250 1116.80896
1114.0 0.000898 1116.75122 1116.74792
1127.0 0.000887 1116.69080 1116.68726
1152.0 0.000868 1116.63000 1116.62695
1142.0 0.000876 1116.56946 1116.56641
1111.0 0.000900 1116.50916 1116.50623
1157.0 0.000864 1116.44910 1116.44580
1156.0 0.000865 1116.38916 1116.38599
1165.0 0.000858 1116.32886 1116.32568
1124.0 0.000890 1116.26941 1116.26575
1114.0 0.000898 1116.20923 1116.20630
1082.0 0.000924 1116.14966 1116.14648
1103.0 0.000907 1116.09033 1116.08704
1115.0 0.000897 1116.03101 1116.02771
1167.0 0.000857 1115.97168 1115.96838
1134.0 0.000882 1115.91223 1115.90930
1124.0 0.000890 1115.85315 1115.85022
1157.0 0.000864 1115.79443 1115.79138
1130.0 0.000885 1115.73535 1115.73242
1119.0 0.000894 1115.67688 1115.67358
1113.0 0.000898 1115.61853 1115.61536
1117.0 0.000895 1115.55969 1115.55640
1133.0 0.000883 1115.50122 1115.49829
1112.0 0.000899 1115.44275 1115.43958
1093.0 0.000915 1115.38440 1115.38159
1101.0 0.000908 1115.32642 1115.32361
1133.0 0.000883 1115.26868 1115.26563
1133.0 0.000883 1115.21069 1115.20752
1093.0 0.000915 1115.15271 1115.14990
1046.0 0.000956 1115.09534 1115.09241
1080.0 0.000926 1115.03784 1115.03479
1131.0 0.000884 1114.98035 1114.97754
1104.0 0.000906 1114.92261 1114.92004
1104.0 0.000906 1114.86572 1114.86279
1081.0 0.000925 1114.80847 1114.80554
1054.0 0.000949 1114.75195 1114.74878
1112.0 0.000899 1114.69458 1114.69177
1149.0 0.000870 1114.63782 1114.63477
1125.0 0.000889 1114.58105 1114.57825
1092.0 0.000916 1114.52441 1114.52173
1093.0 0.000915 1114.46765 1114.46509
1104.0 0.000906 1114.41125 1114.40845
1136.0 0.000880 1114.35498 1114.35205
1123.0 0.000890 1114.29895 1114.29602
1132.0 0.000883 1114.24304 1114.23975
1148.0 0.000871 1114.18640 1114.18408
1108.0 0.000903 1114.13086 1114.12781
1116.0 0.000896 1114.07483 1114.07202
1097.0 0.000912 1114.01880 1114.01660
1100.0 0.000909 1113.96338 1113.96057
1120.0 0.000893 1113.90808 1113.90515
1113.0 0.000898 1113.85278 1113.84998
1126.0 0.000888 1113.79700 1113.79456
1095.0 0.000913 1113.74182 1113.73950
1094.0 0.000914 1113.68677 1113.68408
1079.0 0.000927 1113.63184 1113.62915
1132.0 0.000883 1113.57666 1113.57446
1145.0 0.000873 1113.52173 1113.51941
1119.0 0.000894 1113.46704 1113.46411
1136.0 0.000880 1113.41235 1113.40967
1164.0 0.000859 1113.35767 1113.35522
1112.0 0.000899 1113.30286 1113.30066
1104.0 0.000906 1113.24902 1113.24622
1093.0 0.000915 1113.19470 1113.19165
1089.0 0.000918 1113.14001 1113.13782
1096.0 0.000912 1113.08594 1113.08337
1103.0 0.000907 1113.03198 1113.02917
1098.0 0.000911 1112.97754 1112.97559
1085.0 0.000922 1112.92358 1112.92139
1079.0 0.000927 1112.87024 1112.86768
1115.0 0.000897 1112.81628 1112.81421
1144.0 0.000874 1112.76270 1112.76038
1124.0 0.000890 1112.70898 1112.70679
1110.0 0.000901 1112.65540 1112.65283
1106.0 0.000904 1112.60229 1112.59973
1088.0 0.000919 1112.54895 1112.54639
1112.0 0.000899 1112.49561 1112.49353
1132.0 0.000883 1112.44202 1112.43994
1126.0 0.000888 1112.38916 1112.38733
1156.0 0.000865 1112.33630 1112.33411
1149.0 0.000870 1112.28333 1112.28088
1129.0 0.000886 1112.23035 1112.22815
1123.0 0.000890 1112.17712 1112.17554
1105.0 0.000905 1112.12463 1112.12280
1122.0 0.000891 1112.07227 1112.07007
1118.0 0.000894 1112.01953 1112.01770
1066.0 0.000938 1111.96692 1111.96533
1097.0 0.000912 1111.91443 1111.91284
1131.0 0.000884 1111.86194 1111.86023
1115.0 0.000897 1111.81006 1111.80774
1097.0 0.000912 1111.75781 1111.75574
1079.0 0.000927 1111.70532 1111.70349
1135.0 0.000881 1111.65356 1111.65161
1111.0 0.000900 1111.60144 1111.59961
1120.0 0.000893 1111.54980 1111.54785
1107.0 0.000903 1111.49780 1111.49573
1086.0 0.000921 1111.44617 1111.44397
1085.0 0.000922 1111.39441 1111.39221
1075.0 0.000930 1111.34265 1111.34058
1105.0 0.000905 1111.29102 1111.28931
1125.0 0.000889 1111.23950 1111.23767
1120.0 0.000893 1111.18787 1111.18616
1104.0 0.000906 1111.13660 1111.13452
1087.0 0.000920 1111.08496 1111.08337
1131.0 0.000884 1111.03394 1111.03210
1113.0 0.000898 1110.98267 1110.98083
1126.0 0.000888 1110.93140 1110.92993
1103.0 0.000907 1110.88013 1110.87866
1104.0 0.000906 1110.82898 1110.82788
1139.0 0.000878 1110.77820 1110.77661
1091.0 0.000917 1110.72693 1110.72559
1077.0 0.000929 1110.67664 1110.67480
1094.0 0.000914 1110.62573 1110.62427
1072.0 0.000933 1110.57483 1110.57324
1123.0 0.000890 1110.52368 1110.52246
1103.0 0.000907 1110.47339 1110.47217
1141.0 0.000876 1110.42261 1110.42139
1189.0 0.000841 1110.37219 1110.37097
1165.0 0.000858 1110.32153 1110.32019
1128.0 0.000887 1110.27112 1110.27002
1109.0 0.000902 1110.22070 1110.21948
1105.0 0.000905 1110.17017 1110.16943
1126.0 0.000888 1110.12024 1110.11914
1111.0 0.000900 1110.06995 1110.06848
1115.0 0.000897 1110.01941 1110.01868
1114.0 0.000898 1109.96924 1109.96838
1117.0 0.000895 1109.91956 1109.91846
1131.0 0.000884 1109.86914 1109.86841
1127.0 0.000887 1109.81909 1109.81836
1085.0 0.000922 1109.76892 1109.76794
1087.0 0.000920 1109.71924 1109.71814
1141.0 0.000876 1109.66919 1109.66821
1179.0 0.000848 1109.61963 1109.61841
1125.0 0.000889 1109.56946 1109.56885
1106.0 0.000904 1109.51990 1109.51892
1178.0 0.000849 1109.46997 1109.46875
1163.0 0.000860 1109.42029 1109.41943
1098.0 0.000911 1109.37036 1109.36963
1095.0 0.000913 1109.32104 1109.32007
1136.0 0.000880 1109.27124 1109.27051
1129.0 0.000886 1109.22180 1109.22083
1103.0 0.000907 1109.17224 1109.17102
1085.0 0.000922 1109.12207 1109.12183
1098.0 0.000911 1109.07312 1109.07214
1077.0 0.000929 1109.02380 1109.02271
1077.0 0.000929 1108.97400 1108.97314
1091.0 0.000917 1108.92468 1108.92383
1075.0 0.000930 1108.87537 1108.87451
1119.0 0.000894 1108.82593 1108.82544
1111.0 0.000900 1108.77661 1108.77637
1155.0 0.000866 1108.72729 1108.72656
1142.0 0.000876 1108.67847 1108.67749
1119.0 0.000894 1108.62903 1108.62854
1124.0 0.000890 1108.57947 1108.57935
1148.0 0.000871 1108.53052 1108.53003
1130.0 0.000885 1108.48145 1108.48083
1102.0 0.000907 1108.43237 1108.43152
1133.0 0.000883 1108.38330 1108.38245
1082.0 0.000924 1108.33386 1108.33374
1061.0 0.000943 1108.28479 1108.28406
1093.0 0.000915 1108.23584 1108.23560
1058.0 0.000945 1108.18652 1108.18604
1064.0 0.000940 1108.13745 1108.13721
1085.0 0.000922 1108.08862 1108.08826
1086.0 0.000921 1108.03943 1108.03943
1130.0 0.000885 1107.99072 1107.99023
1144.0 0.000874 1107.94153 1107.94165
1108.0 0.000903 1107.89258 1107.89233
1135.0 0.000881 1107.84351 1107.84363
1116.0 0.000896 1107.79480 1107.79468
1085.0 0.000922 1107.74573 1107.74573
1080.0 0.000926 1107.69702 1107.69641
1071.0 0.000934 1107.64783 1107.64783
1114.0 0.000898 1107.59888 1107.59888
1110.0 0.000901 1107.54968 1107.54956
1110.0 0.000901 1107.50134 1107.50134
1101.0 0.000908 1107.45215 1107.45239
1171.0 0.000854 1107.40344 1107.40308
1149.0 0.000870 1107.35425 1107.35425
1128.0 0.000887 1107.30554 1107.30530
1135.0 0.000881 1107.25659 1107.25623
1088.0 0.000919 1107.20776 1107.20776
1112.0 0.000899 1107.15881 1107.15894
1135.0 0.000881 1107.11011 1107.11023
1133.0 0.000883 1107.06079 1107.06116
1109.0 0.000902 1107.01208 1107.01233
1075.0 0.000930 1106.96313 1106.96350
1114.0 0.000898 1106.91443 1106.91455
1168.0 0.000856 1106.86548 1106.86523
1149.0 0.000870 1106.81677 1106.81653
1078.0 0.000928 1106.76733 1106.76758
1075.0 0.000930 1106.71826 1106.71875
1079.0 0.000927 1106.66931 1106.66980
1061.0 0.000943 1106.62085 1106.62097
1061.0 0.000943 1106.57153 1106.57190
1075.0 0.000930 1106.52234 1106.52295
1108.0 0.000903 1106.47327 1106.47412
1174.0 0.000852 1106.42444 1106.42480
1169.0 0.000855 1106.37585 1106.37634
1115.0 0.000897 1106.32654 1106.32703
1109.0 0.000902 1106.27759 1106.27783
1113.0 0.000898 1106.22839 1106.22876
1101.0 0.000908 1106.17908 1106.17981
1120.0 0.000893 1106.13037 1106.13098
1088.0 0.000919 1106.08093 1106.08167
1091.0 0.000917 1106.03174 1106.03247
1091.0 0.000917 1105.98267 1105.98352
1101.0 0.000908 1105.93396 1105.93420
1110.0 0.000901 1105.88416 1105.88513
1112.0 0.000899 1105.83508 1105.83569
1121.0 0.000892 1105.78589 1105.78687
1106.0 0.000904 1105.73657 1105.73718
1114.0 0.000898 1105.68726 1105.68787
1100.0 0.000909 1105.63782 1105.63867
1090.0 0.000917 1105.58826 1105.58948
1096.0 0.000912 1105.53955 1105.54016
1066.0 0.000938 1105.48975 1105.49060
1095.0 0.000913 1105.44043 1105.44128
1115.0 0.000897 1105.39087 1105.39124
1073.0 0.000932 1105.34094 1105.34229
1111.0 0.000900 1105.29126 1105.29297
1096.0 0.000912 1105.24207 1105.24304
1117.0 0.000895 1105.19214 1105.19348
1116.0 0.000896 1105.14294 1105.14392
1119.0 0.000894 1105.09326 1105.09436
1115.0 0.000897 1105.04346 1105.04456
1118.0 0.000894 1104.99304 1104.99463
1129.0 0.000886 1104.94360 1104.94482
1127.0 0.000887 1104.89380 1104.89502
1135.0 0.000881 1104.84399 1104.84546
1090.0 0.000917 1104.79407 1104.79529
1069.0 0.000935 1104.74390 1104.74536
1076.0 0.000929 1104.69409 1104.69531
1088.0 0.000919 1104.64417 1104.64502
1115.0 0.000897 1104.59412 1104.59534
1103.0 0.000907 1104.54382 1104.54504
1124.0 0.000890 1104.49329 1104.49500
1097.0 0.000912 1104.44287 1104.44470
1089.0 0.000918 1104.39282 1104.39404
1101.0 0.000908 1104.34265 1104.34412
1101.0 0.000908 1104.29211 1104.29346
1139.0 0.000878 1104.24158 1104.24341
1100.0 0.000909 1104.19104 1104.19275
1077.0 0.000929 1104.14075 1104.14233
1102.0 0.000907 1104.09009 1104.09180
1097.0 0.000912 1104.03967 1104.04102
1114.0 0.000898 1103.98865 1103.99048
1115.0 0.000897 1103.93799 1103.93945
1109.0 0.000902 1103.88696 1103.88867
1073.0 0.000932 1103.83594 1103.83777
1113.0 0.000898 1103.78516 1103.78711
1093.0 0.000915 1103.73401 1103.73621
1110.0 0.000901 1103.68298 1103.68494
1102.0 0.000907 1103.63184 1103.63379
1056.0 0.000947 1103.58057 1103.58252
1065.0 0.000939 1103.52954 1103.53149
1067.0 0.000937 1103.47791 1103.48022
1117.0 0.000895 1103.42664 1103.42896
1083.0 0.000923 1103.37549 1103.37720
1066.0 0.000938 1103.32410 1103.32617
1101.0 0.000908 1103.27234 1103.27429
1083.0 0.000923 1103.22046 1103.22278
1077.0 0.000929 1103.16870 1103.17151
1098.0 0.000911 1103.11719 1103.11877
1074.0 0.000931 1103.06482 1103.06738
1046.0 0.000956 1103.01318 1103.01550
1089.0 0.000918 1102.96118 1102.96362
1124.0 0.000890 1102.90930 1102.91150
1096.0 0.000912 1102.85693 1102.85974
1118.0 0.000894 1102.80493 1102.80688
1123.0 0.000890 1102.75232 1102.75464
1096.0 0.000912 1102.69995 1102.70251
1072.0 0.000933 1102.64746 1102.64990
1126.0 0.000888 1102.59521 1102.59753
1098.0 0.000911 1102.54285 1102.54480
1106.0 0.000904 1102.48975 1102.49231
1092.0 0.000916 1102.43677 1102.43970
1066.0 0.000938 1102.38416 1102.38623
1053.0 0.000950 1102.33130 1102.33362
1046.0 0.000956 1102.27771 1102.28040
1073.0 0.000932 1102.22534 1102.22742
1102.0 0.000907 1102.17212 1102.17444
1056.0 0.000947 1102.11890 1102.12134
1020.0 0.000980 1102.06543 1102.06787
1044.0 0.000958 1102.01160 1102.01428
1067.0 0.000937 1101.95837 1101.96082
1080.0 0.000926 1101.90454 1101.90747
1079.0 0.000927 1101.85083 1101.85388
1082.0 0.000924 1101.79712 1101.80029
1062.0 0.000942 1101.74292 1101.74609
1056.0 0.000947 1101.68909 1101.69165
1099.0 0.000910 1101.63513 1101.63770
1051.0 0.000951 1101.58081 1101.58374
1088.0 0.000919 1101.52686 1101.52966
1113.0 0.000898 1101.47241 1101.47522
1109.0 0.000902 1101.41797 1101.42065
1095.0 0.000913 1101.36328 1101.36646
1082.0 0.000924 1101.30872 1101.31189
1112.0 0.000899 1101.25427 1101.25671
1114.0 0.000898 1101.19922 1101.20239
1097.0 0.000912 1101.14441 1101.14697
1055.0 0.000948 1101.08911 1101.09241
1070.0 0.000935 1101.03418 1101.03674
1070.0 0.000935 1100.97900 1100.98206
1076.0 0.000929 1100.92346 1100.92651
1074.0 0.000931 1100.86780 1100.87085
1049.0 0.000953 1100.81201 1100.81531
1060.0 0.000943 1100.75684 1100.76001
1056.0 0.000947 1100.70093 1100.70435
1075.0 0.000930 1100.64490 1100.64807
1101.0 0.000908 1100.58911 1100.59229
1063.0 0.000941 1100.53308 1100.53638
1102.0 0.000907 1100.47668 1100.47998
1132.0 0.000883 1100.42041 1100.42346
1108.0 0.000903 1100.36377 1100.36743
1100.0 0.000909 1100.30701 1100.31091
1046.0 0.000956 1100.25098 1100.25427
1078.0 0.000928 1100.19360 1100.19739
1100.0 0.000909 1100.13684 1100.14026
1085.0 0.000922 1100.08020 1100.08337
1077.0 0.000929 1100.02344 1100.02649
1085.0 0.000922 1099.96558 1099.96936
1076.0 0.000929 1099.90845 1099.91150
1058.0 0.000945 1099.85144 1099.85437
1086.0 0.000921 1099.79333 1099.79663
1109.0 0.000902 1099.73535 1099.73938
1104.0 0.000906 1099.67773 1099.68164
1093.0 0.000915 1099.61975 1099.62390
1076.0 0.000929 1099.56152 1099.56543
1099.0 0.000910 1099.50342 1099.50769
1159.0 0.000863 1099.44507 1099.44922
1119.0 0.000894 1099.38672 1099.39099
1120.0 0.000893 1099.32825 1099.33240
1126.0 0.000888 1099.26941 1099.27332
1075.0 0.000930 1099.21106 1099.21460
1091.0 0.000917 1099.15173 1099.15564
1066.0 0.000938 1099.09290 1099.09680
1065.0 0.000939 1099.03345 1099.03735
1099.0 0.000910 1098.97412 1098.97803
1071.0 0.000934 1098.91467 1098.91870
1064.0 0.000940 1098.85510 1098.85925
1054.0 0.000949 1098.79565 1098.79932
1062.0 0.000942 1098.73547 1098.73999
1095.0 0.000913 1098.67542 1098.67993
1088.0 0.000919 1098.61597 1098.61926
1091.0 0.000917 1098.55542 1098.55933
1076.0 0.000929 1098.49475 1098.49927
1096.0 0.000912 1098.43445 1098.43835
1132.0 0.000883 1098.37354 1098.37817
1119.0 0.000894 1098.31311 1098.31714
1094.0 0.000914 1098.25208 1098.25647
1086.0 0.000921 1098.19116 1098.19531
1076.0 0.000929 1098.12988 1098.13428
1055.0 0.000948 1098.06848 1098.07251
1077.0 0.000929 1098.00684 1098.01184
1102.0 0.000907 1097.94556 1097.94983
1089.0 0.000918 1097.88379 1097.88818
1088.0 0.000919 1097.82190 1097.82605
1057.0 0.000946 1097.75989 1097.76440
1074.0 0.000931 1097.69751 1097.70203
1059.0 0.000944 1097.63525 1097.63989
1012.0 0.000988 1097.57275 1097.57739
1021.0 0.000979 1097.50977 1097.51428
1013.0 0.000987 1097.44739 1097.45190
1048.0 0.000954 1097.38452 1097.38928
1083.0 0.000923 1097.32129 1097.32568
1066.0 0.000938 1097.25842 1097.26270
1071.0 0.000934 1097.19495 1097.19971
1084.0 0.000923 1097.13135 1097.13599
1072.0 0.000933 1097.06750 1097.07251
1075.0 0.000930 1097.00391 1097.00854
1076.0 0.000929 1096.93982 1096.94446
1099.0 0.000910 1096.87573 1096.88037
1073.0 0.000932 1096.81140 1096.81653
1046.0 0.000956 1096.74731 1096.75183
1094.0 0.000914 1096.68237 1096.68750
1084.0 0.000923 1096.61816 1096.62268
1103.0 0.000907 1096.55273 1096.55762
1096.0 0.000912 1096.48804 1096.49280
1107.0 0.000903 1096.42261 1096.42773
1058.0 0.000945 1096.35779 1096.36243
1075.0 0.000930 1096.29187 1096.29675
1067.0 0.000937 1096.22620 1096.23145
1090.0 0.000917 1096.16028 1096.16504
1069.0 0.000935 1096.09460 1096.09949
1064.0 0.000940 1096.02820 1096.03345
1066.0 0.000938 1095.96179 1095.96704
1065.0 0.000939 1095.89526 1095.90027
1090.0 0.000917 1095.82886 1095.83362
1070.0 0.000935 1095.76245 1095.76770
1048.0 0.000954 1095.69519 1095.70032
1050.0 0.000952 1095.62781 1095.63318
1086.0 0.000921 1095.56079 1095.56592
1100.0 0.000909 1095.49316 1095.49854
1097.0 0.000912 1095.42542 1095.43103
1065.0 0.000939 1095.35779 1095.36353
1050.0 0.000952 1095.28967 1095.29517
1078.0 0.000928 1095.22180 1095.22705
1081.0 0.000925 1095.15344 1095.15894
1082.0 0.000924 1095.08533 1095.09045
1112.0 0.000899 1095.01672 1095.02197
1072.0 0.000933 1094.94824 1094.95337
1063.0 0.000941 1094.87866 1094.88452
1071.0 0.000934 1094.80981 1094.81555
1063.0 0.000941 1094.74097 1094.74609
1076.0 0.000929 1094.67078 1094.67627
1095.0 0.000913 1094.60120 1094.60693
1068.0 0.000936 1094.53137 1094.53723
1068.0 0.000936 1094.46118 1094.46704
1075.0 0.000930 1094.39148 1094.39697
1055.0 0.000948 1094.32117 1094.32690
1083.0 0.000923 1094.25073 1094.25647
1123.0 0.000890 1094.17993 1094.18567
1092.0 0.000916 1094.10840 1094.11450
1123.0 0.000890 1094.03784 1094.04382
1094.0 0.000914 1093.96680 1093.97266
1087.0 0.000920 1093.89551 1093.90125
1093.0 0.000915 1093.82410 1093.82971
1083.0 0.000923 1093.75171 1093.75769
1080.0 0.000926 1093.68042 1093.68616
1058.0 0.000945 1093.60815 1093.61389
1073.0 0.000932 1093.53613 1093.54150
1072.0 0.000933 1093.46338 1093.46960
1087.0 0.000920 1093.39087 1093.39709
1094.0 0.000914 1093.31824 1093.32361
1121.0 0.000892 1093.24500 1093.25073
1098.0 0.000911 1093.17200 1093.17773
1082.0 0.000924 1093.09839 1093.10449
1029.0 0.000972 1093.02502 1093.03064
1051.0 0.000951 1092.95117 1092.95752
1114.0 0.000898 1092.87708 1092.88379
1152.0 0.000868 1092.80298 1092.80920
1129.0 0.000886 1092.72888 1092.73499
1147.0 0.000872 1092.65442 1103.65320
1075.0 0.000930 1092.58008 1103.63708
1110.0 0.000901 1092.50500 1103.62122
1082.0 0.000924 1092.43005 1103.60620
1088.0 0.000919 1092.35474 1103.59082
1068.0 0.000936 1092.27917 1103.57642
1052.0 0.000951 1092.20386 1103.56165
1090.0 0.000917 1092.12805 1103.54761
1052.0 0.000951 1092.05237 1103.53430
1085.0 0.000922 1091.97595 1103.52014
1073.0 0.000932 1091.89954 1103.50696
1069.0 0.000935 1091.82300 1103.49402
1084.0 0.000923 1091.74634 1103.48206
1128.0 0.000887 1091.66968 1103.46985
1106.0 0.000904 1091.59216 1103.45715
1087.0 0.000920 1091.51514 1103.44617
1081.0 0.000925 1091.43799 1103.43530
1059.0 0.000944 1091.35974 1103.42456
1029.0 0.000972 1091.28210 1103.41418
1054.0 0.000949 1091.20386 1103.40417
1066.0 0.000938 1091.12561 1103.39441
1079.0 0.000927 1091.04712 1103.38574
1094.0 0.000914 1090.96851 1103.37646
1094.0 0.000914 1090.88989 1103.36841
1095.0 0.000913 1090.81079 1103.35974
1048.0 0.000954 1090.73169 1103.35254
1033.0 0.000968 1090.65222 1103.34497
1075.0 0.000930 1090.57263 1103.33862
1047.0 0.000955 1090.49280 1103.33228
1054.0 0.000949 1090.41260 1103.32617
1038.0 0.000963 1090.33228 1103.32092
1041.0 0.000961 1090.25244 1103.31580
1083.0 0.000923 1090.17175 1103.31140
1100.0 0.000909 1090.09106 1103.30750
1087.0 0.000920 1090.00964 1103.30359
1053.0 0.000950 1089.92859 1103.30054
1047.0 0.000955 1089.84729 1103.29797
1050.0 0.000952 1089.76563 1103.29590
1036.0 0.000965 1089.68396 1103.29443
1071.0 0.000934 1089.60193 1103.29309
1029.0 0.000972 1089.51941 1103.29248
1055.0 0.000948 1089.43738 1103.29248
1076.0 0.000929 1089.35437 1103.29297
1035.0 0.000966 1089.27161 1103.29443
1046.0 0.000956 1089.18860 1103.29602
1048.0 0.000954 1089.10559 1103.29810
1049.0 0.000953 1089.02209 1103.30103
1047.0 0.000955 1088.93872 1103.30408
1068.0 0.000936 1088.85498 1103.30835
1068.0 0.000936 1088.77112 1103.31287
1087.0 0.000920 1088.68640 1103.31799
1088.0 0.000919 1088.60205 1103.32385
1090.0 0.000917 1088.51721 1103.33020
1077.0 0.000929 1088.43262 1103.33740
1026.0 0.000975 1088.34766 1103.34534
1041.0 0.000961 1088.26257 1103.35327
1024.0 0.000977 1088.17700 1103.36279
1056.0 0.000947 1088.09119 1103.37244
1062.0 0.000942 1088.00537 1103.38281
1074.0 0.000931 1087.91919 1103.39453
1145.0 0.000873 1087.83313 1103.40625
1066.0 0.000938 1087.74670 1103.41895
1085.0 0.000922 1087.66003 1103.43225
1139.0 0.000878 1087.57288 1103.44653
1116.0 0.000896 1087.48596 1103.46094
1102.0 0.000907 1087.39856 1103.47705
1090.0 0.000917 1087.31116 1103.49377
1136.0 0.000880 1087.22351 1103.51099
1128.0 0.000887 1087.13562 1103.52905
1072.0 0.000933 1087.04736 1103.54822
1104.0 0.000906 1086.95911 1103.56812
1123.0 0.000890 1086.87085 1103.58875
1157.0 0.000864 1086.78162 1103.61035
1135.0 0.000881 1086.69324 1103.63269
1128.0 0.000887 1086.60352 1103.65625
1117.0 0.000895 1086.51416 1103.67993
1086.0 0.000921 1086.42493 1103.70508
1062.0 0.000942 1086.33496 1103.73157
1101.0 0.000908 1086.24487 1103.75891
1094.0 0.000914 1086.15454 1103.78687
1121.0 0.000892 1086.06409 1103.81628
1093.0 0.000915 1085.97363 1103.84631
1084.0 0.000923 1085.88318 1103.87744
1113.0 0.000898 1085.79150 1103.90991
1097.0 0.000912 1085.70020 1103.94275
1092.0 0.000916 1085.60913 1103.97705
1065.0 0.000939 1085.51721 1104.01257
1069.0 0.000935 1085.42554 1104.04932
1076.0 0.000929 1085.33337 1104.08728
1047.0 0.000955 1085.24060 1104.12585
1052.0 0.000951 1085.14819 1104.16541
1068.0 0.000936 1085.05579 1104.20715
1084.0 0.000923 1084.96228 1104.24988
1117.0 0.000895 1084.86963 1104.29346
1093.0 0.000915 1084.77612 1104.33838
1074.0 0.000931 1084.68286 1104.38440
1075.0 0.000930 1084.58862 1104.43237
1059.0 0.000944 1084.49475 1104.48120
1072.0 0.000933 1084.40051 1104.53101
1081.0 0.000925 1084.30603 1104.58276
1161.0 0.000861 1084.21143 1104.63574
1149.0 0.000870 1084.11658 1104.68982
1117.0 0.000895 1084.02136 1104.74609
1071.0 0.000934 1083.92603 1104.80273
1062.0 0.000942 1083.83081 1104.86194
1068.0 0.000936 1083.73486 1104.92200
1082.0 0.000924 1083.63904 1104.98364
1087.0 0.000920 1083.54285 1105.04736
1057.0 0.000946 1083.44666 1105.11230
1068.0 0.000936 1083.35010 1105.17871
1067.0 0.000937 1083.25269 1105.24670
1104.0 0.000906 1083.15601 1105.31653
1121.0 0.000892 1083.05908 1105.38843
1100.0 0.000909 1082.96143 1105.46155
1108.0 0.000903 1082.86353 1105.53650
1097.0 0.000912 1082.76611 1105.61340
1088.0 0.000919 1082.66772 1105.69238
1087.0 0.000920 1082.56958 1105.77283
1138.0 0.000879 1082.47144 1105.85498
1131.0 0.000884 1082.37244 1105.93970
1048.0 0.000954 1082.27344 1106.02600
1065.0 0.000939 1082.17407 1106.11414
1045.0 0.000957 1082.07507 1106.20471
1044.0 0.000958 1081.97522 1106.29724
1052.0 0.000951 1081.87598 1106.39124
1039.0 0.000962 1081.77563 1106.48804
1081.0 0.000925 1081.67505 1106.58679
1055.0 0.000948 1081.57483 1106.68799
1015.0 0.000985 1081.47473 1106.79150
1068.0 0.000936 1081.37354 1106.89673
1044.0 0.000958 1081.27234 1107.00464
1055.0 0.000948 1081.17139 1107.11475
1086.0 0.000921 1081.07007 1107.22754
1073.0 0.000932 1080.96814 1107.34265
1117.0 0.000895 1080.86609 1107.46021
1067.0 0.000937 1080.76428 1107.58032
1091.0 0.000917 1080.66174 1107.70337
1096.0 0.000912 1080.55920 1107.82910
1088.0 0.000919 1080.45630 1107.95715
1096.0 0.000912 1080.35376 1108.08789
1099.0 0.000910 1080.25037 1108.22180
1049.0 0.000953 1080.14685 1108.35840
1089.0 0.000918 1080.04297 1108.49805
1090.0 0.000917 1079.93909 1108.64001
1113.0 0.000898 1079.83557 1108.78577
1080.0 0.000926 1079.73096 1108.93396
1054.0 0.000949 1079.62671 1109.08606
1068.0 0.000936 1079.52209 1109.24072
1063.0 0.000941 1079.41687 1109.39905
1079.0 0.000927 1079.31201 1109.56079
1072.0 0.000933 1079.20667 1109.72559
1048.0 0.000954 1079.10107 1109.89368
1065.0 0.000939 1078.99548 1110.06506
1048.0 0.000954 1078.88977 1110.24060
1087.0 0.000920 1078.78320 1110.41992
1079.0 0.000927 1078.67688 1110.60217
1073.0 0.000932 1078.57068 1110.78870
1064.0 0.000940 1078.46326 1110.97961
1053.0 0.000950 1078.35645 1111.17358
1033.0 0.000968 1078.24915 1111.37183
1003.0 0.000997 1078.14197 1111.57495
1030.0 0.000971 1078.03381 1111.78113
1022.0 0.000978 1077.92627 1111.99255
1032.0 0.000969 1077.81836 1112.20789
1087.0 0.000920 1077.70959 1112.42737
1090.0 0.000917 1077.60132 1112.65173
1076.0 0.000929 1077.49255 1112.88098
1080.0 0.000926 1077.38403 1113.11426
1080.0 0.000926 1077.27466 1113.35291
1081.0 0.000925 1077.16565 1113.59656
1079.0 0.000927 1077.05566 1113.84473
1127.0 0.000887 1076.94580 1114.09851
1097.0 0.000912 1076.83630 1114.35730
1083.0 0.000923 1076.72559 1114.62183
1119.0 0.000894 1076.61572 1114.89087
1132.0 0.000883 1076.50513 1115.16650
1113.0 0.000898 1076.39404 1115.44751
1087.0 0.000920 1076.28333 1115.73474
1068.0 0.000936 1076.17188 1116.02698
1060.0 0.000943 1076.06067 1116.32629
1075.0 0.000930 1075.94897 1116.63110
1107.0 0.000903 1075.83704 1116.94250
1134.0 0.000882 1075.72510 1117.26062
1093.0 0.000915 1075.61267 1117.58472
1134.0 0.000882 1075.50049 1117.91675
1100.0 0.000909 1075.38757 1118.25488
1082.0 0.000924 1075.27490 1118.60022
1082.0 0.000924 1075.16199 1118.95276
1112.0 0.000899 1075.04810 1119.31287
1126.0 0.000888 1074.93506 1119.67993
1109.0 0.000902 1074.82117 1120.05579
1136.0 0.000880 1074.70728 1120.43896
1169.0 0.000855 1074.59314 1120.83057
1132.0 0.000883 1074.47876 1121.22986
1159.0 0.000863 1074.36462 1121.63867
1143.0 0.000875 1074.24988 1122.05530
1118.0 0.000894 1074.13501 1122.48108
1116.0 0.000896 1074.01978 1122.91614
1120.0 0.000893 1073.90454 1123.36047
1093.0 0.000915 1073.78931 1123.81494
1087.0 0.000920 1073.67310 1124.27832
1122.0 0.000891 1073.55737 1124.75183
1166.0 0.000858 1073.44116 1125.23584
1143.0 0.000875 1073.32471 1125.73083
1149.0 0.000870 1073.20825 1126.23584
1122.0 0.000891 1073.09143 1126.75220
1119.0 0.000894 1072.97449 1127.28027
1107.0 0.000903 1072.85754 1127.81946
1140.0 0.000877 1072.74023 1128.37097
1146.0 0.000873 1072.62231 1128.93408
1137.0 0.000880 1072.50488 1129.51050
1136.0 0.000880 1072.38696 1130.09912
1101.0 0.000908 1072.26843 1130.70142
1154.0 0.000867 1072.15027 1131.31714
1176.0 0.000850 1072.03162 1131.94690
1167.0 0.000857 1071.91284 1132.59070
1132.0 0.000883 1071.79395 1133.24939
1141.0 0.000876 1071.67517 1133.92273
1129.0 0.000886 1071.55566 1134.61206
1145.0 0.000873 1071.43604 1135.31714
1180.0 0.000847 1071.31641 1136.03821
1190.0 0.000840 1071.19604 1136.77637
1168.0 0.000856 1071.07666 1137.53137
1173.0 0.000853 1070.95581 1138.30432
1200.0 0.000833 1070.83508 1139.09546
1172.0 0.000853 1070.71448 1139.90552
1189.0 0.000841 1070.59338 1140.73474
1189.0 0.000841 1070.47290 1141.58350
1184.0 0.000845 1070.35144 1142.45337
1197.0 0.000835 1070.23035 1143.34363
1201.0 0.000833 1070.10828 1144.25549
1175.0 0.000851 1069.98657 1145.19019
1173.0 0.000853 1069.86426 1146.14697
1195.0 0.000837 1069.74219 1147.12769
1260.0 0.000794 1069.61951 1148.13306
1269.0 0.000788 1069.49670 1149.16272
1252.0 0.000799 1069.37427 1150.21887
1252.0 0.000799 1069.25134 1151.30176
1232.0 0.000812 1069.12781 1152.41199
1231.0 0.000812 1069.00476 1153.55078
1227.0 0.000815 1068.88110 1154.71875
1245.0 0.000803 1068.75708 1155.91675
1278.0 0.000782 1068.63342 1157.14587
1307.0 0.000765 1068.50928 1158.40784
1315.0 0.000760 1068.38452 1159.70203
1275.0 0.000784 1068.25989 1161.03125
1274.0 0.000785 1068.13538 1162.39600
1273.0 0.000786 1068.01062 1163.79761
1274.0 0.000785 1067.88562 1165.23706
1233.0 0.000811 1067.76038 1166.71594
1249.0 0.000801 1067.63464 1168.23511
1289.0 0.000776 1067.50903 1169.79688
1276.0 0.000784 1067.38354 1171.40247
1286.0 0.000778 1067.25720 1173.05298
1323.0 0.000756 1067.13123 1174.75000
1331.0 0.000751 1067.00427 1176.49622
1344.0 0.000744 1066.87793 1178.29199
1330.0 0.000752 1066.75146 1180.14075
1345.0 0.000743 1066.62439 1182.04309
1360.0 0.000735 1066.49744 1184.00183
1344.0 0.000744 1066.37012 1186.01965
1363.0 0.000734 1066.24280 1188.09753
1442.0 0.000693 1066.11487 1190.23853
1398.0 0.000715 1065.98718 1192.44580
1418.0 0.000705 1065.85925 1194.72034
1458.0 0.000686 1065.73108 1197.06641
1411.0 0.000709 1065.60242 1199.48669
1387.0 0.000721 1065.47412 1201.98340
1396.0 0.000716 1065.34558 1204.56091
1433.0 0.000698 1065.21655 1207.22205
1454.0 0.000688 1065.08728 1209.96997
1421.0 0.000704 1064.95837 1212.80945
1512.0 0.000661 1064.82910 1215.74402
1501.0 0.000666 1064.69910 1218.77795
1466.0 0.000682 1064.56934 1221.91577
1470.0 0.000680 1064.43933 1225.16223
1491.0 0.000671 1064.30945 1228.52271
1477.0 0.000677 1064.17920 1232.00195
1513.0 0.000661 1064.04895 1235.60645
1487.0 0.000672 1063.91809 1239.34106
1476.0 0.000678 1063.78687 1243.21301
1538.0 0.000650 1063.65637 1247.22949
1547.0 0.000646 1063.52502 1251.39746
1522.0 0.000657 1063.39392 1255.72375
1541.0 0.000649 1063.26221 1260.21826
1611.0 0.000621 1063.13062 1264.88904
1629.0 0.000614 1062.99854 1269.74500
1634.0 0.000612 1062.86682 1274.79749
1640.0 0.000610 1062.73486 1280.05640
1704.0 0.000587 1062.60303 1285.53418
1754.0 0.000570 1062.47009 1291.24268
1684.0 0.000594 1062.33716 1297.19690
1653.0 0.000605 1062.20459 1303.41028
1708.0 0.000585 1062.07166 1309.90027
1700.0 0.000588 1061.93896 1316.68225
1737.0 0.000576 1061.80530 1323.77771
1765.0 0.000567 1061.67188 1331.20581
1838.0 0.000544 1061.53821 1338.98975
1835.0 0.000545 1061.40466 1347.15576
1821.0 0.000549 1061.27026 1355.73059
1813.0 0.000552 1061.13660 1364.74561
1848.0 0.000541 1061.00208 1374.23486
1871.0 0.000534 1060.86780 1384.23682
1870.0 0.000535 1060.73291 1394.79419
1846.0 0.000542 1060.59875 1405.95398
1911.0 0.000523 1060.46375 1417.77014
1890.0 0.000529 1060.32874 1430.30127
1884.0 0.000531 1060.19373 1443.61365
1908.0 0.000524 1060.05774 1457.78186
1959.0 0.000510 1059.92261 1472.88855
2037.0 0.000491 1059.78735 1489.02502
2051.0 0.000488 1059.65112 1506.29382
2047.0 0.000489 1059.51538 1524.80713
2052.0 0.000487 1059.37903 1544.68958
2088.0 0.000479 1059.24316 1566.07837
2090.0 0.000478 1059.10620 1589.12280
2180.0 0.000459 1058.97009 1613.98779
2218.0 0.000451 1058.83350 1640.84998
2264.0 0.000442 1058.69617 1669.90100
2285.0 0.000438 1058.55969 1701.34998
2286.0 0.000437 1058.42200 1735.41577
2342.0 0.000427 1058.28491 1772.33337
2346.0 0.000426 1058.14746 1812.34790
2385.0 0.000419 1058.01001 1855.71313
2461.0 0.000406 1057.87244 1906.32153
2496.0 0.000401 1057.73376 1957.17712
2479.0 0.000403 1057.59631 2012.13818
2457.0 0.000407 1057.45837 2071.41992
2522.0 0.000397 1057.32031 2135.19824
2585.0 0.000387 1057.18152 2203.58643
2571.0 0.000389 1057.04297 2276.61523
2596.0 0.000385 1056.90417 2354.21558
2633.0 0.000380 1056.76501 2436.19897
2710.0 0.000369 1056.62646 2522.26318
2747.0 0.000364 1056.48706 2612.00903
2731.0 0.000366 1056.34802 2704.98438
2760.0 0.000362 1056.20862 2800.75562
2784.0 0.000359 1056.06921 2898.98975
2868.0 0.0003487 1055.92920 2999.53271
2956.0 0.0003383 1055.78967 3102.45313
2989.0 0.0003346 1055.64905 3208.03516
3069.0 0.0003258 1055.50940 3316.70239
3103.0 0.0003223 1055.36951 3428.88379
3072.0 0.0003255 1055.22888 3544.84399
3221.0 0.0003105 1055.08875 3664.50757
3317.0 0.0003015 1054.94751 3787.29932
3374.0 0.0002964 1054.80737 3912.04419
3363.0 0.0002974 1054.66614 4036.94165
3418.0 0.0002926 1054.52551 4159.64258
3475.0 0.0002878 1054.38403 4277.44873
3467.0 0.0002884 1054.24268 4387.62646
3584.0 0.0002790 1054.10156 4487.80225
3688.0 0.0002711 1053.95996 4576.36719
3660.0 0.0002732 1053.81848 4652.78760
3806.0 0.0002627 1053.67664 4717.73389
3909.0 0.0002558 1053.53491 4772.99121
3937.0 0.0002540 1053.39294 4821.16260
4000.0 0.0002500 1053.25037 4865.24854
4159.0 0.0002404 1053.10864 4908.21240
4176.0 0.0002395 1052.96606 4952.62012
4228.0 0.0002365 1052.82361 5000.41455
4320.0 0.0002315 1052.68091 5052.85010
4374.0 0.0002286 1052.53833 5110.56738
4420.0 0.0002262 1052.39502 5173.76563
4486.0 0.0002229 1052.25244 5242.41748
4635.0 0.0002157 1052.10938 5316.45801
4852.0 0.0002061 1051.96594 5395.87891
4959.0 0.0002017 1051.82275 5480.71631
5071.0 0.0001972 1051.67969 5570.91602
5185.0 0.0001929 1051.53577 5666.15625
5428.0 0.0001842 1051.39221 5765.68799
5561.0 0.0001798 1051.24829 5868.26904
5828.0 0.0001716 1051.10486 5972.24707
5897.0 0.0001696 1050.96082 6075.79004
6140.0 0.0001629 1050.81677 6177.21729
6451.0 0.0001550 1050.67236 6275.33936
6597.0 0.0001516 1050.52808 6369.69824
6701.0 0.0001492 1050.38379 6460.61523
6904.0 0.0001448 1050.23938 6549.04980
7171.0 0.0001395 1050.09460 6636.28564
7444.0 0.0001343 1049.94958 6723.56982
7832.0 0.0001277 1049.80505 6811.78223
8164.0 0.0001225 1049.66016 6901.21777
8350.0 0.0001198 1049.51489 6991.48389
8522.0 0.0001173 1049.37000 7081.49219
8640.0 0.0001157 1049.22461 7169.48193
8945.0 0.0001118 1049.07947 7253.07910
9193.0 0.0001088 1048.93396 7329.36230
9388.0 0.0001065 1048.78809 7394.97607
9427.0 0.0001061 1048.64258 7446.28809
9610.0 0.0001041 1048.49658 7479.59912
9587.0 0.0001043 1048.35107 7491.34033
9561.0 0.0001046 1048.20496 7478.24463
9423.0 0.0001061 1048.05945 7437.46533
9142.0 0.0001094 1047.91309 7366.69189
8974.0 0.0001114 1047.76672 7264.30518
8811.0 0.0001135 1047.62048 7129.58398
8339.0 0.0001199 1047.47424 6962.95166
8006.0 0.0001249 1047.32764 6766.17725
7447.0 0.0001343 1047.18103 6542.44141
6987.0 0.0001431 1047.03418 6296.20801
6615.0 0.0001512 1046.88770 6032.87842
6216.0 0.0001609 1046.74036 5758.33691
5818.0 0.0001719 1046.59387 5478.44531
5537.0 0.0001806 1046.44678 5198.60791
5238.0 0.0001909 1046.29968 4923.47607
4860.0 0.0002058 1046.15222 4656.79492
4355.0 0.0002296 1046.00464 4401.37549
4033.0 0.0002480 1045.85767 4159.16846
3831.0 0.0002610 1045.70996 3931.38306
3565.0 0.0002805 1045.56287 3718.62427
3332.0 0.0003001 1045.41516 3521.02563
3179.0 0.0003146 1045.26758 3338.37256
2980.0 0.0003356 1045.11938 3170.19434
2770.0 0.000361 1044.97229 3015.84766
2555.0 0.000391 1044.82385 2874.57397
2427.0 0.000412 1044.67590 2745.54614
2278.0 0.000439 1044.52759 2627.90381
2196.0 0.000455 1044.37976 2520.77832
2094.0 0.000478 1044.23132 2423.31006
1995.0 0.000501 1044.08337 2334.66602
1922.0 0.000520 1043.93469 2254.04907
1843.0 0.000543 1043.78625 2180.70410
1740.0 0.000575 1043.63782 2113.92407
1680.0 0.000595 1043.48926 2053.05200
1633.0 0.000612 1043.34058 1997.48486
1595.0 0.000627 1043.19202 1946.67175
1524.0 0.000656 1043.04297 1900.11121
1508.0 0.000663 1042.89441 1857.35388
1476.0 0.000678 1042.74500 1817.99670
1511.0 0.000662 1042.59607 1781.67957
1514.0 0.000661 1042.44702 1748.08386
1510.0 0.000662 1042.29810 1716.92773
1485.0 0.000673 1042.14856 1687.96277
1397.0 0.000716 1041.99939 1660.97083
1383.0 0.000723 1041.84998 1635.75903
1417.0 0.000706 1041.70044 1612.15930
1365.0 0.000733 1041.55127 1590.02417
1332.0 0.000751 1041.40173 1569.22217
1378.0 0.000726 1041.25208 1549.63940
1377.0 0.000726 1041.10254 1531.17358
1400.0 0.000714 1040.95313 1513.73438
1415.0 0.000707 1040.80383 1497.24268
1316.0 0.000760 1040.65369 1481.62598
1318.0 0.000759 1040.50354 1466.82068
1297.0 0.000771 1040.35413 1452.76868
1314.0 0.000761 1040.20349 1439.41724
1321.0 0.000757 1040.05396 1426.71973
1276.0 0.000784 1039.90393 1414.63196
1261.0 0.000793 1039.75378 1403.11499
1225.0 0.000816 1039.60364 1392.13293
1197.0 0.000835 1039.45325 1381.65259
1216.0 0.000822 1039.30298 1371.64282
1174.0 0.000852 1039.15283 1362.07581
1199.0 0.000834 1039.00244 1352.92505
1264.0 0.000791 1038.85229 1344.16711
1245.0 0.000803 1038.70190 1335.77954
1235.0 0.000810 1038.55115 1327.74084
1162.0 0.000861 1038.40076 1320.03198
1177.0 0.000850 1038.25012 1312.63501
1213.0 0.000824 1038.09937 1305.53369
1183.0 0.000845 1037.94910 1298.71118
1149.0 0.000870 1037.79858 1292.15405
1114.0 0.000898 1037.64758 1285.84778
1114.0 0.000898 1037.49719 1279.78027
1135.0 0.000881 1037.34607 1273.93921
1134.0 0.000882 1037.19507 1268.31299
1170.0 0.000855 1037.04456 1262.89148
1180.0 0.000847 1036.89355 1257.66443
1185.0 0.000844 1036.74255 1252.62329
1159.0 0.000863 1036.59167 1247.75903
1119.0 0.000894 1036.44055 1243.06262
1131.0 0.000884 1036.28967 1238.52722
1114.0 0.000898 1036.13867 1234.14563
1127.0 0.000887 1035.98755 1229.91052
1138.0 0.000879 1035.83655 1225.81531
1134.0 0.000882 1035.68567 1221.85388
1157.0 0.000864 1035.53418 1218.02087
1135.0 0.000881 1035.38306 1214.31055
1131.0 0.000884 1035.23157 1210.71777
1137.0 0.000880 1035.08008 1207.23792
1130.0 0.000885 1034.92932 1203.86536
1146.0 0.000873 1034.77795 1200.59717
1157.0 0.000864 1034.62634 1197.42773
1148.0 0.000871 1034.47534 1194.35364
1121.0 0.000892 1034.32385 1191.37158
1115.0 0.000897 1034.17285 1188.47754
1097.0 0.000912 1034.02100 1185.66858
1130.0 0.000885 1033.86987 1182.94080
1129.0 0.000886 1033.71838 1180.29175
1095.0 0.000913 1033.56677 1177.71838
1106.0 0.000904 1033.41541 1175.21729
1118.0 0.000894 1033.26392 1172.78687
1153.0 0.000867 1033.11279 1170.42407
1149.0 0.000870 1032.96143 1168.12671
1128.0 0.000887 1032.80969 1165.89172
1148.0 0.000871 1032.65820 1163.71777
1117.0 0.000895 1032.50659 1161.60266
1082.0 0.000924 1032.35498 1159.54431
1094.0 0.000914 1032.20325 1157.54077
1106.0 0.000904 1032.05188 1155.58997
1109.0 0.000902 1031.90063 1153.69055
1094.0 0.000914 1031.74915 1151.84106
1105.0 0.000905 1031.59705 1150.03992
1079.0 0.000927 1031.44543 1148.28455
1044.0 0.000958 1031.29431 1146.57507
1038.0 0.000963 1031.14282 1144.90906
1062.0 0.000942 1030.99121 1143.28577
1060.0 0.000943 1030.83960 1141.70300
1076.0 0.000929 1030.68811 1140.16101
1094.0 0.000914 1030.53674 1138.65723
1117.0 0.000895 1030.38513 1137.19189
1124.0 0.000890 1030.23315 1135.76221
1078.0 0.000928 1030.08203 1134.36865
1091.0 0.000917 1029.93054 1133.01050
1095.0 0.000913 1029.77881 1131.68542
1064.0 0.000940 1029.62720 1130.39307
1050.0 0.000952 1029.47559 1129.13306
1035.0 0.000966 1029.32434 1127.90393
1073.0 0.000932 1029.17273 1126.70532
1048.0 0.000954 1029.02136 1125.53601
1042.0 0.000960 1028.87000 1124.39661
1075.0 0.000930 1028.71802 1123.28467
1075.0 0.000930 1028.56702 1122.20081
1091.0 0.000917 1028.41516 1121.14355
1073.0 0.000932 1028.26379 1120.11267
1050.0 0.000952 1028.11243 1119.10754
1032.0 0.000969 1027.96118 1118.12805
1045.0 0.000957 1027.80969 1117.17297
1028.0 0.000973 1027.65833 1116.24219
1017.0 0.000983 1027.50684 1115.33459
1063.0 0.000941 1027.35547 1114.45093
1077.0 0.000929 1027.20435 1113.58997
1148.0 0.000871 1027.05322 1112.75146
1096.0 0.000912 1026.90173 1111.93481
1087.0 0.000920 1026.75012 1111.13965
1102.0 0.000907 1026.59949 1110.36597
1073.0 0.000932 1026.44800 1109.61353
1063.0 0.000941 1026.29639 1108.88123
1126.0 0.000888 1026.14587 1108.16943
1111.0 0.000900 1025.99451 1107.47778
1088.0 0.000919 1025.84375 1106.80530
1097.0 0.000912 1025.69238 1106.15320
1097.0 0.000912 1025.54187 1105.51990
1077.0 0.000929 1025.39014 1104.90576
1060.0 0.000943 1025.23950 1104.31042
1092.0 0.000916 1025.08850 1103.73315
1083.0 0.000923 1024.93750 1103.17529
1063.0 0.000941 1024.78699 1102.63513
1068.0 0.000936 1024.63586 1102.11365
1098.0 0.000911 1024.48535 1101.60962
1113.0 0.000898 1024.33423 1101.12354
1081.0 0.000925 1024.18347 1100.65564
1076.0 0.000929 1024.03296 1100.20520
1074.0 0.000931 1023.88196 1099.77234
1092.0 0.000916 1023.73138 1099.35718
1057.0 0.000946 1023.58142 1098.95984
1067.0 0.000937 1023.43030 1098.57947
1083.0 0.000923 1023.28021 1098.21692
1091.0 0.000917 1023.12964 1097.87146
1075.0 0.000930 1022.97931 1097.54395
1077.0 0.000929 1022.82904 1097.23352
1086.0 0.000921 1022.67847 1096.94116
1147.0 0.000872 1022.52838 1096.66626
1133.0 0.000883 1022.37775 1096.40894
1105.0 0.000905 1022.22791 1096.16943
1092.0 0.000916 1022.07751 1095.94788
1090.0 0.000917 1021.92780 1095.74402
1039.0 0.000962 1021.77759 1095.55872
1053.0 0.000950 1021.62787 1095.39148
1091.0 0.000917 1021.47784 1095.24304
1109.0 0.000902 1021.32806 1095.11292
1110.0 0.000901 1021.17792 1095.00183
1089.0 0.000918 1021.02832 1094.90979
1112.0 0.000899 1020.87830 1094.83704
1114.0 0.000898 1020.72882 1094.78394
1111.0 0.000900 1020.57922 1094.75122
1040.0 0.000962 1020.42963 1094.73828
1051.0 0.000951 1020.28003 1094.74585
1099.0 0.000910 1020.13080 1094.77478
1069.0 0.000935 1019.98138 1094.82483
1031.0 0.000970 1019.83209 1094.89673
1050.0 0.000952 1019.68280 1094.99060
1058.0 0.000945 1019.53363 1095.10742
1075.0 0.000930 1019.38452 1095.24731
1091.0 0.000917 1019.23547 1095.41089
1087.0 0.000920 1019.08636 1095.59863
1106.0 0.000904 1018.93744 1095.81165
1115.0 0.000897 1018.78882 1096.04980
1159.0 0.000863 1018.64014 1096.31470
1151.0 0.000869 1018.49139 1096.60608
1112.0 0.000899 1018.34259 1096.92505
1152.0 0.000868 1018.19391 1097.27271
1144.0 0.000874 1018.04559 1097.64990
1151.0 0.000869 1017.89685 1098.05737
1152.0 0.000868 1017.74866 1098.49597
1168.0 0.000856 1017.60046 1098.96692
1160.0 0.000862 1017.45215 1099.47131
1115.0 0.000897 1017.30383 1100.01001
1109.0 0.000902 1017.15576 1100.58484
1111.0 0.000900 1017.00793 1101.19653
1121.0 0.000892 1016.86017 1101.84656
1163.0 0.000860 1016.71210 1102.53674
1192.0 0.000839 1016.56427 1103.26794
1189.0 0.000841 1016.41675 1104.04272
1172.0 0.000853 1016.26935 1104.86218
1153.0 0.000867 1016.12170 1105.72839
1151.0 0.000869 1015.97418 1106.64294
1162.0 0.000861 1015.82672 1107.60889
1135.0 0.000881 1015.67963 1108.62769
1125.0 0.000889 1015.53229 1109.70190
1140.0 0.000877 1015.38507 1110.83423
1168.0 0.000856 1015.23804 1112.02734
1171.0 0.000854 1015.09125 1113.28394
1158.0 0.000864 1014.94427 1114.60779
1215.0 0.000823 1014.79767 1116.00159
1248.0 0.000801 1014.65082 1117.46899
1230.0 0.000813 1014.50415 1119.01440
1220.0 0.000820 1014.35785 1120.64148
1209.0 0.000827 1014.21149 1122.35486
1208.0 0.000828 1014.06506 1124.15930
1199.0 0.000834 1013.91901 1126.06018
1214.0 0.000824 1013.77271 1128.06250
1199.0 0.000834 1013.62634 1130.17310
1171.0 0.000854 1013.48083 1132.39807
1153.0 0.000867 1013.33496 1134.74487
1182.0 0.000846 1013.18933 1137.22144
1174.0 0.000852 1013.04358 1139.83606
1220.0 0.000820 1012.89813 1142.59839
1228.0 0.000814 1012.75238 1145.51892
1215.0 0.000823 1012.60718 1148.60852
1224.0 0.000817 1012.46191 1151.88098
1283.0 0.000779 1012.31671 1155.34973
1300.0 0.000769 1012.17163 1159.03064
1337.0 0.000748 1012.02649 1162.94092
1282.0 0.000780 1011.88171 1167.10095
1288.0 0.000776 1011.73682 1171.53174
1290.0 0.000775 1011.59235 1176.25830
1258.0 0.000795 1011.44781 1181.30774
1258.0 0.000795 1011.30341 1186.71118
1275.0 0.000784 1011.15906 1192.50220
1284.0 0.000779 1011.01501 1198.71924
1297.0 0.000771 1010.87061 1205.40466
1317.0 0.000759 1010.72650 1212.60608
1351.0 0.000740 1010.58295 1220.37561
1371.0 0.000729 1010.43903 1228.77063
1373.0 0.000728 1010.29535 1237.85547
1418.0 0.000705 1010.15186 1247.69958
1399.0 0.000715 1010.00836 1258.37891
1405.0 0.000712 1009.86511 1269.97656
1373.0 0.000728 1009.72168 1282.58179
1421.0 0.000704 1009.57874 1296.28967
1433.0 0.000698 1009.43549 1311.20215
1422.0 0.000703 1009.29266 1327.42529
1525.0 0.000656 1009.15002 1345.06812
1517.0 0.000659 1009.00714 1364.23999
1469.0 0.000681 1008.86462 1385.04688
1457.0 0.000686 1008.72223 1407.58716
1515.0 0.000660 1008.57996 1431.94226
1488.0 0.000672 1008.43768 1458.17163
1487.0 0.000672 1008.29565 1486.30212
1499.0 0.000667 1008.15387 1516.31995
1533.0 0.000652 1008.01190 1548.16418
1532.0 0.000653 1007.87012 1581.72742
1501.0 0.000666 1007.72888 1616.86218
1506.0 0.000664 1007.58734 1653.40112
1522.0 0.000657 1007.44568 1691.18347
1547.0 0.000646 1007.30469 1730.08789
1634.0 0.000612 1007.16364 1770.05957
1686.0 0.000593 1007.02277 1811.12012
1668.0 0.000600 1006.88171 1853.34985
1639.0 0.000610 1006.74115 1896.84546
1671.0 0.000598 1006.60071 1941.65381
1765.0 0.000567 1006.46008 1987.69507
1774.0 0.000564 1006.31982 2034.69910
1749.0 0.000572 1006.17957 2082.16162
1784.0 0.000561 1006.03961 2129.34302
1790.0 0.000559 1005.89972 2175.31787
1745.0 0.000573 1005.75989 2219.08057
1770.0 0.000565 1005.62018 2259.69482
1784.0 0.000561 1005.48065 2296.46021
1895.0 0.000528 1005.34113 2329.05591
1918.0 0.000521 1005.20209 2357.61768
1971.0 0.000507 1005.06305 2382.72314
1965.0 0.000509 1004.92389 2405.28369
1950.0 0.000513 1004.78510 2426.38281
1966.0 0.000509 1004.64636 2447.09741
1962.0 0.000510 1004.50787 2468.35498
2008.0 0.000498 1004.36932 2490.84937
2115.0 0.000473 1004.23108 2515.02197
2156.0 0.000464 1004.09308 2541.10571
2213.0 0.000452 1003.95496 2569.19092
2267.0 0.000441 1003.81708 2599.29712
2270.0 0.000441 1003.67950 2631.41187
2296.0 0.000436 1003.54193 2665.48608
2317.0 0.000432 1003.40442 2701.39111
2370.0 0.000422 1003.26697 2738.86523
2439.0 0.000410 1003.13000 2777.47998
2506.0 0.000399 1002.99292 2816.65381
2574.0 0.000389 1002.85620 2855.73071
2697.0 0.000371 1002.71936 2894.09619
2744.0 0.000364 1002.58276 2931.30664
2800.0 0.000357 1002.44629 2967.17334
2853.0 0.0003505 1002.30994 3001.77539
3025.0 0.0003306 1002.17383 3035.39209
3106.0 0.0003220 1002.03796 3068.37256
3169.0 0.0003156 1001.90204 3100.99756
3222.0 0.0003104 1001.76636 3133.35571
3231.0 0.0003095 1001.63098 3165.27222
3385.0 0.0002954 1001.49536 3196.27686
3555.0 0.0002813 1001.36035 3225.60547
3613.0 0.0002768 1001.22522 3252.22510
3617.0 0.0002765 1001.09021 3274.87720
3601.0 0.0002777 1000.95563 3292.14380
3597.0 0.0002780 1000.82123 3302.53125
3679.0 0.0002718 1000.68665 3304.56445
3666.0 0.0002728 1000.55225 3296.88257
3601.0 0.0002777 1000.41803 3278.31616
3617.0 0.0002765 1000.28400 3247.96606
3514.0 0.0002846 1000.15027 3205.28711
3505.0 0.0002853 1000.01654 3150.18237
3339.0 0.0002995 999.88306 3083.08984
3196.0 0.0003129 999.74963 3005.03149
3005.0 0.0003328 999.61633 2917.58960
2870.0 0.0003484 999.48340 2822.79517
2764.0 0.000362 999.35052 2722.94629
2636.0 0.000379 999.21777 2620.39600
2494.0 0.000401 999.08533 2517.35767
2397.0 0.000417 998.95288 2415.75732
2285.0 0.000438 998.82092 2317.15576
2215.0 0.000451 998.68860 2222.72388
2133.0 0.000469 998.55676 2133.27026
2009.0 0.000498 998.42480 2049.28882
1863.0 0.000537 998.29340 1971.01880
1835.0 0.000545 998.16199 1898.50354
1770.0 0.000565 998.03076 1831.64319
1726.0 0.000579 997.89984 1770.23645
1622.0 0.000617 997.76886 1714.01526
1539.0 0.000650 997.63818 1662.66992
1497.0 0.000668 997.50745 1615.86743
1384.0 0.000723 997.37695 1573.26648
1345.0 0.000743 997.24677 1534.52698
1318.0 0.000759 997.11694 1499.31677
1301.0 0.000769 996.98694 1467.31677
1279.0 0.000782 996.85718 1438.22485
1257.0 0.000796 996.72748 1411.75818
1204.0 0.000831 996.59802 1387.65295
1206.0 0.000829 996.46912 1365.66858
1209.0 0.000827 996.33990 1345.58264
1260.0 0.000794 996.21088 1327.19629
1228.0 0.000814 996.08252 1310.32800
1179.0 0.000848 995.95374 1294.81653
1167.0 0.000857 995.82532 1280.51794
1149.0 0.000870 995.69733 1267.30432
1170.0 0.000855 995.56927 1255.06226
1146.0 0.000873 995.44153 1243.69324
1099.0 0.000910 995.31384 1233.10876
1072.0 0.000933 995.18616 1223.23206
1107.0 0.000903 995.05890 1213.99597
1161.0 0.000861 994.93201 1205.33984
1147.0 0.000872 994.80499 1197.21277
1129.0 0.000886 994.67822 1189.56763
1092.0 0.000916 994.55176 1182.36414
1067.0 0.000937 994.42517 1175.56616
1086.0 0.000921 994.29895 1169.14075
1081.0 0.000925 994.17279 1163.06018
1051.0 0.000951 994.04681 1157.29810
1039.0 0.000962 993.92126 1151.83118
1041.0 0.000961 993.79602 1146.63879
1066.0 0.000938 993.67072 1141.70166
1067.0 0.000937 993.54559 1137.00269
1047.0 0.000955 993.42041 1132.52576
1031.0 0.000970 993.29578 1128.25671
1026.0 0.000975 993.17090 1124.18225
1034.0 0.000967 993.04669 1120.29004
1022.0 0.000978 992.92236 1116.56909
1046.0 0.000956 992.79852 1113.00903
1064.0 0.000940 992.67438 1109.60010
1095.0 0.000913 992.55090 1106.33350
1079.0 0.000927 992.42743 1103.20129
1049.0 0.000953 992.30408 1100.19531
1052.0 0.000951 992.18109 1097.30884
1098.0 0.000911 992.05798 1084.89099
1049.0 0.000953 991.93536 1082.27173
1036.0 0.000965 991.81293 1079.75342
1028.0 0.000973 991.69061 1077.33032
1020.0 0.000980 991.56842 1074.99731
1048.0 0.000954 991.44635 1072.75012
1001.0 0.000999 991.32465 1070.58411
1049.0 0.000953 991.20294 1068.49500
1046.0 0.000956 991.08142 1066.47949
1073.0 0.000932 990.96039 1064.53357
1065.0 0.000939 990.83936 1062.65393
1040.0 0.000962 990.71851 1060.83752
1048.0 0.000954 990.59772 1059.08130
1034.0 0.000967 990.47729 1057.38232
1001.0 0.000999 990.35699 1055.73816
1035.0 0.000966 990.23694 1054.14612
1019.0 0.000981 990.11707 1052.60376
1028.0 0.000973 989.99738 1051.10913
1041.0 0.000961 989.87799 1049.66016
1035.0 0.000966 989.75861 1048.25476
1075.0 0.000930 989.63965 1046.89087
1047.0 0.000955 989.52057 1045.56677
1040.0 0.000962 989.40198 1044.28113
1056.0 0.000947 989.28333 1043.03186
1076.0 0.000929 989.16498 1041.81799
1034.0 0.000967 989.04700 1040.63782
1060.0 0.000943 988.92908 1039.48962
1012.0 0.000988 988.81116 1038.37268
1100.0 0.000909 988.69342 1037.28516
1101.0 0.000908 988.57629 1036.22681
1089.0 0.000918 988.45923 1035.19580
1060.0 0.000943 988.34235 1034.19141
984.0 0.001016 988.22552 1033.21204
1008.0 0.000992 988.10895 1032.25757
1035.0 0.000966 987.99261 1031.32642
1025.0 0.000976 987.87646 1030.41833
1014.0 0.000986 987.76050 1029.53198
1038.0 0.000963 987.64465 1028.66663
1025.0 0.000976 987.52924 1027.82178
1033.0 0.000968 987.41376 1026.99683
1030.0 0.000971 987.29858 1026.19019
1014.0 0.000986 987.18384 1025.40222
1036.0 0.000965 987.06879 1024.63184
1055.0 0.000948 986.95428 1023.87872
1013.0 0.000987 986.84003 1023.14160
1030.0 0.000971 986.72589 1022.42102
1042.0 0.000960 986.61194 1021.71545
1039.0 0.000962 986.49811 1021.02490
1053.0 0.000950 986.38470 1020.34875
1028.0 0.000973 986.27130 1019.68671
996.0 0.001004 986.15814 1019.03802
1045.0 0.000957 986.04529 1018.40240
1066.0 0.000938 985.93243 1017.77911
1079.0 0.000927 985.81995 1017.16858
1061.0 0.000943 985.70758 1016.56970
1075.0 0.000930 985.59552 1015.98254
1050.0 0.000952 985.48346 1015.40619
1076.0 0.000929 985.37183 1014.84094
1053.0 0.000950 985.26044 1014.28619
1026.0 0.000975 985.14899 1013.74139
1035.0 0.000966 985.03809 1013.20703
1038.0 0.000963 984.92719 1012.68176
1022.0 0.000978 984.81641 1012.16620
1011.0 0.000989 984.70593 1011.65936
999.0 0.001001 984.59558 1011.16156
991.0 0.001009 984.48553 1010.67224
1012.0 0.000988 984.37549 1010.19135
1023.0 0.000978 984.26587 1009.71838
1044.0 0.000958 984.15656 1009.25330
1059.0 0.000944 984.04718 1008.79578
1065.0 0.000939 983.93823 1008.34583
1032.0 0.000969 983.82947 1007.90320
991.0 0.001009 983.72089 1007.46771
1000.0 0.001000 983.61224 1007.03876
988.0 0.001012 983.50421 1006.61700
1005.0 0.000995 983.39606 1006.20111
1019.0 0.000981 983.28839 1005.79205
1056.0 0.000947 983.18066 1005.38892
1045.0 0.000957 983.07349 1004.99200
1085.0 0.000922 982.96643 1004.60077
1052.0 0.000951 982.85931 1004.21533
998.0 0.001002 982.75256 1003.83563
998.0 0.001002 982.64600 1003.46112
1047.0 0.000955 982.53973 1003.09192
1026.0 0.000975 982.43323 1002.72809
1010.0 0.000990 982.32770 1002.36920
993.0 0.001007 982.22186 1002.01538
1015.0 0.000985 982.11639 1001.66614
1020.0 0.000980 982.01117 1001.32190
1028.0 0.000973 981.90607 1000.98199
1042.0 0.000960 981.80121 1000.64661
1044.0 0.000958 981.69659 1000.31567
1033.0 0.000968 981.59210 999.98907
1019.0 0.000981 981.48785 999.66656
1053.0 0.000950 981.38385 999.34827
1062.0 0.000942 981.27985 999.03363
1041.0 0.000961 981.17645 998.72333
1045.0 0.000957 981.07306 998.41669
1040.0 0.000962 980.96985 998.11353
1053.0 0.000950 980.86676 997.81451
1044.0 0.000958 980.76422 997.51880
997.0 0.001003 980.66156 997.22675
965.0 0.001036 980.55920 996.93799
963.0 0.001038 980.45697 996.65247
949.0 0.001054 980.35516 996.37030
932.0 0.001073 980.25336 996.09149
960.0 0.001042 980.15210 995.81561
965.0 0.001036 980.05066 995.54309
959.0 0.001043 979.94971 995.27344
1011.0 0.000989 979.84882 995.00684
1040.0 0.000962 979.74817 994.74316
1064.0 0.000940 979.64764 994.48199
1103.0 0.000907 979.54742 994.22388
1070.0 0.000935 979.44727 993.96838
1074.0 0.000931 979.34760 993.71570
1039.0 0.000962 979.24792 993.46552
1046.0 0.000956 979.14880 993.21826
983.0 0.001017 979.04944 992.97314
975.0 0.001026 978.95056 992.73053
1010.0 0.000990 978.85187 992.49042
1019.0 0.000981 978.75330 992.25281
1028.0 0.000973 978.65509 992.01758
1050.0 0.000952 978.55701 991.78406
1061.0 0.000943 978.45886 991.55347
1056.0 0.000947 978.36145 991.32495
1028.0 0.000973 978.26361 991.09833
989.0 0.001011 978.16650 990.87402
1008.0 0.000992 978.06976 990.65186
976.0 0.001025 977.97260 990.43195
968.0 0.001033 977.87616 990.21368
995.0 0.001005 977.77948 989.99750
1005.0 0.000995 977.68347 989.78326
1002.0 0.000998 977.58746 989.57098
1021.0 0.000979 977.49176 989.36084
1044.0 0.000958 977.39606 989.15198
1019.0 0.000981 977.30072 988.94550
1061.0 0.000943 977.20569 988.74060
1045.0 0.000957 977.11066 988.53760
1024.0 0.000977 977.01599 988.33582
1020.0 0.000980 976.92139 988.13641
1014.0 0.000986 976.82727 987.93829
1005.0 0.000995 976.73309 987.74200
1028.0 0.000973 976.63934 987.54718
1018.0 0.000982 976.54559 987.35400
1048.0 0.000954 976.45227 987.16254
1079.0 0.000927 976.35895 986.97235
1046.0 0.000956 976.26593 986.78375
1039.0 0.000962 976.17334 986.59698
1023.0 0.000978 976.08063 986.41132
1069.0 0.000935 975.98810 986.22717
1068.0 0.000936 975.89624 986.04480
1037.0 0.000964 975.80396 985.86328
1035.0 0.000966 975.71228 985.68372
1037.0 0.000964 975.62079 985.50500
1035.0 0.000966 975.52948 985.32800
1081.0 0.000925 975.43835 985.15210
1022.0 0.000978 975.34741 984.97754
1002.0 0.000998 975.25677 984.80444
1038.0 0.000963 975.16632 984.63263
1023.0 0.000978 975.07611 984.46179
997.0 0.001003 974.98578 984.29230
996.0 0.001004 974.89612 984.12415
1044.0 0.000958 974.80658 983.95703
1020.0 0.000980 974.71704 983.79102
992.0 0.001008 974.62762 983.62634
1036.0 0.000965 974.53864 983.46283
1025.0 0.000976 974.45001 983.30048
1063.0 0.000941 974.36145 983.13934
1048.0 0.000954 974.27283 982.97888
1049.0 0.000953 974.18488 982.81995
1053.0 0.000950 974.09698 982.66199
1013.0 0.000987 974.00909 982.50488
1008.0 0.000992 973.92157 982.34912
1048.0 0.000954 973.83423 982.19427
1041.0 0.000961 973.74713 982.04047
979.0 0.001021 973.66016 981.88757
1000.0 0.001000 973.57330 981.73553
996.0 0.001004 973.48688 981.58484
989.0 0.001011 973.40070 981.43488
996.0 0.001004 973.31464 981.28589
982.0 0.001018 973.22864 981.13794
1029.0 0.000972 973.14294 980.99103
999.0 0.001001 973.05756 980.84479
1022.0 0.000978 972.97229 980.69934
1033.0 0.000968 972.88708 980.55530
1043.0 0.000959 972.80243 980.41162
1009.0 0.000991 972.71796 980.26910
1025.0 0.000976 972.63336 980.12726
1014.0 0.000986 972.54932 979.98663
985.0 0.001015 972.46515 979.84650
1009.0 0.000991 972.38147 979.70752
1024.0 0.000977 972.29761 979.56915
1017.0 0.000983 972.21448 979.43182
1015.0 0.000985 972.13116 979.29486
1037.0 0.000964 972.04828 979.15887
1023.0 0.000978 971.96552 979.02405
1009.0 0.000991 971.88287 978.88953
1002.0 0.000998 971.80072 978.75629
1006.0 0.000994 971.71838 978.62323
1014.0 0.000986 971.63635 978.49109
1052.0 0.000951 971.55450 978.35992
1059.0 0.000944 971.47302 978.22937
1067.0 0.000937 971.39191 978.09961
1062.0 0.000942 971.31067 977.97040
1047.0 0.000955 971.22955 977.84198
1020.0 0.000980 971.14899 977.71442
1021.0 0.000979 971.06824 977.58759
1026.0 0.000975 970.98804 977.46124
1008.0 0.000992 970.90790 977.33569
1019.0 0.000981 970.82776 977.21094
1018.0 0.000982 970.74823 977.08655
1036.0 0.000965 970.66870 976.96301
1059.0 0.000944 970.58929 976.84021
996.0 0.001004 970.51038 976.71777
980.0 0.001020 970.43127 976.59625
1015.0 0.000985 970.35260 976.47534
1027.0 0.000974 970.27399 976.35480
1030.0 0.000971 970.19574 976.23523
1028.0 0.000973 970.11761 976.11627
1026.0 0.000975 970.03979 975.99780
1007.0 0.000993 969.96185 975.87982
1027.0 0.000974 969.88440 975.76270
1018.0 0.000982 969.80719 975.64606
987.0 0.001013 969.73016 975.52985
988.0 0.001012 969.65302 975.41437
1027.0 0.000974 969.57642 975.29962
1005.0 0.000995 969.49976 975.18530
1040.0 0.000962 969.42340 975.07153
1045.0 0.000957 969.34717 974.95825
1026.0 0.000975 969.27136 974.84564
1084.0 0.000923 969.19562 974.73376
1057.0 0.000946 969.12000 974.62231
1017.0 0.000983 969.04474 974.51111
1037.0 0.000964 968.96942 974.40063
1116.0 0.000896 968.89453 974.29089
1078.0 0.000928 968.81976 974.18158
1083.0 0.000923 968.74524 974.07257
1040.0 0.000962 968.67084 973.96460
1018.0 0.000982 968.59680 973.85669
996.0 0.001004 968.52264 973.74933
1036.0 0.000965 968.44879 973.64270
1014.0 0.000986 968.37500 973.53638
1026.0 0.000975 968.30176 973.43054
1025.0 0.000976 968.22870 973.32532
1026.0 0.000975 968.15552 973.22058
1038.0 0.000963 968.08264 973.11633
1032.0 0.000969 968.01007 973.01227
1034.0 0.000967 967.93750 972.90912
1012.0 0.000988 967.86542 972.80627
1000.0 0.001000 967.79315 972.70410
1000.0 0.001000 967.72125 972.60199
1005.0 0.000995 967.64960 972.50043
1019.0 0.000981 967.57806 972.39966
1034.0 0.000967 967.50665 972.29907
1025.0 0.000976 967.43542 972.19904
1041.0 0.000961 967.36456 972.09937
1018.0 0.000982 967.29376 972.00024
1014.0 0.000986 967.22327 971.90149
985.0 0.001015 967.15289 971.80292
1011.0 0.000989 967.08276 971.70538
1013.0 0.000987 967.01263 971.60791
1034.0 0.000967 966.94293 971.51080
1043.0 0.000959 966.87317 971.41412
1016.0 0.000984 966.80377 971.31805
1052.0 0.000951 966.73450 966.73920
1039.0 0.000962 966.66528 966.67029
1031.0 0.000970 966.59650 966.60132
1034.0 0.000967 966.52777 966.53271
1034.0 0.000967 966.45935 966.46399
1024.0 0.000977 966.39087 966.39575
1037.0 0.000964 966.32257 966.32751
1050.0 0.000952 966.25458 966.25952
997.0 0.001003 966.18683 966.19147
1000.0 0.001000 966.11914 966.12421
1015.0 0.000985 966.05145 966.05658
1030.0 0.000971 965.98425 965.98938
1028.0 0.000973 965.91730 965.92230
1010.0 0.000990 965.85028 965.85535
968.0 0.001033 965.78351 965.78845
1009.0 0.000991 965.71686 965.72198
1033.0 0.000968 965.65057 965.65564
1021.0 0.000979 965.58423 965.58942
1046.0 0.000956 965.51831 965.52325
1088.0 0.000919 965.45227 965.45728
1035.0 0.000966 965.38678 965.39166
1018.0 0.000982 965.32123 965.32629
1000.0 0.001000 965.25610 965.26086
987.0 0.001013 965.19073 965.19556
1002.0 0.000998 965.12585 965.13074
1004.0 0.000996 965.06097 965.06592
1037.0 0.000964 964.99622 965.00122
1062.0 0.000942 964.93188 964.93683
1063.0 0.000941 964.86768 964.87238
1073.0 0.000932 964.80328 964.80835
1052.0 0.000951 964.73938 964.74426
997.0 0.001003 964.67560 964.68066
1029.0 0.000972 964.61188 964.61700
1011.0 0.000989 964.54865 964.55353
1024.0 0.000977 964.48517 964.49011
1026.0 0.000975 964.42206 964.42706
1026.0 0.000975 964.35913 964.36414
1011.0 0.000989 964.29645 964.30145
1015.0 0.000985 964.23389 964.23865
1023.0 0.000978 964.17126 964.17621
1032.0 0.000969 964.10907 964.11395
975.0 0.001026 964.04700 964.05212
965.0 0.001036 963.98505 963.99011
992.0 0.001008 963.92310 963.92816
1002.0 0.000998 963.86151 963.86627
1001.0 0.000999 963.80017 963.80511
1000.0 0.001000 963.73889 963.74396
1022.0 0.000978 963.67780 963.68268
1055.0 0.000948 963.61676 963.62177
1086.0 0.000921 963.55566 963.56097
1082.0 0.000924 963.49548 963.50031
1042.0 0.000960 963.43475 963.43982
1009.0 0.000991 963.37427 963.37939
1014.0 0.000986 963.31415 963.31934
1028.0 0.000973 963.25433 963.25909
1009.0 0.000991 963.19446 963.19940
1031.0 0.000970 963.13501 963.13977
1059.0 0.000944 963.07513 963.08008
1021.0 0.000979 963.01581 963.02094
1051.0 0.000951 962.95648 962.96167
1034.0 0.000967 962.89758 962.90253
991.0 0.001009 962.83850 962.84351
990.0 0.001010 962.77979 962.78485
989.0 0.001011 962.72107 962.72620
992.0 0.001008 962.66272 962.66791
999.0 0.001001 962.60431 962.60944
1032.0 0.000969 962.54626 962.55121
1015.0 0.000985 962.48834 962.49316
1040.0 0.000962 962.43048 962.43549
1038.0 0.000963 962.37268 962.37781
1022.0 0.000978 962.31506 962.32025
1019.0 0.000981 962.25800 962.26288
1013.0 0.000987 962.20038 962.20538
1009.0 0.000991 962.14349 962.14838
963.0 0.001038 962.08655 962.09137
999.0 0.001001 962.02979 962.03461
1023.0 0.000978 961.97296 961.97803
1003.0 0.000997 961.91644 961.92145
1013.0 0.000987 961.86005 961.86511
1026.0 0.000975 961.80383 961.80884
1017.0 0.000983 961.74786 961.75281
1003.0 0.000997 961.69202 961.69714
986.0 0.001014 961.63611 961.64105
977.0 0.001024 961.58051 961.58533
983.0 0.001017 961.52496 961.52991
978.0 0.001022 961.46967 961.47455
1000.0 0.001000 961.41425 961.41925
977.0 0.001024 961.35919 961.36432
1000.0 0.001000 961.30426 961.30933
1007.0 0.000993 961.24963 961.25452
1035.0 0.000966 961.19476 961.19977
1045.0 0.000957 961.14020 961.14526
1017.0 0.000983 961.08600 961.09106
980.0 0.001020 961.03174 961.03650
967.0 0.001034 960.97754 960.98248
935.0 0.001070 960.92346 960.92847
965.0 0.001036 960.86969 960.87451
959.0 0.001043 960.81586 960.82092
983.0 0.001017 960.76233 960.76733
995.0 0.001005 960.70898 960.71381
1008.0 0.000992 960.65552 960.66052
958.0 0.001044 960.60217 960.60724
997.0 0.001003 960.54919 960.55432
974.0 0.001027 960.49628 960.50146
934.0 0.001071 960.44342 960.44849
962.0 0.001040 960.39069 960.39581
989.0 0.001011 960.33807 960.34320
998.0 0.001002 960.28589 960.29089
1000.0 0.001000 960.23364 960.23853
968.0 0.001033 960.18134 960.18628
982.0 0.001018 960.12946 960.13446
1023.0 0.000978 960.07745 960.08228
1019.0 0.000981 960.02570 960.03058
977.0 0.001024 959.97394 959.97894
969.0 0.001032 959.92242 959.92731
1002.0 0.000998 959.87091 959.87598
974.0 0.001027 959.81964 959.82452
980.0 0.001020 959.76855 959.77338
990.0 0.001010 959.71729 959.72223
955.0 0.001047 959.66632 959.67120
946.0 0.001057 959.61560 959.62061
962.0 0.001040 959.56482 959.56989
963.0 0.001038 959.51434 959.51923
959.0 0.001043 959.46368 959.46899
969.0 0.001032 959.41333 959.41852
966.0 0.001035 959.36328 959.36829
941.0 0.001063 959.31311 959.31799
971.0 0.001030 959.26306 959.26801
985.0 0.001015 959.21313 959.21808
961.0 0.001041 959.16333 959.16827
977.0 0.001024 959.11377 959.11853
973.0 0.001028 959.06421 959.06909
953.0 0.001049 959.01465 959.01971
931.0 0.001074 958.96533 958.97021
955.0 0.001047 958.91614 958.92126
978.0 0.001022 958.86688 958.87183
934.0 0.001071 958.81805 958.82288
969.0 0.001032 958.76886 958.77399
1010.0 0.000990 958.72021 958.72510
996.0 0.001004 958.67157 958.67651
971.0 0.001030 958.62292 958.62787
1038.0 0.000963 958.57446 958.57916
967.0 0.001034 958.52600 958.53119
996.0 0.001004 958.47778 958.48267
950.0 0.001053 958.42957 958.43445
930.0 0.001075 958.38147 958.38647
935.0 0.001070 958.33362 958.33844
952.0 0.001050 958.28564 958.29053
1011.0 0.000989 958.23810 958.24268
1027.0 0.000974 958.19031 958.19507
1011.0 0.000989 958.14258 958.14734
971.0 0.001030 958.09509 958.09998
922.0 0.001085 958.04773 958.05255
950.0 0.001053 958.00031 958.00525
938.0 0.001066 957.95325 957.95819
943.0 0.001060 957.90601 957.91107
968.0 0.001033 957.85901 957.86414
935.0 0.001070 957.81226 957.81708
948.0 0.001055 957.76538 957.77032
973.0 0.001028 957.71887 957.72369
1010.0 0.000990 957.67206 957.67694
1001.0 0.000999 957.62543 957.63019
951.0 0.001052 957.57898 957.58368
954.0 0.001048 957.53253 957.53735
939.0 0.001065 957.48639 957.49127
927.0 0.001079 957.44012 957.44507
933.0 0.001072 957.39398 957.39868
918.0 0.001089 957.34796 957.35278
892.0 0.001121 957.30225 957.30701
908.0 0.001101 957.25629 957.26086
929.0 0.001076 957.21008 957.21515
939.0 0.001065 957.16467 957.16956
903.0 0.001107 957.11908 957.12378
910.0 0.001099 957.07343 957.07837
927.0 0.001079 957.02795 957.03296
917.0 0.001091 956.98260 956.98743
950.0 0.001053 956.93744 956.94214
971.0 0.001030 956.89209 956.89703
914.0 0.001094 956.84692 956.85187
943.0 0.001060 956.80206 956.80670
934.0 0.001071 956.75696 956.76196
932.0 0.001073 956.71204 956.71698
925.0 0.001081 956.66730 956.67194
956.0 0.001046 956.62262 956.62720
957.0 0.001045 956.57788 956.58264
914.0 0.001094 956.53320 956.53790
965.0 0.001036 956.48883 956.49341
964.0 0.001037 956.44403 956.44885
941.0 0.001063 956.39984 956.40436
931.0 0.001074 956.35529 956.36023
955.0 0.001047 956.31110 956.31567
962.0 0.001040 956.26697 956.27173
961.0 0.001041 956.22284 956.22766
935.0 0.001070 956.17865 956.18335
926.0 0.001080 956.13458 956.13953
935.0 0.001070 956.09070 956.09540
943.0 0.001060 956.04694 956.05157
941.0 0.001063 956.00281 956.00763
951.0 0.001052 955.95923 955.96393
965.0 0.001036 955.91571 955.92035
985.0 0.001015 955.87177 955.87659
928.0 0.001078 955.82843 955.83301
950.0 0.001053 955.78485 955.78955
932.0 0.001073 955.74152 955.74615
951.0 0.001052 955.69806 955.70270
914.0 0.001094 955.65479 955.65942
917.0 0.001091 955.61157 955.61627
884.0 0.001131 955.56824 955.57281
954.0 0.001048 955.52496 955.52960
952.0 0.001050 955.48175 955.48651
979.0 0.001021 955.43872 955.44354
937.0 0.001067 955.39575 955.40033
933.0 0.001072 955.35284 955.35730
944.0 0.001059 955.31018 955.31451
929.0 0.001076 955.26697 955.27173
930.0 0.001075 955.22437 955.22882
916.0 0.001092 955.18146 955.18616
924.0 0.001082 955.13861 955.14325
949.0 0.001054 955.09601 955.10059
940.0 0.001064 955.05341 955.05804
931.0 0.001074 955.01086 955.01532
913.0 0.001095 954.96826 954.97272
893.0 0.001120 954.92572 954.93011
868.0 0.001152 954.88336 954.88794
923.0 0.001083 954.84094 954.84546
932.0 0.001073 954.79852 954.80310
986.0 0.001014 954.75610 954.76062
975.0 0.001026 954.71387 954.71863
952.0 0.001050 954.67151 954.67627
953.0 0.001049 954.62933 954.63385
954.0 0.001048 954.58716 954.59167
976.0 0.001025 954.54517 954.54962
936.0 0.001068 954.50305 954.50763
952.0 0.001050 954.46094 954.46545
933.0 0.001072 954.41876 954.42322
916.0 0.001092 954.37689 954.38116
920.0 0.001087 954.33478 954.33929
907.0 0.001103 954.29285 954.29742
900.0 0.001111 954.25098 954.25543
882.0 0.001134 954.20898 954.21350
900.0 0.001111 954.16718 954.17181
891.0 0.001122 954.12543 954.12988
916.0 0.001092 954.08350 954.08807
911.0 0.001098 954.04187 954.04626
903.0 0.001107 954.00006 954.00439
902.0 0.001109 953.95837 953.96289
941.0 0.001063 953.91656 953.92096
970.0 0.001031 953.87506 953.87946
949.0 0.001054 953.83325 953.83759
926.0 0.001080 953.79156 953.79614
939.0 0.001065 953.75012 953.75433
969.0 0.001032 953.70856 953.71283
917.0 0.001091 953.66687 953.67120
918.0 0.001089 953.62537 953.62958
935.0 0.001070 953.58362 953.58789
953.0 0.001049 953.54224 953.54669
978.0 0.001022 953.50067 953.50513
981.0 0.001019 953.45923 953.46350
946.0 0.001057 953.41766 953.42206
965.0 0.001036 953.37622 953.38055
939.0 0.001065 953.33484 953.33893
925.0 0.001081 953.29346 953.29755
934.0 0.001071 953.25183 953.25623
941.0 0.001063 953.21045 953.21478
947.0 0.001056 953.16913 953.17334
970.0 0.001031 953.12756 953.13214
959.0 0.001043 953.08630 953.09033
992.0 0.001008 953.04486 953.04901
971.0 0.001030 953.00348 953.00769
968.0 0.001033 952.96216 952.96625
978.0 0.001022 952.92072 952.92487
953.0 0.001049 952.87921 952.88361
947.0 0.001056 952.83789 952.84204
940.0 0.001064 952.79657 952.80060
984.0 0.001016 952.75531 952.75940
971.0 0.001030 952.71375 952.71783
926.0 0.001080 952.67242 952.67639
914.0 0.001094 952.63092 952.63507
933.0 0.001072 952.58972 952.59393
955.0 0.001047 952.54834 952.55249
937.0 0.001067 952.50690 952.51117
884.0 0.001131 952.46539 952.46954
886.0 0.001129 952.42426 952.42822
887.0 0.001127 952.38263 952.38678
891.0 0.001122 952.34131 952.34552
922.0 0.001085 952.29999 952.30396
932.0 0.001073 952.25830 952.26270
912.0 0.001096 952.21680 952.22101
919.0 0.001088 952.17560 952.17963
922.0 0.001085 952.13416 952.13806
946.0 0.001057 952.09265 952.09662
935.0 0.001070 952.05127 952.05499
915.0 0.001093 952.00964 952.01361
906.0 0.001104 951.96820 951.97223
919.0 0.001088 951.92645 951.93054
943.0 0.001060 951.88507 951.88910
927.0 0.001079 951.84357 951.84760
903.0 0.001107 951.80194 951.80585
916.0 0.001092 951.76056 951.76422
909.0 0.001100 951.71875 951.72284
901.0 0.001110 951.67712 951.68109
922.0 0.001085 951.63525 951.63928
957.0 0.001045 951.59369 951.59766
958.0 0.001044 951.55206 951.55597
921.0 0.001086 951.51019 951.51416
940.0 0.001064 951.46857 951.47247
941.0 0.001063 951.42682 951.43066
940.0 0.001064 951.38501 951.38892
926.0 0.001080 951.34308 951.34692
942.0 0.001062 951.30139 951.30511
950.0 0.001053 951.25952 951.26324
921.0 0.001086 951.21741 951.22119
917.0 0.001091 951.17566 951.17932
954.0 0.001048 951.13361 951.13721
946.0 0.001057 951.09161 951.09528
922.0 0.001085 951.04944 951.05310
915.0 0.001093 951.00745 951.01123
874.0 0.001144 950.96545 950.96912
891.0 0.001122 950.92316 950.92670
905.0 0.001105 950.88092 950.88458
907.0 0.001103 950.83868 950.84222
902.0 0.001109 950.79663 950.80005
928.0 0.001078 950.75421 950.75781
930.0 0.001075 950.71179 950.71545
925.0 0.001081 950.66937 950.67303
950.0 0.001053 950.62695 950.63068
939.0 0.001065 950.58472 950.58820
930.0 0.001075 950.54224 950.54584
926.0 0.001080 950.49945 950.50317
960.0 0.001042 950.45679 950.46057
962.0 0.001040 950.41437 950.41785
924.0 0.001082 950.37158 950.37518
892.0 0.001121 950.32874 950.33246
881.0 0.001135 950.28632 950.28949
921.0 0.001086 950.24316 950.24689
918.0 0.001089 950.20020 950.20380
981.0 0.001019 950.15747 950.16089
970.0 0.001031 950.11444 950.11792
971.0 0.001030 950.07129 950.07489
944.0 0.001059 950.02832 950.03186
900.0 0.001111 949.98523 949.98859
906.0 0.001104 949.94208 949.94550
909.0 0.001100 949.89880 949.90222
905.0 0.001105 949.85529 949.85889
913.0 0.001095 949.81219 949.81549
945.0 0.001058 949.76874 949.77197
914.0 0.001094 949.72540 949.72876
891.0 0.001122 949.68170 949.68506
925.0 0.001081 949.63788 949.64142
929.0 0.001076 949.59436 949.59784
946.0 0.001057 949.55078 949.55408
952.0 0.001050 949.50696 949.51019
964.0 0.001037 949.46307 949.46631
971.0 0.001030 949.41913 949.42242
944.0 0.001059 949.37494 949.37848
934.0 0.001071 949.33124 949.33441
911.0 0.001098 949.28723 949.29028
895.0 0.001117 949.24286 949.24615
907.0 0.001103 949.19867 949.20190
928.0 0.001078 949.15430 949.15729
948.0 0.001055 949.10999 949.11316
915.0 0.001093 949.06531 949.06873
896.0 0.001116 949.02094 949.02411
961.0 0.001041 948.97644 948.97949
925.0 0.001081 948.93170 948.93475
941.0 0.001063 948.88702 948.89020
915.0 0.001093 948.84222 948.84540
928.0 0.001078 948.79718 948.80035
973.0 0.001028 948.75226 948.75537
972.0 0.001029 948.70734 948.71033
927.0 0.001079 948.66217 948.66534
918.0 0.001089 948.61707 948.62012
904.0 0.001106 948.57172 948.57471
955.0 0.001047 948.52643 948.52948
934.0 0.001071 948.48114 948.48401
875.0 0.001143 948.43555 948.43842
882.0 0.001134 948.38977 948.39294
928.0 0.001078 948.34418 948.34705
1056.0 0.000947 948.29834 948.30139
994.0 0.001006 948.25262 948.25549
969.0 0.001032 948.20660 948.20947
979.0 0.001021 948.16064 948.16364
923.0 0.001083 948.11432 948.11737
916.0 0.001092 948.06830 948.07117
941.0 0.001063 948.02209 948.02478
953.0 0.001049 947.97565 947.97852
968.0 0.001033 947.92902 947.93195
947.0 0.001056 947.88239 947.88538
914.0 0.001094 947.83588 947.83881
948.0 0.001055 947.78918 947.79205
932.0 0.001073 947.74243 947.74512
914.0 0.001094 947.69525 947.69824
903.0 0.001107 947.64856 947.65106
934.0 0.001071 947.60132 947.60394
953.0 0.001049 947.55420 947.55670
928.0 0.001078 947.50659 947.50946
929.0 0.001076 947.45941 947.46216
916.0 0.001092 947.41174 947.41461
940.0 0.001064 947.36438 947.36682
937.0 0.001067 947.31653 947.31903
915.0 0.001093 947.26862 947.27124
911.0 0.001098 947.22083 947.22339
911.0 0.001098 947.17279 947.17529
901.0 0.001110 947.12451 947.12714
906.0 0.001104 947.07629 947.07898
904.0 0.001106 947.02808 947.03058
882.0 0.001134 946.97961 946.98218
890.0 0.001124 946.93115 946.93365
925.0 0.001081 946.88251 946.88495
963.0 0.001038 946.83368 946.83606
1009.0 0.000991 946.78491 946.78717
984.0 0.001016 946.73584 946.73816
935.0 0.001070 946.68665 946.68927
900.0 0.001111 946.63757 946.64001
889.0 0.001125 946.58813 946.59033
935.0 0.001070 946.53870 946.54102
947.0 0.001056 946.48901 946.49152
961.0 0.001041 946.43958 946.44171
945.0 0.001058 946.39001 946.39215
921.0 0.001086 946.34015 946.34235
933.0 0.001072 946.29010 946.29230
971.0 0.001030 946.24011 946.24213
917.0 0.001091 946.18964 946.19183
876.0 0.001142 946.13910 946.14154
859.0 0.001164 946.08844 946.09088
876.0 0.001142 946.03802 946.04047
881.0 0.001135 945.98755 945.98975
929.0 0.001076 945.93665 945.93860
965.0 0.001036 945.88550 945.88782
968.0 0.001033 945.83453 945.83655
903.0 0.001107 945.78333 945.78534
913.0 0.001095 945.73206 945.73413
944.0 0.001059 945.68066 945.68250
946.0 0.001057 945.62903 945.63092
951.0 0.001052 945.57733 945.57928
934.0 0.001071 945.52557 945.52747
933.0 0.001072 945.47345 945.47552
957.0 0.001045 945.42151 945.42352
950.0 0.001053 945.36914 945.37115
951.0 0.001052 945.31689 945.31866
898.0 0.001114 945.26428 945.26624
896.0 0.001116 945.21191 945.21350
895.0 0.001117 945.15900 945.16095
908.0 0.001101 945.10602 945.10797
904.0 0.001106 945.05316 945.05487
917.0 0.001091 944.99982 945.00183
908.0 0.001101 944.94678 944.94867
898.0 0.001114 944.89331 944.89502
924.0 0.001082 944.83972 944.84143
936.0 0.001068 944.78607 944.78784
908.0 0.001101 944.73212 944.73395
910.0 0.001099 944.67816 944.67963
960.0 0.001042 944.62415 944.62561
990.0 0.001010 944.56976 944.57147
953.0 0.001049 944.51544 944.51703
932.0 0.001073 944.46088 944.46246
917.0 0.001091 944.40631 944.40778
906.0 0.001104 944.35138 944.35284
915.0 0.001093 944.29651 944.29810
892.0 0.001121 944.24139 944.24274
897.0 0.001115 944.18604 944.18756
902.0 0.001109 944.13068 944.13202
928.0 0.001078 944.07520 944.07648
957.0 0.001045 944.01953 944.02087
937.0 0.001067 943.96356 943.96490
894.0 0.001119 943.90753 943.90875
872.0 0.001147 943.85144 943.85272
907.0 0.001103 943.79498 943.79645
879.0 0.001138 943.73853 943.74005
893.0 0.001120 943.68207 943.68353
890.0 0.001124 943.62518 943.62677
932.0 0.001073 943.56842 943.56989
932.0 0.001073 943.51135 943.51245
944.0 0.001059 943.45404 943.45532
936.0 0.001068 943.39667 943.39801
897.0 0.001115 943.33923 943.34052
886.0 0.001129 943.28162 943.28278
882.0 0.001134 943.22363 943.22491
892.0 0.001121 943.16589 943.16693
918.0 0.001089 943.10754 943.10876
889.0 0.001125 943.04938 943.05029
928.0 0.001078 942.99072 942.99182
931.0 0.001074 942.93219 942.93323
911.0 0.001098 942.87354 942.87457
917.0 0.001091 942.81439 942.81549
924.0 0.001082 942.75525 942.75641
917.0 0.001091 942.69592 942.69727
933.0 0.001072 942.63660 942.63757
926.0 0.001080 942.57703 942.57794
936.0 0.001068 942.51721 942.51813
912.0 0.001096 942.45740 942.45837
917.0 0.001091 942.39722 942.39795
900.0 0.001111 942.33685 942.33789
938.0 0.001066 942.27637 942.27722
940.0 0.001064 942.21576 942.21661
915.0 0.001093 942.15497 942.15588
911.0 0.001098 942.09412 942.09503
945.0 0.001058 942.03302 942.03387
927.0 0.001079 941.97174 941.97253
905.0 0.001105 941.91034 941.91089
902.0 0.001109 941.84863 941.84930
995.0 0.001005 941.78693 941.78741
987.0 0.001013 941.72479 941.72540
1010.0 0.000990 941.66278 941.66333
991.0 0.001009 941.60046 941.60101
971.0 0.001030 941.53796 941.53851
977.0 0.001024 941.47528 941.47583
945.0 0.001058 941.41229 941.41309
942.0 0.001062 941.34955 941.34998
944.0 0.001059 941.28619 941.28674
951.0 0.001052 941.22278 941.22339
930.0 0.001075 941.15924 941.15973
907.0 0.001103 941.09552 941.09595
911.0 0.001098 941.03149 941.03204
893.0 0.001120 940.96747 940.96777
911.0 0.001098 940.90332 940.90356
909.0 0.001100 940.83862 940.83905
908.0 0.001101 940.77393 940.77441
907.0 0.001103 940.70917 940.70947
939.0 0.001065 940.64410 940.64459
946.0 0.001057 940.57892 940.57935
916.0 0.001092 940.51379 940.51398
883.0 0.001133 940.44812 940.44836
928.0 0.001078 940.38232 940.38257
943.0 0.001060 940.31641 940.31665
928.0 0.001078 940.25006 940.25043
918.0 0.001089 940.18396 940.18414
929.0 0.001076 940.11731 940.11755
884.0 0.001131 940.05072 940.05096
900.0 0.001111 939.98389 939.98401
895.0 0.001117 939.91687 939.91711
920.0 0.001087 939.84943 939.84973
909.0 0.001100 939.78223 939.78204
889.0 0.001125 939.71466 939.71448
897.0 0.001115 939.64667 939.64655
902.0 0.001109 939.57861 939.57855
896.0 0.001116 939.51025 939.51031
895.0 0.001117 939.44202 939.44208
877.0 0.001140 939.37341 939.37305
907.0 0.001103 939.30457 939.30438
932.0 0.001073 939.23547 939.23517
935.0 0.001070 939.16644 939.16626
931.0 0.001074 939.09692 939.09680
923.0 0.001083 939.02734 939.02734
896.0 0.001116 938.95746 938.95728
917.0 0.001091 938.88770 938.88757
926.0 0.001080 938.81750 938.81714
928.0 0.001078 938.74701 938.74677
913.0 0.001095 938.67651 938.67603
945.0 0.001058 938.60583 938.60553
947.0 0.001056 938.53461 938.53418
939.0 0.001065 938.46338 938.46326
931.0 0.001074 938.39209 938.39172
940.0 0.001064 938.32056 938.32001
949.0 0.001054 938.24878 938.24817
953.0 0.001049 938.17664 938.17621
924.0 0.001082 938.10449 938.10394
904.0 0.001106 938.03198 938.03162
894.0 0.001119 937.95935 937.95886
935.0 0.001070 937.88647 937.88611
953.0 0.001049 937.81360 937.81299
923.0 0.001083 937.74036 937.73975
909.0 0.001100 937.66687 937.66626
963.0 0.001038 937.59332 937.59283
943.0 0.001060 937.51947 937.51862
971.0 0.001030 937.44543 937.44470
960.0 0.001042 937.37109 937.37018
931.0 0.001074 937.29657 937.29590
990.0 0.001010 937.22192 937.22113
942.0 0.001062 937.14716 937.14612
957.0 0.001045 937.07196 937.07104
997.0 0.001003 936.99677 936.99579
999.0 0.001001 936.92120 936.92041
1043.0 0.000959 936.84521 936.84418
987.0 0.001013 936.76941 936.76849
1011.0 0.000989 936.69312 936.69238
994.0 0.001006 936.61688 936.61591
942.0 0.001062 936.54010 936.53906
946.0 0.001057 936.46350 936.46222
917.0 0.001091 936.38635 936.38519
890.0 0.001124 936.30927 936.30817
926.0 0.001080 936.23181 936.23041
950.0 0.001053 936.15399 936.15295
953.0 0.001049 936.07617 936.07489
913.0 0.001095 935.99805 935.99652
930.0 0.001075 935.91949 935.91821
928.0 0.001078 935.84094 935.83978
962.0 0.001040 935.76227 935.76099
964.0 0.001037 935.68329 935.68188
971.0 0.001030 935.60400 935.60284
936.0 0.001068 935.52472 935.52344
942.0 0.001062 935.44507 935.44366
926.0 0.001080 935.36505 935.36371
940.0 0.001064 935.28491 935.28351
930.0 0.001075 935.20465 935.20331
914.0 0.001094 935.12402 935.12256
921.0 0.001086 935.04346 935.04199
912.0 0.001096 934.96240 934.96106
907.0 0.001103 934.88123 934.87952
901.0 0.001110 934.79993 934.79816
894.0 0.001119 934.71796 934.71649
943.0 0.001060 934.63623 934.63446
963.0 0.001038 934.55420 934.55249
942.0 0.001062 934.47192 934.47009
967.0 0.001034 934.38940 934.38751
913.0 0.001095 934.30634 934.30457
963.0 0.001038 934.22345 934.22156
943.0 0.001060 934.14001 934.13831
923.0 0.001083 934.05670 934.05481
938.0 0.001066 933.97314 933.97107
911.0 0.001098 933.88904 933.88727
909.0 0.001100 933.80493 933.80304
913.0 0.001095 933.72064 933.71863
953.0 0.001049 933.63574 933.63409
951.0 0.001052 933.55109 933.54907
927.0 0.001079 933.46600 933.46411
946.0 0.001057 933.38055 933.37872
934.0 0.001071 933.29517 933.29297
923.0 0.001083 933.20953 933.20721
918.0 0.001089 933.12329 933.12122
887.0 0.001127 933.03711 933.03497
948.0 0.001055 932.95074 932.94843
924.0 0.001082 932.86407 932.86188
889.0 0.001125 932.77698 932.77472
854.0 0.001171 932.68976 932.68762
869.0 0.001151 932.60248 932.59998
902.0 0.001109 932.51477 932.51239
919.0 0.001088 932.42688 932.42438
914.0 0.001094 932.33875 932.33624
923.0 0.001083 932.25049 932.24799
950.0 0.001053 932.16193 932.15961
953.0 0.001049 932.07288 932.07074
947.0 0.001056 931.98407 931.98151
952.0 0.001050 931.89478 931.89227
960.0 0.001042 931.80518 931.80273
978.0 0.001022 931.71539 931.71307
974.0 0.001027 931.62555 931.62286
952.0 0.001050 931.53516 931.53259
989.0 0.001011 931.44458 931.44214
962.0 0.001040 931.35406 931.35138
955.0 0.001047 931.26300 931.26044
959.0 0.001043 931.17181 931.16919
916.0 0.001092 931.08044 931.07776
921.0 0.001086 930.98865 930.98584
976.0 0.001025 930.89679 930.89398
970.0 0.001031 930.80475 930.80200
931.0 0.001074 930.71210 930.70947
907.0 0.001103 930.61963 930.61694
927.0 0.001079 930.52679 930.52374
933.0 0.001072 930.43365 930.43091
922.0 0.001085 930.34027 930.33734
903.0 0.001107 930.24646 930.24365
939.0 0.001065 930.15283 930.14972
929.0 0.001076 930.05853 930.05566
935.0 0.001070 929.96423 929.96118
969.0 0.001032 929.86969 929.86676
957.0 0.001045 929.77502 929.77191
913.0 0.001095 929.67969 929.67676
932.0 0.001073 929.58435 929.58142
946.0 0.001057 929.48895 929.48590
968.0 0.001033 929.39313 929.39014
955.0 0.001047 929.29712 929.29382
933.0 0.001072 929.20081 929.19757
909.0 0.001100 929.10419 929.10101
900.0 0.001111 929.00739 929.00415
887.0 0.001127 928.91028 928.90723
891.0 0.001122 928.81317 928.80975
902.0 0.001109 928.71570 928.71222
948.0 0.001055 928.61780 928.61438
966.0 0.001035 928.51984 928.51636
939.0 0.001065 928.42145 928.41809
959.0 0.001043 928.32300 928.31958
911.0 0.001098 928.22406 928.22076
930.0 0.001075 928.12512 928.12183
933.0 0.001072 928.02588 928.02246
914.0 0.001094 927.92657 927.92291
922.0 0.001085 927.82690 927.82312
922.0 0.001085 927.72668 927.72302
940.0 0.001064 927.62646 927.62268
913.0 0.001095 927.52576 927.52222
946.0 0.001057 927.42505 927.42139
945.0 0.001058 927.32428 927.32050
922.0 0.001085 927.22290 927.21918
915.0 0.001093 927.12140 927.11780
887.0 0.001127 927.01971 927.01575
908.0 0.001101 926.91748 926.91376
896.0 0.001116 926.81537 926.81165
935.0 0.001070 926.71283 926.70911
947.0 0.001056 926.61011 926.60608
945.0 0.001058 926.50714 926.50323
926.0 0.001080 926.40387 926.40002
923.0 0.001083 926.30035 926.29626
936.0 0.001068 926.19647 926.19244
929.0 0.001076 926.09235 926.08838
908.0 0.001101 925.98828 925.98419
905.0 0.001105 925.88354 925.87964
908.0 0.001101 925.77893 925.77484
943.0 0.001060 925.67389 925.66962
975.0 0.001026 925.56848 925.56451
939.0 0.001065 925.46307 925.45892
928.0 0.001078 925.35736 925.35297
916.0 0.001092 925.25098 925.24689
915.0 0.001093 925.14484 925.14075
928.0 0.001078 925.03827 925.03406
949.0 0.001054 924.93140 924.92737
978.0 0.001022 924.82452 924.82013
1012.0 0.000988 924.71692 924.71289
994.0 0.001006 924.60956 924.60529
961.0 0.001041 924.50183 924.49738
938.0 0.001066 924.39355 924.38940
970.0 0.001031 924.28534 924.28088
987.0 0.001013 924.17657 924.17230
935.0 0.001070 924.06781 924.06323
1010.0 0.000990 923.95856 923.95435
1040.0 0.000962 923.84949 923.84485
945.0 0.001058 923.73981 923.73523
954.0 0.001048 923.63000 923.62531
934.0 0.001071 923.51984 923.51526
920.0 0.001087 923.40936 923.40460
921.0 0.001086 923.29871 923.29395
923.0 0.001083 923.18774 923.18304
936.0 0.001068 923.07666 923.07196
927.0 0.001079 922.96509 922.96045
953.0 0.001049 922.85370 922.84863
944.0 0.001059 922.74152 922.73700
921.0 0.001086 922.62958 922.62469
944.0 0.001059 922.51703 922.51215
981.0 0.001019 922.40436 922.39941
1007.0 0.000993 922.29156 922.28650
1029.0 0.000972 922.17822 922.17322
1007.0 0.000993 922.06476 922.05969
1040.0 0.000962 921.95093 921.94604
1060.0 0.000943 921.83698 921.83203
988.0 0.001012 921.72296 921.71783
1005.0 0.000995 921.60815 921.60333
997.0 0.001003 921.49371 921.48846
973.0 0.001028 921.37860 921.37354
976.0 0.001025 921.26355 921.25836
984.0 0.001016 921.14783 921.14258
986.0 0.001014 921.03204 921.02686
979.0 0.001021 920.91595 920.91089
1048.0 0.000954 920.79980 920.79449
1080.0 0.000926 920.68317 920.67780
1040.0 0.000962 920.56628 920.56097
993.0 0.001007 920.44940 920.44391
957.0 0.001045 920.33197 920.32666
966.0 0.001035 920.21448 920.20898
964.0 0.001037 920.09650 920.09119
948.0 0.001055 919.97858 919.97308
952.0 0.001050 919.86011 919.85461
946.0 0.001057 919.74152 919.73596
947.0 0.001056 919.62256 919.61694
961.0 0.001041 919.50348 919.49799
989.0 0.001011 919.38416 919.37860
949.0 0.001054 919.26453 919.25885
926.0 0.001080 919.14459 919.13898
899.0 0.001112 919.02435 919.01886
906.0 0.001104 918.90411 918.89813
906.0 0.001104 918.78326 918.77765
925.0 0.001081 918.66241 918.65662
931.0 0.001074 918.54138 918.53552
921.0 0.001086 918.41974 918.41388
899.0 0.001112 918.29803 918.29224
895.0 0.001117 918.17615 918.17010
914.0 0.001094 918.05408 918.04785
907.0 0.001103 917.93152 917.92548
894.0 0.001119 917.80865 917.80267
905.0 0.001105 917.68561 917.67969
886.0 0.001129 917.56238 917.55627
876.0 0.001142 917.43903 917.43286
857.0 0.001167 917.31500 917.30908
843.0 0.001186 917.19110 917.18488
863.0 0.001159 917.06677 917.06085
921.0 0.001086 916.94244 916.93622
921.0 0.001086 916.81732 916.81134
888.0 0.001126 916.69250 916.68628
852.0 0.001174 916.56696 916.56097
861.0 0.001161 916.44135 916.43530
887.0 0.001127 916.31555 916.30927
874.0 0.001144 916.18958 916.18329
903.0 0.001107 916.06329 916.05701
897.0 0.001115 915.93652 915.93036
862.0 0.001160 915.80975 915.80341
870.0 0.001149 915.68268 915.67639
860.0 0.001163 915.55530 915.54907
898.0 0.001114 915.42767 915.42114
903.0 0.001107 915.29956 915.29346
896.0 0.001116 915.17145 915.16504
880.0 0.001136 915.04315 915.03644
856.0 0.001168 914.91449 914.90808
890.0 0.001124 914.78577 914.77911
920.0 0.001087 914.65643 914.64978
911.0 0.001098 914.52704 914.52045
882.0 0.001134 914.39734 914.39075
885.0 0.001130 914.26727 914.26062
870.0 0.001149 914.13715 914.13049
863.0 0.001159 914.00665 914.00006
884.0 0.001131 913.87622 913.86938
920.0 0.001087 913.74500 913.73822
900.0 0.001111 913.61377 913.60712
881.0 0.001135 913.48236 913.47552
894.0 0.001119 913.35071 913.34375
891.0 0.001122 913.21875 913.21173
915.0 0.001093 913.08624 913.07953
899.0 0.001112 912.95386 912.94684
892.0 0.001121 912.82111 912.81415
906.0 0.001104 912.68805 912.68109
891.0 0.001122 912.55463 912.54785
911.0 0.001098 912.42120 912.41418
880.0 0.001136 912.28735 912.28064
871.0 0.001148 912.15356 912.14648
905.0 0.001105 912.01917 912.01221
895.0 0.001117 911.88464 911.87756
893.0 0.001120 911.74982 911.74268
892.0 0.001121 911.61481 911.60767
852.0 0.001174 911.47955 911.47241
834.0 0.001199 911.34393 911.33691
865.0 0.001156 911.20807 911.20099
884.0 0.001131 911.07214 911.06482
870.0 0.001149 910.93579 910.92853
849.0 0.001178 910.79907 910.79181
834.0 0.001199 910.66248 910.65503
858.0 0.001166 910.52539 910.51801
872.0 0.001147 910.38812 910.38068
890.0 0.001124 910.25061 910.24310
914.0 0.001094 910.11261 910.10529
911.0 0.001098 909.97455 909.96716
905.0 0.001105 909.83618 909.82886
913.0 0.001095 909.69763 909.69025
886.0 0.001129 909.55884 909.55127
894.0 0.001119 909.41974 909.41211
897.0 0.001115 909.28027 909.27283
903.0 0.001107 909.14075 909.13342
907.0 0.001103 909.00122 908.99353
887.0 0.001127 908.86090 908.85339
922.0 0.001085 908.72064 908.71301
920.0 0.001087 908.58008 908.57239
883.0 0.001133 908.43909 908.43164
864.0 0.001157 908.29797 908.29028
839.0 0.001192 908.15668 908.14893
883.0 0.001133 908.01514 908.00751
883.0 0.001133 907.87329 907.86566
875.0 0.001143 907.73120 907.72345
895.0 0.001117 907.58899 907.58112
893.0 0.001120 907.44629 907.43842
888.0 0.001126 907.30341 907.29559
919.0 0.001088 907.16046 907.15247
870.0 0.001149 907.01721 907.00928
875.0 0.001143 906.87372 906.86554
864.0 0.001157 906.72974 906.72174
855.0 0.001170 906.58575 906.57782
910.0 0.001099 906.44128 906.43335
919.0 0.001088 906.29663 906.28882
890.0 0.001124 906.15198 906.14380
865.0 0.001156 906.00702 905.99884
882.0 0.001134 905.86176 905.85358
876.0 0.001142 905.71619 905.70813
858.0 0.001166 905.57043 905.56232
860.0 0.001163 905.42432 905.41620
848.0 0.001179 905.27820 905.27008
850.0 0.001176 905.13153 905.12335
844.0 0.001185 904.98486 904.97668
843.0 0.001186 904.83777 904.82953
876.0 0.001142 904.69067 904.68225
861.0 0.001161 904.54333 904.53485
826.0 0.001211 904.39551 904.38715
868.0 0.001152 904.24731 904.23901
895.0 0.001117 904.09906 904.09082
923.0 0.001083 903.95087 903.94238
878.0 0.001139 903.80212 903.79370
868.0 0.001152 903.65332 903.64484
870.0 0.001149 903.50397 903.49554
847.0 0.001181 903.35468 903.34625
868.0 0.001152 903.20483 903.19653
852.0 0.001174 903.05511 903.04657
843.0 0.001186 902.90491 902.89624
847.0 0.001181 902.75470 902.74609
821.0 0.001218 902.60388 902.59540
842.0 0.001188 902.45319 902.44458
866.0 0.001155 902.30206 902.29340
879.0 0.001138 902.15057 902.14209
842.0 0.001188 901.99915 901.99054
811.0 0.001233 901.84747 901.83850
802.0 0.001247 901.69531 901.68665
838.0 0.001193 901.54297 901.53430
853.0 0.001172 901.39056 901.38184
867.0 0.001153 901.23773 901.22894
887.0 0.001127 901.08472 901.07599
880.0 0.001136 900.93146 900.92267
852.0 0.001174 900.77789 900.76917
831.0 0.001203 900.62433 900.61572
846.0 0.001182 900.47034 900.46167
834.0 0.001199 900.31628 900.30750
835.0 0.001198 900.16193 900.15289
840.0 0.001190 900.00745 899.99829
825.0 0.001212 899.85242 899.84344
847.0 0.001181 899.69733 899.68835
862.0 0.001160 899.54199 899.53296
850.0 0.001176 899.38629 899.37738
840.0 0.001190 899.23083 899.22168
858.0 0.001166 899.07483 899.06549
850.0 0.001176 898.91833 898.90948
829.0 0.001206 898.76202 898.75269
824.0 0.001214 898.60522 898.59613
857.0 0.001167 898.44843 898.43915
867.0 0.001153 898.29120 898.28192
869.0 0.001151 898.13385 898.12445
853.0 0.001172 897.97601 897.96692
831.0 0.001203 897.81812 897.80902
839.0 0.001192 897.65997 897.65100
876.0 0.001142 897.50208 897.49261
872.0 0.001147 897.34332 897.33405
888.0 0.001126 897.18451 897.17523
857.0 0.001167 897.02557 897.01617
845.0 0.001183 896.86633 896.85699
865.0 0.001156 896.70703 896.69769
876.0 0.001142 896.54736 896.53802
849.0 0.001178 896.38745 896.37811
815.0 0.001227 896.22736 896.21790
814.0 0.001229 896.06689 896.05756
823.0 0.001215 895.90643 895.89709
868.0 0.001152 895.74567 895.73615
896.0 0.001116 895.58466 895.57526
865.0 0.001156 895.42340 895.41394
856.0 0.001168 895.26208 895.25244
858.0 0.001166 895.10034 895.09076
855.0 0.001170 894.93854 894.92908
862.0 0.001160 894.77649 894.76678
852.0 0.001174 894.61401 894.60449
818.0 0.001222 894.45142 894.44189
856.0 0.001168 894.28876 894.27911
880.0 0.001136 894.12579 894.11603
868.0 0.001152 893.96252 893.95288
843.0 0.001186 893.79926 893.78943
828.0 0.001208 893.63562 893.62561
848.0 0.001179 893.47168 893.46173
863.0 0.001159 893.30743 893.29785
857.0 0.001167 893.14343 893.13354
856.0 0.001168 892.97876 892.96912
851.0 0.001175 892.81409 892.80444
859.0 0.001164 892.64923 892.63947
877.0 0.001140 892.48401 892.47406
853.0 0.001172 892.31873 892.30878
846.0 0.001182 892.15320 892.14331
843.0 0.001186 891.98737 891.97742
857.0 0.001167 891.82147 891.81134
871.0 0.001148 891.65521 891.64520
892.0 0.001121 891.48883 891.47876
907.0 0.001103 891.32227 891.31219
858.0 0.001166 891.15546 891.14539
840.0 0.001190 890.98846 890.97833
859.0 0.001164 890.82111 890.81104
873.0 0.001145 890.65375 890.64343
888.0 0.001126 890.48590 890.47577
867.0 0.001153 890.31799 890.30811
855.0 0.001170 890.14990 890.13983
865.0 0.001156 889.98175 889.97150
839.0 0.001192 889.81311 889.80292
856.0 0.001168 889.64459 889.63434
889.0 0.001125 889.47565 889.46527
882.0 0.001134 889.30640 889.29626
878.0 0.001139 889.13708 889.12689
862.0 0.001160 888.96759 888.95752
832.0 0.001202 888.79767 888.78766
810.0 0.001235 888.62793 888.61768
802.0 0.001247 888.45795 888.44751
832.0 0.001202 888.28754 888.27710
843.0 0.001186 888.11707 888.10645
873.0 0.001145 887.94635 887.93591
883.0 0.001133 887.77539 887.76501
869.0 0.001151 887.60413 887.59381
908.0 0.001101 887.43286 887.42261
900.0 0.001111 887.26141 887.25092
898.0 0.001114 887.08978 887.07928
871.0 0.001148 886.91772 886.90735
853.0 0.001172 886.74567 886.73523
842.0 0.001188 886.57336 886.56299
846.0 0.001182 886.40088 889.15680
826.0 0.001211 886.22815 889.00488
844.0 0.001185 886.05524 888.85272
873.0 0.001145 885.88202 890.56708
858.0 0.001166 885.70892 890.42670
866.0 0.001155 885.53522 890.28656
857.0 0.001167 885.36176 890.14642
848.0 0.001179 885.18787 890.00647
830.0 0.001205 885.01379 889.86670
868.0 0.001152 884.83954 889.72723
866.0 0.001155 884.66504 889.58789
857.0 0.001167 884.49054 889.44873
861.0 0.001161 884.31586 889.30981
876.0 0.001142 884.14063 889.17096
852.0 0.001174 883.96552 889.03229
842.0 0.001188 883.79016 888.89410
866.0 0.001155 883.61475 888.75592
844.0 0.001185 883.43884 888.61810
838.0 0.001193 883.26282 888.48059
816.0 0.001225 883.08691 888.34302
808.0 0.001238 882.91040 888.20599
852.0 0.001174 882.73401 888.06903
862.0 0.001160 882.55737 887.93237
854.0 0.001171 882.38049 887.79620
841.0 0.001189 882.20349 887.65997
809.0 0.001236 882.02618 887.52429
827.0 0.001209 881.84882 887.38892
856.0 0.001168 881.67126 887.25360
843.0 0.001186 881.49347 887.11859
828.0 0.001208 881.31555 886.98450
835.0 0.001198 881.13739 886.85004
835.0 0.001198 880.95917 886.71625
818.0 0.001222 880.78082 886.58282
844.0 0.001185 880.60211 886.44977
853.0 0.001172 880.42322 886.31689
843.0 0.001186 880.24420 886.18439
891.0 0.001122 880.06506 886.05255
863.0 0.001159 879.88586 885.92090
848.0 0.001179 879.70624 885.78949
894.0 0.001119 879.52649 885.65869
869.0 0.001151 879.34668 885.52844
892.0 0.001121 879.16656 885.39856
849.0 0.001178 878.98657 885.26910
824.0 0.001214 878.80609 885.13995
796.0 0.001256 878.62561 885.01160
797.0 0.001255 878.44489 884.88361
860.0 0.001163 878.26392 884.75586
891.0 0.001122 878.08289 884.62872
892.0 0.001121 877.90161 884.50232
931.0 0.001074 877.72028 884.37622
916.0 0.001092 877.53882 884.25067
904.0 0.001106 877.35706 884.12573
877.0 0.001140 877.17511 884.00140
889.0 0.001125 876.99304 883.87762
869.0 0.001151 876.81116 883.75458
844.0 0.001185 876.62872 883.63214
826.0 0.001211 876.44611 883.50989
836.0 0.001196 876.26349 883.38867
853.0 0.001172 876.08057 883.26794
841.0 0.001189 875.89764 883.14801
840.0 0.001190 875.71429 883.02869
847.0 0.001181 875.53076 882.91022
819.0 0.001221 875.34753 882.79242
819.0 0.001221 875.16388 882.67523
828.0 0.001208 874.97992 882.55872
843.0 0.001186 874.79620 882.44318
844.0 0.001185 874.61206 882.32825
834.0 0.001199 874.42755 882.21429
829.0 0.001206 874.24310 882.10089
887.0 0.001127 874.05865 881.98877
885.0 0.001130 873.87390 881.87732
897.0 0.001115 873.68903 881.76672
877.0 0.001140 873.50409 881.65692
873.0 0.001145 873.31897 881.54810
901.0 0.001110 873.13348 881.44025
927.0 0.001079 872.94806 881.33337
917.0 0.001091 872.76257 881.22729
895.0 0.001117 872.57672 881.12256
883.0 0.001133 872.39075 881.01892
949.0 0.001054 872.20459 880.91602
923.0 0.001083 872.01837 880.81433
879.0 0.001138 871.83215 880.71381
881.0 0.001135 871.64551 880.61450
884.0 0.001131 871.45886 880.51611
854.0 0.001171 871.27216 880.41895
838.0 0.001193 871.08514 880.32306
845.0 0.001183 870.89801 880.22858
846.0 0.001182 870.71088 880.13525
848.0 0.001179 870.52350 880.04321
861.0 0.001161 870.33600 879.95245
886.0 0.001129 870.14832 879.86353
891.0 0.001122 869.96069 879.77539
870.0 0.001149 869.77271 879.68878
911.0 0.001098 869.58441 879.60388
886.0 0.001129 869.39636 879.52051
885.0 0.001130 869.20825 879.43884
909.0 0.001100 869.01959 879.35834
919.0 0.001088 868.83093 879.27966
932.0 0.001073 868.64252 879.20270
886.0 0.001129 868.45343 879.12720
895.0 0.001117 868.26459 879.05365
893.0 0.001120 868.07520 878.98175
911.0 0.001098 867.88599 878.91174
909.0 0.001100 867.69672 878.84393
875.0 0.001143 867.50732 878.77771
919.0 0.001088 867.31738 878.71356
926.0 0.001080 867.12775 878.65137
910.0 0.001099 866.93787 878.59131
892.0 0.001121 866.74774 878.53333
895.0 0.001117 866.55768 878.47748
904.0 0.001106 866.36761 878.42407
884.0 0.001131 866.17712 878.37280
876.0 0.001142 865.98651 878.32379
886.0 0.001129 865.79590 878.27747
933.0 0.001072 865.60510 878.23340
927.0 0.001079 865.41431 878.19202
943.0 0.001060 865.22321 878.15314
942.0 0.001062 865.03217 878.11731
888.0 0.001126 864.84082 878.08368
891.0 0.001122 864.64929 878.05322
885.0 0.001130 864.45770 878.02563
931.0 0.001074 864.26630 878.00104
914.0 0.001094 864.07477 877.97937
879.0 0.001138 863.88275 877.96088
892.0 0.001121 863.69092 877.94562
890.0 0.001124 863.49890 877.93390
849.0 0.001178 863.30658 877.92542
826.0 0.001211 863.11432 877.92047
852.0 0.001174 862.92200 877.91931
899.0 0.001112 862.72937 877.92151
882.0 0.001134 862.53687 877.92767
863.0 0.001159 862.34412 877.93762
841.0 0.001189 862.15137 877.95184
873.0 0.001145 861.95831 877.97021
895.0 0.001117 861.76544 877.99298
894.0 0.001119 861.57220 878.02020
890.0 0.001124 861.37909 878.05145
903.0 0.001107 861.18555 878.08801
945.0 0.001058 860.99213 878.12909
939.0 0.001065 860.79840 878.17499
926.0 0.001080 860.60498 878.22595
903.0 0.001107 860.41107 878.28253
882.0 0.001134 860.21716 878.34460
864.0 0.001157 860.02319 878.41187
882.0 0.001134 859.82922 878.48523
898.0 0.001114 859.63507 878.56458
935.0 0.001070 859.44067 878.65002
914.0 0.001094 859.24640 878.74176
902.0 0.001109 859.05188 878.84015
880.0 0.001136 858.85736 878.94543
880.0 0.001136 858.66260 879.05737
892.0 0.001121 858.46802 879.17700
897.0 0.001115 858.27295 879.30371
923.0 0.001083 858.07831 879.43842
918.0 0.001089 857.88330 879.58130
931.0 0.001074 857.68799 879.73206
932.0 0.001073 857.49286 879.89166
891.0 0.001122 857.29761 880.06012
924.0 0.001082 857.10205 880.23755
950.0 0.001053 856.90656 880.42474
960.0 0.001042 856.71118 880.62183
971.0 0.001030 856.51550 880.82867
930.0 0.001075 856.31970 881.04657
906.0 0.001104 856.12402 881.27563
962.0 0.001040 855.92804 881.51587
943.0 0.001060 855.73187 881.76794
942.0 0.001062 855.53601 882.03259
950.0 0.001053 855.33978 882.30975
949.0 0.001054 855.14343 882.60010
943.0 0.001060 854.94733 882.90442
944.0 0.001059 854.75098 883.22333
979.0 0.001021 854.55444 883.55670
976.0 0.001025 854.35803 883.90613
974.0 0.001027 854.16138 884.27155
966.0 0.001035 853.96448 884.65393
974.0 0.001027 853.76782 885.05389
1006.0 0.000994 853.57092 885.47229
1017.0 0.000983 853.37402 885.90991
1009.0 0.000991 853.17700 886.36737
1017.0 0.000983 852.98016 886.84583
979.0 0.001021 852.78290 887.34613
1012.0 0.000988 852.58569 887.86963
1041.0 0.000961 852.38831 888.41675
1030.0 0.000971 852.19116 888.98914
1027.0 0.000974 851.99371 889.58746
1089.0 0.000918 851.79626 890.21332
1105.0 0.000905 851.59851 890.86823
1103.0 0.000907 851.40100 891.55371
1069.0 0.000935 851.20343 892.27045
1072.0 0.000933 851.00574 893.02087
1131.0 0.000884 850.80780 893.80688
1129.0 0.000886 850.61011 894.62958
1140.0 0.000877 850.41241 895.49133
1182.0 0.000846 850.21411 896.39392
1152.0 0.000868 850.01624 897.34015
1117.0 0.000895 849.81818 898.33234
1122.0 0.000891 849.61975 899.37286
1133.0 0.000883 849.42151 900.46497
1115.0 0.000897 849.22327 901.61102
1124.0 0.000890 849.02509 902.81476
1128.0 0.000887 848.82654 904.07928
1112.0 0.000899 848.62836 905.40912
1056.0 0.000947 848.42981 906.80750
1084.0 0.000923 848.23126 908.27960
1123.0 0.000890 848.03271 909.82990
1122.0 0.000891 847.83405 911.46332
1112.0 0.000899 847.63531 913.18640
1112.0 0.000899 847.43671 915.00439
1107.0 0.000903 847.23767 916.92487
1046.0 0.000956 847.03894 918.95477
1066.0 0.000938 846.84015 921.10242
1118.0 0.000894 846.64093 923.37677
1086.0 0.000921 846.44250 925.78833
1086.0 0.000921 846.24304 928.34723
1124.0 0.000890 846.04407 931.06567
1112.0 0.000899 845.84521 933.95764
1105.0 0.000905 845.64581 937.03821
1082.0 0.000924 845.44659 940.32416
1096.0 0.000912 845.24750 943.83502
1081.0 0.000925 845.04822 947.59186
1076.0 0.000929 844.84906 951.61902
1078.0 0.000928 844.64972 955.94446
1105.0 0.000905 844.45038 960.59967
1094.0 0.000914 844.25073 965.62036
1092.0 0.000916 844.05145 971.04742
1055.0 0.000948 843.85181 976.92725
1091.0 0.000917 843.65234 983.31293
1128.0 0.000887 843.45276 990.26459
1114.0 0.000898 843.25336 997.85089
1126.0 0.000888 843.05371 1006.14911
1138.0 0.000879 842.85400 1015.24658
1133.0 0.000883 842.65430 1025.24158
1155.0 0.000866 842.45453 1036.24329
1218.0 0.000821 842.25513 1048.37329
1230.0 0.000813 842.05511 1061.76416
1206.0 0.000829 841.85529 1076.55811
1208.0 0.000828 841.65540 1092.90393
1211.0 0.000826 841.45575 1110.95154
1320.0 0.000758 841.25580 1130.84253
1308.0 0.000765 841.05591 1152.69519
1304.0 0.000767 840.85602 1176.58850
1307.0 0.000765 840.65613 1202.53918
1315.0 0.000760 840.45612 1230.48376
1301.0 0.000769 840.25629 1260.27026
1314.0 0.000761 840.05634 1291.67505
1328.0 0.000753 839.85638 1324.45068
1361.0 0.000735 839.65637 1358.40405
1399.0 0.000715 839.45648 1393.48096
1469.0 0.000681 839.25629 1429.81091
1501.0 0.000666 839.05634 1467.68396
1497.0 0.000668 838.85608 1507.43115
1512.0 0.000661 838.65619 1549.25366
1560.0 0.000641 838.45593 1593.03369
1645.0 0.000608 838.25592 1638.19446
1723.0 0.000580 838.05591 1683.65796
1756.0 0.000569 837.85577 1727.94507
1763.0 0.000567 837.65564 1769.43945
1801.0 0.000555 837.45526 1806.77942
1820.0 0.000549 837.25531 1839.25537
1846.0 0.000542 837.05511 1867.05334
1926.0 0.000519 836.85498 1891.22083
2036.0 0.000491 836.65491 1913.36194
2162.0 0.000463 836.45471 1935.19592
2106.0 0.000475 836.25464 1958.15674
2172.0 0.000460 836.05426 1983.16833
2189.0 0.000457 835.85413 2010.62183
2264.0 0.000442 835.65405 2040.50122
2275.0 0.000440 835.45386 2072.54785
2310.0 0.000433 835.25372 2106.34961
2424.0 0.000413 835.05353 2141.30835
2425.0 0.000412 834.85339 2176.53833
2443.0 0.000409 834.65320 2210.80469
2455.0 0.000407 834.45306 2242.59619
2428.0 0.000412 834.25305 2270.33521
2484.0 0.000403 834.05292 2292.60791
2411.0 0.000415 833.85254 2308.27466
2389.0 0.000419 833.65253 2316.39697
2404.0 0.000416 833.45258 2316.05664
2460.0 0.000407 833.25238 2306.23291
2381.0 0.000420 833.05219 2285.87378
2253.0 0.000444 832.85217 2254.17310
2232.0 0.000448 832.65210 2210.95361
2168.0 0.000461 832.45197 2156.98169
2058.0 0.000486 832.25195 2094.05127
2012.0 0.000497 832.05188 2024.77856
1988.0 0.000503 831.85193 1952.18738
1956.0 0.000511 831.65198 1879.23730
1872.0 0.000534 831.45215 1808.46484
1840.0 0.000543 831.25208 1741.79395
1792.0 0.000558 831.05219 1680.51465
1747.0 0.000572 830.85236 1625.36646
1698.0 0.000589 830.65234 1576.66492
1605.0 0.000623 830.45276 1534.43042
1630.0 0.000613 830.25256 1498.49402
1646.0 0.000608 830.05292 1468.57983
1619.0 0.000618 829.85309 1444.35669
1559.0 0.000641 829.65320 1425.47278
1547.0 0.000646 829.45349 1411.57336
1547.0 0.000646 829.25397 1402.30688
1521.0 0.000657 829.05420 1397.32581
1555.0 0.000643 828.85431 1396.28284
1557.0 0.000642 828.65472 1398.82813
1560.0 0.000641 828.45508 1404.61121
1544.0 0.000648 828.25555 1413.29102
1601.0 0.000625 828.05609 1424.55310
1618.0 0.000618 827.85645 1438.13171
1618.0 0.000618 827.65710 1453.82678
1603.0 0.000624 827.45752 1471.50366
1620.0 0.000617 827.25824 1491.06946
1653.0 0.000605 827.05884 1512.42261
1731.0 0.000578 826.85938 1535.39050
1738.0 0.000575 826.66022 1559.66956
1760.0 0.000568 826.46094 1584.79065
1809.0 0.000553 826.26190 1610.13232
1803.0 0.000555 826.06256 1634.98389
1832.0 0.000546 825.86340 1658.66052
1924.0 0.000520 825.66425 1680.63965
1918.0 0.000521 825.46521 1700.67639
1992.0 0.000502 825.26617 1718.86011
2097.0 0.000477 825.06720 1735.58093
2163.0 0.000462 824.86847 1751.42078
2159.0 0.000463 824.66949 1767.00916
2202.0 0.000454 824.47076 1782.88843
2272.0 0.000440 824.27185 1799.42468
2341.0 0.000427 824.07330 1816.77930
2357.0 0.000424 823.87427 1834.91846
2348.0 0.000426 823.67578 1853.64050
2280.0 0.000439 823.47723 1872.59143
2277.0 0.000439 823.27863 1891.26941
2354.0 0.000425 823.08020 1909.02576
2356.0 0.000424 822.88177 1925.08655
2335.0 0.000428 822.68359 1938.60266
2322.0 0.000431 822.48511 1948.71936
2318.0 0.000431 822.28705 1954.63281
2299.0 0.000435 822.08844 1955.62000
2247.0 0.000445 821.89056 1951.03503
2212.0 0.000452 821.69238 1940.30481
2170.0 0.000461 821.49445 1922.95203
2160.0 0.000463 821.29639 1898.66821
2132.0 0.000469 821.09863 1867.41760
2058.0 0.000486 820.90070 1829.53821
2005.0 0.000499 820.70313 1785.78638
1888.0 0.000530 820.50537 1737.30090
1764.0 0.000567 820.30750 1685.48474
1688.0 0.000592 820.11011 1631.84180
1684.0 0.000594 819.91229 1577.80994
1589.0 0.000629 819.71503 1524.63599
1537.0 0.000651 819.51764 1473.30334
1487.0 0.000672 819.32025 1424.51550
1426.0 0.000701 819.12292 1378.71838
1343.0 0.000745 818.92590 1336.14355
1282.0 0.000780 818.72870 1296.85706
1242.0 0.000805 818.53156 1260.80640
1204.0 0.000831 818.33478 1227.85950
1165.0 0.000858 818.13788 1197.83618
1138.0 0.000879 817.94110 1170.52942
1099.0 0.000910 817.74445 1145.72107
1068.0 0.000936 817.54749 1123.19421
1015.0 0.000985 817.35107 1102.73816
1014.0 0.000986 817.15448 1084.15283
998.0 0.001002 816.95813 1067.25256
999.0 0.001001 816.76166 1051.86572
970.0 0.001031 816.56543 1037.83557
957.0 0.001045 816.36945 1025.01953
987.0 0.001013 816.17303 1015.01324
968.0 0.001033 815.97717 1004.26825
949.0 0.001054 815.78107 994.39246
922.0 0.001085 815.58539 985.29462
947.0 0.001056 815.38947 976.89343
944.0 0.001059 815.19385 969.11841
963.0 0.001038 814.99829 961.90552
958.0 0.001044 814.80273 955.19910
944.0 0.001059 814.60724 948.95013
928.0 0.001078 814.41193 943.11499
888.0 0.001126 814.21667 937.65576
937.0 0.001067 814.02130 932.53790
900.0 0.001111 813.82629 927.73206
909.0 0.001100 813.63135 923.21082
897.0 0.001115 813.43665 918.95056
852.0 0.001174 813.24164 914.93024
844.0 0.001185 813.04694 911.13080
842.0 0.001188 812.85242 907.53516
824.0 0.001214 812.65790 904.12769
852.0 0.001174 812.46356 900.89459
886.0 0.001129 812.26910 897.82330
876.0 0.001142 812.07507 894.90210
869.0 0.001151 811.88092 892.12061
854.0 0.001171 811.68695 889.46973
849.0 0.001178 811.49298 886.94031
836.0 0.001196 811.29889 884.52411
848.0 0.001179 811.10547 882.21466
844.0 0.001185 810.91150 880.00421
831.0 0.001203 810.71814 877.88763
809.0 0.001236 810.52472 875.85822
810.0 0.001235 810.33167 873.91144
846.0 0.001182 810.13843 872.04175
828.0 0.001208 809.94507 870.24506
852.0 0.001174 809.75226 868.51715
861.0 0.001161 809.55939 866.85419
855.0 0.001170 809.36658 865.25214
843.0 0.001186 809.17389 863.70819
838.0 0.001193 808.98138 862.21906
824.0 0.001214 808.78882 860.78174
840.0 0.001190 808.59656 859.39349
843.0 0.001186 808.40448 858.05157
813.0 0.001230 808.21228 856.75391
817.0 0.001224 808.02051 855.49866
808.0 0.001238 807.82849 854.28302
820.0 0.001220 807.63672 853.10541
804.0 0.001244 807.44501 851.96399
811.0 0.001233 807.25354 850.85693
818.0 0.001222 807.06219 849.78271
810.0 0.001235 806.87067 848.73981
779.0 0.001284 806.67993 847.72693
804.0 0.001244 806.48877 846.74237
812.0 0.001232 806.29785 845.78534
823.0 0.001215 806.10693 844.85431
815.0 0.001227 805.91644 843.94836
862.0 0.001160 805.72583 843.06604
864.0 0.001157 805.53516 842.20691
861.0 0.001161 805.34509 841.36987
859.0 0.001164 805.15485 840.55347
848.0 0.001179 804.96478 839.75769
818.0 0.001222 804.77490 838.98096
825.0 0.001212 804.58527 838.22321
803.0 0.001245 804.39551 837.48346
817.0 0.001224 804.20593 836.76105
816.0 0.001225 804.01654 836.05487
789.0 0.001267 803.82721 835.36505
831.0 0.001203 803.63812 834.69037
822.0 0.001217 803.44904 834.03058
796.0 0.001256 803.26050 833.38525
797.0 0.001255 803.07153 832.75354
794.0 0.001259 802.88300 832.13544
834.0 0.001199 802.69458 831.52991
837.0 0.001195 802.50610 830.93707
834.0 0.001199 802.31805 830.35620
824.0 0.001214 802.12994 829.78711
818.0 0.001222 801.94202 829.22906
836.0 0.001196 801.75421 828.68195
842.0 0.001188 801.56659 828.14581
865.0 0.001156 801.37915 827.61951
820.0 0.001220 801.19177 827.10321
813.0 0.001230 801.00446 826.59637
811.0 0.001233 800.81744 826.09912
837.0 0.001195 800.63043 825.61084
837.0 0.001195 800.44385 825.13147
811.0 0.001233 800.25732 824.66083
800.0 0.001250 800.07068 824.19830
806.0 0.001241 799.88434 823.74390
844.0 0.001185 799.69812 823.29730
817.0 0.001224 799.51215 822.85870
809.0 0.001236 799.32611 822.42731
800.0 0.001250 799.14056 822.00360
813.0 0.001230 798.95490 821.58643
796.0 0.001256 798.76947 821.17645
795.0 0.001258 798.58417 820.77362
792.0 0.001263 798.39899 820.37671
778.0 0.001285 798.21405 819.98682
803.0 0.001245 798.02917 819.60327
804.0 0.001244 797.84448 819.22552
815.0 0.001227 797.65997 818.85419
793.0 0.001261 797.47571 818.48865
755.0 0.001325 797.29163 818.12903
765.0 0.001307 797.10736 817.77521
769.0 0.001300 796.92352 817.42688
773.0 0.001294 796.73975 817.08398
792.0 0.001263 796.55615 816.74652
789.0 0.001267 796.37274 816.41449
775.0 0.001290 796.18964 816.08765
767.0 0.001304 796.00659 815.76599
809.0 0.001236 795.82349 815.44916
795.0 0.001258 795.64081 815.13751
812.0 0.001232 795.45813 814.83057
802.0 0.001247 795.27588 814.52863
806.0 0.001241 795.09344 814.23157
797.0 0.001255 794.91150 813.93909
781.0 0.001280 794.72943 813.65131
795.0 0.001258 794.54773 813.36829
774.0 0.001292 794.36591 813.08978
760.0 0.001316 794.18451 812.81567
778.0 0.001285 794.00342 812.54614
775.0 0.001290 793.82227 812.28125
779.0 0.001284 793.64136 812.02075
794.0 0.001259 793.46069 811.76447
772.0 0.001295 793.27997 811.51270
747.0 0.001339 793.09955 811.26526
749.0 0.001335 792.91956 811.02216
789.0 0.001267 792.73950 810.78351
833.0 0.001200 792.55951 810.54883
835.0 0.001198 792.37964 810.31885
864.0 0.001157 792.20020 810.09296
850.0 0.001176 792.02087 809.87152
818.0 0.001222 791.84186 809.65411
815.0 0.001227 791.66278 809.44122
801.0 0.001248 791.48383 809.23254
843.0 0.001186 791.30542 809.02844
844.0 0.001185 791.12689 808.82831
821.0 0.001218 790.94855 808.63281
787.0 0.001271 790.77039 808.44153
780.0 0.001282 790.59247 808.25482
805.0 0.001242 790.41473 808.07251
788.0 0.001269 790.23712 807.89478
799.0 0.001252 790.05981 807.72150
827.0 0.001209 789.88275 807.55267
814.0 0.001229 789.70569 807.38855
771.0 0.001297 789.52887 807.22913
768.0 0.001302 789.35211 807.07422
772.0 0.001295 789.17560 806.92432
752.0 0.001330 788.99927 806.77930
750.0 0.001333 788.82361 806.63904
765.0 0.001307 788.64752 806.50385
785.0 0.001274 788.47186 806.37384
791.0 0.001264 788.29645 806.24896
793.0 0.001261 788.12115 806.12939
782.0 0.001279 787.94617 806.01495
799.0 0.001252 787.77118 805.90613
764.0 0.001309 787.59644 805.80273
772.0 0.001295 787.42169 805.70532
782.0 0.001279 787.24744 805.61365
792.0 0.001263 787.07343 805.52795
791.0 0.001264 786.89929 805.44836
791.0 0.001264 786.72583 805.37476
808.0 0.001238 786.55182 805.30774
820.0 0.001220 786.37885 805.24762
790.0 0.001266 786.20563 805.19391
809.0 0.001236 786.03259 805.14728
787.0 0.001271 785.85974 805.10773
814.0 0.001229 785.68744 805.07562
804.0 0.001244 785.51495 805.05084
755.0 0.001325 785.34277 805.03418
784.0 0.001276 785.17072 805.02576
808.0 0.001238 784.99878 805.02484
783.0 0.001277 784.82764 805.03320
784.0 0.001276 784.65619 805.05011
768.0 0.001302 784.48499 805.07660
755.0 0.001325 784.31403 805.11237
765.0 0.001307 784.14349 805.15820
771.0 0.001297 783.97284 805.21399
807.0 0.001239 783.80243 805.28033
811.0 0.001233 783.63226 805.35803
803.0 0.001245 783.46228 805.44714
770.0 0.001299 783.29266 805.54816
796.0 0.001256 783.12329 805.66150
816.0 0.001225 782.95392 805.78796
773.0 0.001294 782.78491 805.92804
780.0 0.001282 782.61591 806.08191
787.0 0.001271 782.44727 806.25079
820.0 0.001220 782.27881 806.43494
837.0 0.001195 782.11047 806.63507
814.0 0.001229 781.94257 806.85205
810.0 0.001235 781.77484 807.08679
816.0 0.001225 781.60718 804.79816
782.0 0.001279 781.43982 805.08893
813.0 0.001230 781.27252 805.39984
822.0 0.001217 781.10553 805.73181
783.0 0.001277 780.93915 806.08661
790.0 0.001266 780.77240 806.46454
813.0 0.001230 780.60620 806.86768
828.0 0.001208 780.43994 807.29675
823.0 0.001215 780.27441 807.75397
832.0 0.001202 780.10840 808.24036
842.0 0.001188 779.94318 808.75775
822.0 0.001217 779.77795 809.30823
828.0 0.001208 779.61298 809.89355
848.0 0.001179 779.44794 810.51611
833.0 0.001200 779.28363 811.17810
830.0 0.001205 779.11932 811.88208
808.0 0.001238 778.95520 812.63062
801.0 0.001248 778.79132 813.42712
838.0 0.001193 778.62775 814.27466
806.0 0.001241 778.46417 815.17670
816.0 0.001225 778.30090 816.13696
822.0 0.001217 778.13806 817.16040
820.0 0.001220 777.97522 818.25073
854.0 0.001171 777.81287 819.41364
817.0 0.001224 777.65039 820.65466
817.0 0.001224 777.48846 821.97986
849.0 0.001178 777.32629 823.39630
865.0 0.001156 777.16504 824.91187
886.0 0.001129 777.00342 826.53442
932.0 0.001073 776.84259 828.27429
871.0 0.001148 776.68115 830.14185
858.0 0.001166 776.52057 832.15027
891.0 0.001122 776.36011 834.31232
875.0 0.001143 776.19995 836.64508
856.0 0.001168 776.03986 839.16718
883.0 0.001133 775.88013 841.89960
891.0 0.001122 775.72070 844.86774
899.0 0.001112 775.56122 848.10052
860.0 0.001163 775.40216 851.63177
858.0 0.001166 775.24347 855.50098
877.0 0.001140 775.08490 859.75372
884.0 0.001131 774.92651 867.19714
915.0 0.001093 774.76819 872.40057
901.0 0.001110 774.61029 878.17157
915.0 0.001093 774.45264 884.58942
921.0 0.001086 774.29535 891.74426
941.0 0.001063 774.13806 899.73773
966.0 0.001035 773.98096 908.68231
978.0 0.001022 773.82452 918.70154
982.0 0.001018 773.66785 929.93054
980.0 0.001020 773.51178 942.50995
972.0 0.001029 773.35565 956.58606
1002.0 0.000998 773.20013 972.29895
1055.0 0.000948 773.04431 989.77350
1039.0 0.000962 772.88910 1009.10168
1048.0 0.000954 772.73413 1030.32251
1074.0 0.000931 772.57928 1053.40332
1124.0 0.000890 772.42480 1078.22913
1171.0 0.000854 772.27063 1104.61487
1156.0 0.000865 772.11639 1132.34717
1119.0 0.000894 771.96259 1161.25708
1160.0 0.000862 771.80896 1191.29102
1209.0 0.000827 771.65564 1222.54443
1220.0 0.000820 771.50269 1255.21228
1245.0 0.000803 771.34967 1289.46338
1306.0 0.000766 771.19714 1325.26855
1299.0 0.000770 771.04474 1362.24536
1299.0 0.000770 770.89270 1399.58215
1366.0 0.000732 770.74091 1436.09692
1384.0 0.000723 770.58923 1470.45374
1381.0 0.000724 770.43793 1501.51868
1438.0 0.000695 770.28674 1528.72632
1446.0 0.000692 770.13599 1552.30042
1540.0 0.000649 769.98535 1573.19531
1594.0 0.000627 769.83502 1592.78735
1602.0 0.000624 769.68475 1612.45618
1575.0 0.000635 769.53491 1633.25244
1610.0 0.000621 769.38538 1655.74622
1609.0 0.000622 769.23590 1680.06787
1632.0 0.000613 769.08691 1706.03516
1682.0 0.000595 768.93817 1733.25806
1757.0 0.000569 768.78967 1761.13928
1756.0 0.000569 768.64105 1788.80420
1725.0 0.000580 768.49304 1815.05627
1760.0 0.000568 768.34515 1838.46155
1790.0 0.000559 768.19769 1857.55322
1769.0 0.000565 768.05035 1871.02771
1728.0 0.000579 767.90332 1877.81335
1675.0 0.000597 767.75647 1876.97607
1699.0 0.000589 767.60999 1867.59106
1629.0 0.000614 767.46350 1848.73975
1600.0 0.000625 767.31744 1819.70837
1545.0 0.000647 767.17169 1780.32019
1512.0 0.000661 767.02612 1731.23828
1486.0 0.000673 766.88086 1674.05920
1454.0 0.000688 766.73578 1611.12183
1402.0 0.000713 766.59113 1545.10681
1361.0 0.000735 766.44641 1478.59583
1381.0 0.000724 766.30225 1413.74561
1374.0 0.000728 766.15833 1352.13965
1255.0 0.000797 766.01465 1294.79065
1211.0 0.000826 765.87122 1242.23230
1158.0 0.000864 765.72797 1194.63782
1125.0 0.000889 765.58484 1151.93140
1068.0 0.000936 765.44238 1113.88037
1090.0 0.000917 765.29999 1080.15845
1021.0 0.000979 765.15771 1050.39124
1015.0 0.000985 765.01581 1024.18762
956.0 0.001046 764.87439 1001.15930
962.0 0.001040 764.73273 980.93359
924.0 0.001082 764.59167 963.16125
907.0 0.001103 764.45074 947.52356
918.0 0.001089 764.31018 933.73206
912.0 0.001096 764.16992 919.77887
914.0 0.001094 764.02985 908.95569
931.0 0.001074 763.89014 899.30560
910.0 0.001099 763.75049 890.66278
870.0 0.001149 763.61127 882.88562
851.0 0.001175 763.47229 875.85547
829.0 0.001206 763.33368 869.47168
835.0 0.001198 763.19525 863.65063
819.0 0.001221 763.05701 858.32178
812.0 0.001232 762.91907 853.42627
800.0 0.001250 762.78131 848.91388
826.0 0.001211 762.64417 844.74243
835.0 0.001198 762.50690 840.87628
821.0 0.001218 762.37012 837.28436
793.0 0.001261 762.23358 833.94006
776.0 0.001289 762.09723 830.81946
786.0 0.001272 761.96112 827.90289
806.0 0.001241 761.82538 825.17206
783.0 0.001277 761.69006 822.61121
812.0 0.001232 761.55457 820.20563
781.0 0.001280 761.41962 817.94299
794.0 0.001259 761.28510 815.81195
777.0 0.001287 761.15045 813.80231
751.0 0.001332 761.01654 811.90448
769.0 0.001300 760.88245 810.10986
796.0 0.001256 760.74890 808.41162
809.0 0.001236 760.61548 806.80188
810.0 0.001235 760.48267 805.27521
792.0 0.001263 760.34973 803.82526
769.0 0.001300 760.21735 802.44733
772.0 0.001295 760.08508 801.13605
777.0 0.001287 759.95300 799.88727
763.0 0.001311 759.82123 798.69696
763.0 0.001311 759.68976 797.56134
745.0 0.001342 759.55865 796.47717
757.0 0.001321 759.42792 795.44128
751.0 0.001332 759.29730 794.45056
758.0 0.001319 759.16693 793.50256
769.0 0.001300 759.03668 792.59467
773.0 0.001294 758.90729 791.72467
769.0 0.001300 758.77771 790.89056
749.0 0.001335 758.64838 790.09015
730.0 0.001370 758.51953 789.32153
763.0 0.001311 758.39093 788.58331
747.0 0.001339 758.26251 787.87396
763.0 0.001311 758.13434 787.19135
789.0 0.001267 758.00647 786.53461
769.0 0.001300 757.87897 785.90265
753.0 0.001328 757.75153 785.29401
745.0 0.001342 757.62439 784.70752
750.0 0.001333 757.49786 784.14215
790.0 0.001266 757.37152 783.59711
790.0 0.001266 757.24518 783.07141
783.0 0.001277 757.11945 782.56378
765.0 0.001307 756.99377 782.07428
747.0 0.001339 756.86841 781.60138
754.0 0.001326 756.74335 781.14441
751.0 0.001332 756.61841 780.70319
761.0 0.001314 756.49402 780.27704
744.0 0.001344 756.36969 779.86505
727.0 0.001376 756.24597 779.46674
739.0 0.001353 756.12231 779.08173
727.0 0.001376 755.99878 778.70929
747.0 0.001339 755.87579 778.34924
782.0 0.001279 755.75293 778.00098
761.0 0.001314 755.63025 777.66412
784.0 0.001276 755.50830 777.33838
763.0 0.001311 755.38629 777.02325
765.0 0.001307 755.26440 776.71838
770.0 0.001299 755.14288 776.42365
768.0 0.001302 755.02222 776.13855
814.0 0.001229 754.90094 775.86292
800.0 0.001250 754.78058 775.59631
768.0 0.001302 754.66028 775.33887
759.0 0.001318 754.54010 775.08997
727.0 0.001376 754.42059 774.84961
755.0 0.001325 754.30127 774.61731
749.0 0.001335 754.18201 774.39313
743.0 0.001346 754.06305 774.17664
762.0 0.001312 753.94452 773.96802
745.0 0.001342 753.82617 773.76678
777.0 0.001287 753.70807 773.57312
766.0 0.001305 753.59058 773.38660
719.0 0.001391 753.47302 773.20685
769.0 0.001300 753.35590 773.03442
739.0 0.001353 753.23889 772.86835
731.0 0.001368 753.12238 772.70947
760.0 0.001316 753.00592 772.55701
757.0 0.001321 752.88995 772.41132
738.0 0.001355 752.77423 772.27197
749.0 0.001335 752.65894 772.13898
739.0 0.001353 752.54370 772.01245
749.0 0.001335 752.42865 771.89197
733.0 0.001364 752.31421 771.77789
747.0 0.001339 752.19971 771.66962
755.0 0.001325 752.08575 771.56781
743.0 0.001346 751.97205 771.47186
732.0 0.001366 751.85846 771.38202
750.0 0.001333 751.74536 771.29834
762.0 0.001312 751.63245 771.22040
767.0 0.001304 751.51978 771.14856
733.0 0.001364 751.40753 771.08295
725.0 0.001379 751.29541 771.02289
766.0 0.001305 751.18359 770.96924
775.0 0.001290 751.07220 770.92114
755.0 0.001325 750.96094 770.87958
773.0 0.001294 750.85028 770.84357
756.0 0.001323 750.73944 770.81409
750.0 0.001333 750.62921 770.79016
744.0 0.001344 750.51929 770.77295
724.0 0.001381 750.40924 770.76154
734.0 0.001362 750.29993 770.75647
752.0 0.001330 750.19080 770.75763
751.0 0.001332 750.08197 770.76520
756.0 0.001323 749.97308 770.77924
753.0 0.001328 749.86499 770.79980
756.0 0.001323 749.75702 770.82709
732.0 0.001366 749.64911 770.86078
741.0 0.001350 749.54163 770.90149
749.0 0.001335 749.43457 770.94904
708.0 0.001412 749.32758 771.00323
690.0 0.001449 749.22101 771.06464
702.0 0.001425 749.11469 771.13342
727.0 0.001376 749.00885 771.20947
749.0 0.001335 748.90283 771.29291
753.0 0.001328 748.79742 771.38434
763.0 0.001311 748.69220 771.48322
748.0 0.001337 748.58759 771.58997
746.0 0.001340 748.48285 771.70520
736.0 0.001359 748.37848 771.82831
760.0 0.001316 748.27460 771.96021
763.0 0.001311 748.17096 772.10077
769.0 0.001300 748.06720 772.24994
762.0 0.001312 747.96417 772.40833
753.0 0.001328 747.86115 772.57623
727.0 0.001376 747.75873 772.75360
747.0 0.001339 747.65649 772.94080
769.0 0.001300 747.55444 773.13806
758.0 0.001319 747.45270 773.34558
783.0 0.001277 747.35132 773.56403
794.0 0.001259 747.25031 773.79358
803.0 0.001245 747.14948 774.03418
765.0 0.001307 747.04871 774.28644
729.0 0.001372 746.94849 774.55096
750.0 0.001333 746.84821 774.82782
736.0 0.001359 746.74878 775.11743
741.0 0.001350 746.64941 775.42004
783.0 0.001277 746.55017 775.73663
758.0 0.001319 746.45129 776.06708
741.0 0.001350 746.35284 776.41235
749.0 0.001335 746.25458 776.77252
756.0 0.001323 746.15662 777.14844
768.0 0.001302 746.05878 777.54065
730.0 0.001370 745.96130 777.94946
745.0 0.001342 745.86450 778.37592
752.0 0.001330 745.76746 778.82001
739.0 0.001353 745.67102 779.28320
763.0 0.001311 745.57483 779.76581
751.0 0.001332 745.47882 780.26837
745.0 0.001342 745.38312 780.79236
757.0 0.001321 745.28760 781.33807
713.0 0.001403 745.19250 781.90674
753.0 0.001328 745.09778 782.49872
772.0 0.001295 745.00299 783.11584
773.0 0.001294 744.90900 783.75867
777.0 0.001287 744.81488 784.42841
786.0 0.001272 744.72125 785.12653
764.0 0.001309 744.62781 785.85382
748.0 0.001337 744.53491 786.61163
739.0 0.001353 744.44196 787.40161
758.0 0.001319 744.34949 788.22571
801.0 0.001248 744.25720 789.08441
794.0 0.001259 744.16528 789.98004
777.0 0.001287 744.07355 790.91479
761.0 0.001314 743.98218 791.88995
767.0 0.001304 743.89105 792.90765
780.0 0.001282 743.80023 793.97052
801.0 0.001248 743.70984 795.08026
866.0 0.001155 743.61938 796.23962
831.0 0.001203 743.52966 797.45129
826.0 0.001211 743.44006 798.71808
829.0 0.001206 743.35028 800.04272
805.0 0.001242 743.26129 801.42932
786.0 0.001272 743.17230 802.88025
829.0 0.001206 743.08392 804.39978
801.0 0.001248 742.99579 805.99176
818.0 0.001222 742.90784 807.66095
819.0 0.001221 742.82013 809.41156
850.0 0.001176 742.73254 811.24866
838.0 0.001193 742.64557 813.17798
875.0 0.001143 742.55865 815.20520
878.0 0.001139 742.47217 817.33691
884.0 0.001131 742.38593 819.57983
874.0 0.001144 742.30005 821.94165
869.0 0.001151 742.21436 824.43091
860.0 0.001163 742.12878 827.05670
864.0 0.001157 742.04388 829.82880
853.0 0.001172 741.95886 832.75861
860.0 0.001163 741.87439 835.85822
874.0 0.001144 741.78998 839.14148
859.0 0.001164 741.70605 842.62335
869.0 0.001151 741.62238 846.32056
891.0 0.001122 741.53888 850.25208
909.0 0.001100 741.45587 854.43866
911.0 0.001098 741.37292 858.90399
962.0 0.001040 741.29053 863.67432
978.0 0.001022 741.20801 868.77887
989.0 0.001011 741.12622 874.25024
1011.0 0.000989 741.04437 880.12512
1003.0 0.000997 740.96289 886.44464
1003.0 0.000997 740.88184 893.25397
1045.0 0.000957 740.80090 900.60370
1011.0 0.000989 740.72021 908.54999
1026.0 0.000975 740.63989 917.15405
1071.0 0.000934 740.55988 926.48444
1074.0 0.000931 740.48022 936.61591
1054.0 0.000949 740.40070 947.63025
1014.0 0.000986 740.32141 959.61548
1030.0 0.000971 740.24255 972.66864
1105.0 0.000905 740.16406 986.89221
1110.0 0.000901 740.08539 1002.39587
1149.0 0.000870 740.00745 1019.29443
1188.0 0.000842 739.92969 1037.70630
1167.0 0.000857 739.85223 1057.75000
1173.0 0.000853 739.77484 1079.54077
1176.0 0.000850 739.69788 1103.18323
1228.0 0.000814 739.62115 1128.76648
1239.0 0.000807 739.54468 1156.35181
1249.0 0.000801 739.46875 1185.96570
1251.0 0.000799 739.39282 1217.58960
1275.0 0.000784 739.31708 1251.15430
1285.0 0.000778 739.24207 1286.54297
1285.0 0.000778 739.16687 1323.60291
1317.0 0.000759 739.09229 1362.17078
1381.0 0.000724 739.01764 1402.10669
1411.0 0.000709 738.94360 1443.33557
1445.0 0.000692 738.86957 1485.87622
1466.0 0.000682 738.79602 1530.78552
1489.0 0.000672 738.72253 1576.40002
1514.0 0.000661 738.64948 1623.87939
1542.0 0.000649 738.57672 1673.40186
1583.0 0.000632 738.50415 1725.00439
1680.0 0.000595 738.43201 1778.50415
1807.0 0.000553 738.35992 1833.43701
1843.0 0.000543 738.28833 1889.04016
1914.0 0.000522 738.21667 1944.28528
1930.0 0.000518 738.14563 1997.96899
1891.0 0.000529 738.07458 2048.86084
1940.0 0.000515 738.00415 2095.88232
2098.0 0.000477 737.93384 2138.27856
2232.0 0.000448 737.86371 2174.13599
2243.0 0.000446 737.79382 2206.77734
2232.0 0.000448 737.72430 2235.07715
2287.0 0.000437 737.65521 2259.68628
2279.0 0.000439 737.58618 2281.22192
2373.0 0.000421 737.51752 2300.07813
2435.0 0.000411 737.44891 2316.30786
2468.0 0.000405 737.38086 2329.57910
2591.0 0.000386 737.31293 2339.20288
2601.0 0.000384 737.24518 2344.20874
2520.0 0.000397 737.17798 2343.44751
2460.0 0.000407 737.11078 2335.70825
2386.0 0.000419 737.04388 2319.85449
2302.0 0.000434 736.97742 2294.97803
2278.0 0.000439 736.91107 2260.55762
2235.0 0.000447 736.84521 2216.59082
2257.0 0.000443 736.77924 2163.66553
2187.0 0.000457 736.71387 2102.93140
2059.0 0.000486 736.64880 2035.98120
1952.0 0.000512 736.58374 1964.66272
1875.0 0.000533 736.51923 1890.88171
1763.0 0.000567 736.45477 1816.42151
1740.0 0.000575 736.39075 1742.82275
1655.0 0.000604 736.32660 1671.31946
1594.0 0.000627 736.26318 1602.82898
1493.0 0.000670 736.19989 1537.97607
1419.0 0.000705 736.13696 1477.13770
1359.0 0.000736 736.07397 1420.49194
1285.0 0.000778 736.01147 1368.06689
1262.0 0.000792 735.94916 1319.78345
1241.0 0.000806 735.88702 1275.48584
1208.0 0.000828 735.82538 1234.97058
1137.0 0.000880 735.76398 1198.00525
1106.0 0.000904 735.70258 1164.34167
1028.0 0.000973 735.64178 1133.72668
990.0 0.001010 735.58099 1105.90991
962.0 0.001040 735.52075 1080.64795
939.0 0.001065 735.46039 1057.70776
938.0 0.001066 735.40039 1036.87012
933.0 0.001072 735.34100 1017.92834
896.0 0.001116 735.28137 1000.69360
857.0 0.001167 735.22241 984.99011
848.0 0.001179 735.16351 970.65900
847.0 0.001181 735.10492 957.55554
853.0 0.001172 735.04675 945.54968
870.0 0.001149 734.98846 934.52570
912.0 0.001096 734.93060 924.37897
882.0 0.001134 734.87323 915.01801
847.0 0.001181 734.81586 906.36102
836.0 0.001196 734.75885 898.33679
806.0 0.001241 734.70190 890.88141
823.0 0.001215 734.64545 883.93903
834.0 0.001199 734.58929 877.46136
819.0 0.001221 734.53326 871.40454
852.0 0.001174 734.47736 865.73114
848.0 0.001179 734.42181 860.40741
862.0 0.001160 734.36658 855.40399
831.0 0.001203 734.31171 850.69409
847.0 0.001181 734.25684 846.25372
893.0 0.001120 734.20239 842.06281
852.0 0.001174 734.14807 838.10193
841.0 0.001189 734.09399 834.35468
843.0 0.001186 734.04028 830.80505
825.0 0.001212 733.98694 827.43927
861.0 0.001161 733.93365 824.24463
847.0 0.001181 733.88080 821.20984
821.0 0.001218 733.82806 818.32434
836.0 0.001196 733.77545 815.57794
853.0 0.001172 733.72351 812.96240
859.0 0.001164 733.67139 810.46918
862.0 0.001160 733.61969 808.09070
887.0 0.001127 733.56824 805.82007
845.0 0.001183 733.51685 803.65076
842.0 0.001188 733.46606 801.57703
866.0 0.001155 733.41528 799.59320
880.0 0.001136 733.36481 797.69385
905.0 0.001105 733.31458 795.87494
925.0 0.001081 733.26459 794.13123
887.0 0.001127 733.21478 792.45886
904.0 0.001106 733.16534 790.85406
899.0 0.001112 733.11615 789.31335
909.0 0.001100 733.06720 787.83307
866.0 0.001155 733.01849 786.41028
845.0 0.001183 732.96985 785.04193
870.0 0.001149 732.92163 783.72534
888.0 0.001126 732.87360 782.45795
899.0 0.001112 732.82587 781.23724
915.0 0.001093 732.77832 780.06079
909.0 0.001100 732.73090 778.92664
873.0 0.001145 732.68384 777.83307
825.0 0.001212 732.63733 776.77802
863.0 0.001159 732.59058 775.75909
871.0 0.001148 732.54413 774.77570
844.0 0.001185 732.49805 773.82544
840.0 0.001190 732.45233 772.90704
802.0 0.001247 732.40680 772.01923
817.0 0.001224 732.36139 794.53180
837.0 0.001195 732.31610 793.84393
835.0 0.001198 732.27142 793.18420
806.0 0.001241 732.22668 792.55145
802.0 0.001247 732.18225 791.94464
800.0 0.001250 732.13806 791.36267
772.0 0.001295 732.09436 790.80475
803.0 0.001245 732.05035 790.26971
817.0 0.001224 732.00708 789.75708
872.0 0.001147 731.96381 789.26587
871.0 0.001148 731.92065 788.79535
843.0 0.001186 731.87781 788.34467
805.0 0.001242 731.83527 787.91357
801.0 0.001248 731.79303 787.50098
766.0 0.001305 731.75085 787.10663
739.0 0.001353 731.70923 786.72937
722.0 0.001385 731.66736 786.36938
754.0 0.001326 731.62616 786.02551
722.0 0.001385 731.58484 785.69775
735.0 0.001361 731.54407 785.38525
716.0 0.001397 731.50330 785.08789
739.0 0.001353 731.46301 784.80499
759.0 0.001318 731.42279 784.53619
761.0 0.001314 731.38263 784.28094
773.0 0.001294 731.34290 784.03955
779.0 0.001284 731.30328 783.81085
756.0 0.001323 731.26398 783.59491
770.0 0.001299 731.22510 783.39130
739.0 0.001353 731.18610 783.19965
746.0 0.001340 731.14740 783.01996
719.0 0.001391 731.10895 782.85168
706.0 0.001416 731.07080 782.69464
748.0 0.001337 731.03271 782.54865
723.0 0.001383 730.99506 782.41351
747.0 0.001339 730.95746 782.28876
766.0 0.001305 730.92010 782.17426
750.0 0.001333 730.88342 782.07019
752.0 0.001330 730.84625 781.97595
765.0 0.001307 730.80939 781.89136
755.0 0.001325 730.77319 781.81628
749.0 0.001335 730.73688 781.75073
776.0 0.001289 730.70105 781.69452
767.0 0.001304 730.66516 781.64734
732.0 0.001366 730.62964 781.60919
744.0 0.001344 730.59442 781.57990
736.0 0.001359 730.55927 781.55933
723.0 0.001383 730.52417 781.54730
751.0 0.001332 730.48962 781.54358
762.0 0.001312 730.45514 781.54858
766.0 0.001305 730.42096 781.56207
760.0 0.001316 730.38690 781.58319
758.0 0.001319 730.35315 781.61304
751.0 0.001332 730.31940 781.65051
730.0 0.001370 730.28589 781.69623
727.0 0.001376 730.25293 781.75000
748.0 0.001337 730.21985 781.81104
757.0 0.001321 730.18683 781.88049
754.0 0.001326 730.15442 781.95734
730.0 0.001370 730.12213 782.04230
756.0 0.001323 730.08997 782.13440
750.0 0.001333 730.05811 782.23438
724.0 0.001381 730.02631 782.34222
712.0 0.001404 729.99487 782.45740
716.0 0.001397 729.96338 782.58026
734.0 0.001362 729.93219 782.71039
763.0 0.001311 729.90149 782.84845
714.0 0.001401 729.87073 782.99402
690.0 0.001449 729.84045 783.14691
701.0 0.001427 729.81006 783.30725
729.0 0.001372 729.77991 783.47571
761.0 0.001314 729.75012 783.65106
751.0 0.001332 729.72028 783.83435
724.0 0.001381 729.69080 784.02515
729.0 0.001372 729.66156 784.22339
739.0 0.001353 729.63263 784.42950
718.0 0.001393 729.60358 784.64325
710.0 0.001408 729.57495 784.86462
729.0 0.001372 729.54651 785.09399
744.0 0.001344 729.51843 785.33081
731.0 0.001368 729.49005 785.57568
736.0 0.001359 729.46234 785.82861
723.0 0.001383 729.43451 786.08929
691.0 0.001447 729.40704 786.35815
705.0 0.001418 729.37982 786.63483
727.0 0.001376 729.35284 786.91986
717.0 0.001395 729.32593 787.21326
726.0 0.001377 729.29913 787.51489
729.0 0.001372 729.27271 787.82489
707.0 0.001414 729.24628 788.14349
719.0 0.001391 729.22003 788.47052
727.0 0.001376 729.19427 788.80664
746.0 0.001340 729.16846 789.15125
726.0 0.001377 729.14294 789.50488
713.0 0.001403 729.11749 789.86761
723.0 0.001383 729.09229 790.23944
735.0 0.001361 729.06750 790.62079
714.0 0.001401 729.04254 791.01123
712.0 0.001404 729.01794 791.41168
725.0 0.001379 728.99365 791.82178
708.0 0.001412 728.96936 792.24152
697.0 0.001435 728.94519 792.67139
706.0 0.001416 728.92126 793.11157
712.0 0.001404 728.89746 793.56232
730.0 0.001370 728.87402 794.02338
719.0 0.001391 728.85071 794.49536
729.0 0.001372 728.82758 794.97839
729.0 0.001372 728.80450 795.47260
750.0 0.001333 728.78174 795.97821
746.0 0.001340 728.75922 796.49567
747.0 0.001339 728.73688 797.02472
769.0 0.001300 728.71454 797.56616
780.0 0.001282 728.69244 798.11987
781.0 0.001280 728.67053 798.68640
770.0 0.001299 728.64893 799.26587
733.0 0.001364 728.62744 799.85840
750.0 0.001333 728.60602 800.46484
703.0 0.001422 728.58496 801.08508
714.0 0.001401 728.56396 801.71918
739.0 0.001353 728.54285 802.36835
735.0 0.001361 728.52246 803.03210
734.0 0.001362 728.50171 803.71130
724.0 0.001381 728.48151 804.40619
751.0 0.001332 728.46143 805.11749
754.0 0.001326 728.44135 805.84521
765.0 0.001307 728.42157 806.58990
759.0 0.001318 728.40186 807.35236
774.0 0.001292 728.38232 808.13263
773.0 0.001294 728.36310 808.93140
745.0 0.001342 728.34399 809.74945
735.0 0.001361 728.32501 810.58716
750.0 0.001333 728.30615 811.44513
731.0 0.001368 728.28754 812.32385
766.0 0.001305 728.26910 813.22467
768.0 0.001302 728.25092 814.14758
780.0 0.001282 728.23260 815.09338
761.0 0.001314 728.21472 816.06335
784.0 0.001276 728.19696 817.05804
784.0 0.001276 728.17908 818.07800
758.0 0.001319 728.16156 819.12457
749.0 0.001335 728.14441 820.19855
783.0 0.001277 728.12732 821.30109
773.0 0.001294 728.11029 822.43317
757.0 0.001321 728.09332 823.59589
760.0 0.001316 728.07678 824.79089
774.0 0.001292 728.06006 830.13312
782.0 0.001279 728.04376 831.42590
752.0 0.001330 728.02753 832.75562
766.0 0.001305 728.01141 834.12305
757.0 0.001321 727.99542 835.53046
785.0 0.001274 727.97986 836.97900
795.0 0.001258 727.96411 838.47101
772.0 0.001295 727.94873 840.00861
778.0 0.001285 727.93341 841.59387
797.0 0.001255 727.91821 843.22906
791.0 0.001264 727.90295 844.91693
797.0 0.001255 727.88800 846.66003
824.0 0.001214 727.87354 848.46143
811.0 0.001233 727.85907 850.32428
791.0 0.001264 727.84454 852.25226
795.0 0.001258 727.83014 854.24890
853.0 0.001172 727.81604 856.31848
830.0 0.001205 727.80225 858.46600
802.0 0.001247 727.78827 860.69604
838.0 0.001193 727.77472 863.01434
856.0 0.001168 727.76099 865.42743
862.0 0.001160 727.74762 867.94214
879.0 0.001138 727.73444 870.56628
842.0 0.001188 727.72131 873.30878
867.0 0.001153 727.70837 876.17926
872.0 0.001147 727.69562 879.18933
857.0 0.001167 727.68268 882.35181
859.0 0.001164 727.67017 885.68036
840.0 0.001190 727.65771 889.19135
842.0 0.001188 727.64532 892.90289
835.0 0.001198 727.63330 896.83588
844.0 0.001185 727.62128 901.01245
847.0 0.001181 727.60944 905.45886
834.0 0.001199 727.59772 910.20325
862.0 0.001160 727.58600 915.27759
906.0 0.001104 727.57440 920.71704
914.0 0.001094 727.56311 926.55963
898.0 0.001114 727.55212 932.84827
881.0 0.001135 727.54095 939.62842
868.0 0.001152 727.53003 946.95007
905.0 0.001105 727.51917 954.86639
933.0 0.001072 727.50842 963.43396
934.0 0.001071 727.49780 972.71179
937.0 0.001067 727.48737 982.76001
939.0 0.001065 727.47699 993.63904
974.0 0.001027 727.46692 1005.40613
996.0 0.001004 727.45697 1018.11261
1003.0 0.000997 727.44702 1031.79871
1005.0 0.000995 727.43713 1046.48975
959.0 0.001043 727.42743 1062.19104
959.0 0.001043 727.41785 1078.88306
1003.0 0.000997 727.40845 1096.52197
1000.0 0.001000 727.39911 1115.04407
1059.0 0.000944 727.38983 1134.37695
1097.0 0.000912 727.38062 1154.45581
1069.0 0.000935 727.37170 1175.24500
1071.0 0.000934 727.36304 1196.75061
1056.0 0.000947 727.35400 1219.02588
1088.0 0.000919 727.34558 1242.15796
1121.0 0.000892 727.33698 1266.23560
1118.0 0.000894 727.32886 1291.30981
1201.0 0.000833 727.32019 1317.34753
1207.0 0.000829 727.31207 1344.19434
1243.0 0.000805 727.30414 1371.55334
1351.0 0.000740 727.29633 1398.98840
1345.0 0.000743 727.28827 1425.95862
1345.0 0.000743 727.28058 1451.88599
1378.0 0.000726 727.27307 1476.24158
1386.0 0.000722 727.26556 1498.63586
1457.0 0.000686 727.25824 1518.88245
1455.0 0.000687 727.25098 1537.00806
1428.0 0.000700 727.24365 1553.20667
1470.0 0.000680 727.23663 1567.75098
1511.0 0.000662 727.22980 1580.88269
1539.0 0.000650 727.22278 1592.72754
1541.0 0.000649 727.21606 1603.24011
1549.0 0.000646 727.20941 1612.19507
1539.0 0.000650 727.20276 1619.21094
1497.0 0.000668 727.19653 1623.79651
1590.0 0.000629 727.19006 1625.40930
1574.0 0.000635 727.18384 1623.52161
1582.0 0.000632 727.17755 1617.69727
1515.0 0.000660 727.17181 1607.67468
1504.0 0.000665 727.16565 1593.43750
1525.0 0.000656 727.15991 1575.25671
1511.0 0.000662 727.15399 1553.68030
1480.0 0.000676 727.14832 1529.47339
1453.0 0.000688 727.14282 1503.52307
1469.0 0.000681 727.13751 1476.73486
1462.0 0.000684 727.13214 1449.94543
1417.0 0.000706 727.12671 1423.86438
1366.0 0.000732 727.12158 1399.05054
1351.0 0.000740 727.11633 1375.91064
1324.0 0.000755 727.11145 1354.71558
1323.0 0.000756 727.10645 1335.62439
1283.0 0.000779 727.10156 1318.70972
1290.0 0.000775 727.09686 1303.97900
1249.0 0.000801 727.09222 1291.39490
1272.0 0.000786 727.08783 1280.88782
1258.0 0.000795 727.08331 1272.36938
1234.0 0.000810 727.07874 1263.08789
1211.0 0.000826 727.07458 1258.25452
1227.0 0.000815 727.07043 1255.09534
1192.0 0.000839 727.06641 1253.50500
1201.0 0.000833 727.06219 1253.38330
1208.0 0.000828 727.05811 1254.63586
1243.0 0.000805 727.05444 1257.17737
1301.0 0.000769 727.05042 1260.92944
1301.0 0.000769 727.04669 1265.82520
1290.0 0.000775 727.04321 1271.80566
1248.0 0.000801 727.03943 1278.82251
1269.0 0.000788 727.03589 1286.83667
1271.0 0.000787 727.03278 1295.81860
1289.0 0.000776 727.02936 1305.74792
1343.0 0.000745 727.02606 1316.61292
1416.0 0.000706 727.02277 1328.40979
1472.0 0.000679 727.01953 1341.14307
1431.0 0.000699 727.01648 1354.82471
1503.0 0.000665 727.01337 1369.47388
1571.0 0.000637 727.01068 1385.11694
1536.0 0.000651 727.00775 1401.78748
1498.0 0.000668 727.00513 1419.52588
1471.0 0.000680 727.00238 1438.38013
1527.0 0.000655 726.99976 1458.40576
1539.0 0.000650 726.99744 1479.66663
1575.0 0.000635 726.99463 1502.23438
1675.0 0.000597 726.99213 1526.19177
1686.0 0.000593 726.98987 1551.63110
1742.0 0.000574 726.98761 1578.65637
1788.0 0.000559 726.98535 1607.38477
1872.0 0.000534 726.98340 1637.94836
1937.0 0.000516 726.98108 1670.49561
1979.0 0.000505 726.97894 1705.19287
1989.0 0.000503 726.97717 1742.22754
2035.0 0.000491 726.97510 1781.81030
2060.0 0.000485 726.97333 1824.17773
2158.0 0.000463 726.97144 1869.59436
2324.0 0.000430 726.96979 1918.35754
2383.0 0.000420 726.96790 1970.79822
2483.0 0.000403 726.96613 2027.28662
2422.0 0.000413 726.96478 2088.23438
2577.0 0.000388 726.96332 2154.09839
2649.0 0.000378 726.96173 2225.38403
2735.0 0.000366 726.96014 2302.64966
2823.0 0.000354 726.95880 2386.50830
2978.0 0.0003358 726.95764 2477.63013
3020.0 0.0003311 726.95612 2576.74731
3095.0 0.0003231 726.95508 2684.65308
3291.0 0.0003039 726.95404 2802.20142
3525.0 0.0002837 726.95276 2930.30640
3626.0 0.0002758 726.95178 3069.93579
3837.0 0.0002606 726.95068 3222.10352
4005.0 0.0002497 726.94971 3387.85303
3998.0 0.0002501 726.94873 3568.23755
4301.0 0.0002325 726.94806 3764.29004
4475.0 0.0002235 726.94708 3976.98071
4653.0 0.0002149 726.94635 4207.16846
5041.0 0.0001984 726.94531 4455.53857
5313.0 0.0001882 726.94470 4722.53809
5488.0 0.0001822 726.94403 5008.31396
5727.0 0.0001746 726.94354 5312.66846
6076.0 0.0001646 726.94269 5635.05518
6332.0 0.0001579 726.94232 5974.62158
6548.0 0.0001527 726.94183 6330.33301
6863.0 0.0001457 726.94128 6701.13672
7158.0 0.0001397 726.94067 7086.16309
7544.0 0.0001326 726.94025 7484.88086
7964.0 0.0001256 726.93988 7897.14600
8325.0 0.0001201 726.93964 8323.06934
8639.0 0.0001158 726.93915 8762.70117
8992.0 0.0001112 726.93903 9237.93555
9288.0 0.0001077 726.93872 9702.64258
9693.0 0.0001032 726.93848 10175.96875
10127.0 0.0000987 726.93829 10653.06836
10698.0 0.0000935 726.93805 11127.34277
11200.0 0.0000893 726.93793 11590.86719
11770.0 0.0000850 726.93781 12035.16406
12532.0 0.0000798 726.93787 12452.20801
12837.0 0.0000779 726.93787 12835.45996
13559.0 0.0000738 726.93756 13180.61230
14273.0 0.0000701 726.93781 13485.82715
14552.0 0.0000687 726.93774 13751.36133
15137.0 0.0000661 726.93781 13978.66992
15600.0 0.0000641 726.93774 14169.23730
15952.0 0.0000627 726.93793 14323.50293
16284.0 0.0000614 726.93811 14440.08984
16248.0 0.0000615 726.93817 14515.52246
16472.0 0.0000607 726.93829 14544.40625
16725.0 0.0000598 726.93829 14519.99609
16559.0 0.0000604 726.93854 14435.06152
16415.0 0.0000609 726.93884 14282.91309
16160.0 0.0000619 726.93903 14058.52246
15901.0 0.0000629 726.93921 13759.58984
15456.0 0.0000647 726.93939 13387.35352
14937.0 0.0000669 726.93970 12946.95313
14213.0 0.0000704 726.94012 12447.21191
13625.0 0.0000734 726.94037 11899.84277
12923.0 0.0000774 726.94061 11318.28809
12424.0 0.0000805 726.94086 10716.42090
11635.0 0.0000859 726.94110 10107.39551
10827.0 0.0000924 726.94153 9502.81543
10166.0 0.0000984 726.94202 8912.24316
9420.0 0.0001062 726.94220 8343.07813
8835.0 0.0001132 726.94269 7800.64551
8215.0 0.0001217 726.94299 7288.45605
7497.0 0.0001334 726.94348 6808.51270
6965.0 0.0001436 726.94354 6361.63135
6533.0 0.0001531 726.94391 5947.72949
6033.0 0.0001658 726.94452 5566.06592
5742.0 0.0001742 726.94501 5215.43750
5377.0 0.0001860 726.94513 4894.32959
5040.0 0.0001984 726.94537 4601.03418
4620.0 0.0002165 726.94580 4333.73389
4349.0 0.0002299 726.94629 4090.56641
4064.0 0.0002461 726.94653 3869.67529
3751.0 0.0002666 726.94696 3669.24170
3597.0 0.0002780 726.94739 3487.51392
3363.0 0.0002974 726.94763 3322.82275
3158.0 0.0003167 726.94806 3173.59717
3037.0 0.0003293 726.94843 3038.37378
2961.0 0.0003377 726.94891 2915.79956
2889.0 0.0003461 726.94910 2804.63623
2782.0 0.000359 726.94952 2703.75928
2636.0 0.000379 726.94995 2612.15698
2521.0 0.000397 726.95001 2528.92432
2440.0 0.000410 726.95038 2453.26025
2283.0 0.000438 726.95074 2384.46118
2187.0 0.000457 726.95081 2321.91626
2107.0 0.000475 726.95129 2265.09717
2086.0 0.000479 726.95135 2213.55591
2070.0 0.000483 726.95184 2166.91748
2087.0 0.000479 726.95184 2124.87183
2034.0 0.000492 726.95209 2087.17212
2009.0 0.000498 726.95239 2053.62598
2017.0 0.000496 726.95264 2024.09387
1910.0 0.000524 726.95270 1998.48352
1819.0 0.000550 726.95306 1976.74744
1818.0 0.000550 726.95300 1958.87805
1866.0 0.000536 726.95306 1944.90588
1766.0 0.000566 726.95319 1934.89673
1774.0 0.000564 726.95331 1928.94678
1777.0 0.000563 726.95325 1927.18115
1854.0 0.000539 726.95349 1929.74524
1912.0 0.000523 726.95319 1936.80151
1853.0 0.000540 726.95331 1948.51648
1833.0 0.000546 726.95331 1965.04932
1921.0 0.000521 726.95282 1986.53137
1918.0 0.000521 726.95294 2013.04492
1867.0 0.000536 726.95294 2044.59851
1886.0 0.000530 726.95264 2081.10229
1956.0 0.000511 726.95258 2122.35767
2014.0 0.000497 726.95245 2168.06445
2025.0 0.000494 726.95209 2217.86353
2076.0 0.000482 726.95184 2271.40967
2135.0 0.000468 726.95160 2328.46582
2202.0 0.000454 726.95117 2388.98657
2255.0 0.000443 726.95081 2453.14526
2319.0 0.000431 726.95032 2521.28198
2429.0 0.000412 726.94977 2593.76172
2391.0 0.000418 726.94934 2670.77734
2469.0 0.000405 726.94885 2752.13428
2546.0 0.000393 726.94836 2837.07690
2597.0 0.000385 726.94769 2924.19263
2600.0 0.000385 726.94708 3011.44678
2695.0 0.000371 726.94647 3096.37305
2856.0 0.0003501 726.94580 3176.41772
3010.0 0.0003322 726.94501 3249.38135
3010.0 0.0003322 726.94403 3313.82349
3007.0 0.0003326 726.94336 3369.29248
3118.0 0.0003207 726.94250 3416.25977
3185.0 0.0003140 726.94171 3455.78149
3222.0 0.0003104 726.94055 3488.99756
3300.0 0.0003030 726.93951 3516.65723
3331.0 0.0003002 726.93835 3538.79297
3335.0 0.0002999 726.93732 3554.61255
3384.0 0.0002955 726.93628 3562.58350
3361.0 0.0002975 726.93500 3560.63281
3340.0 0.0002994 726.93390 3546.40259
3349.0 0.0002986 726.93250 3517.55225
3318.0 0.0003014 726.93097 3472.09204
3244.0 0.0003083 726.92969 3408.77734
3203.0 0.0003122 726.92822 3327.46167
3092.0 0.0003234 726.92694 3229.30737
2963.0 0.0003375 726.92517 3116.74316
2921.0 0.0003423 726.92340 2993.16333
2801.0 0.000357 726.92200 2862.45386
2696.0 0.000371 726.92023 2728.50439
2615.0 0.000382 726.91827 2594.81226
2500.0 0.000400 726.91669 2464.25464
2351.0 0.000425 726.91449 2339.00903
2234.0 0.000448 726.91278 2220.58862
2122.0 0.000471 726.91089 2109.93652
2046.0 0.000489 726.90863 2007.54089
2006.0 0.000499 726.90643 1913.54456
1949.0 0.000513 726.90436 1827.83850
1830.0 0.000546 726.90210 1750.13672
1718.0 0.000582 726.89990 1680.03113
1654.0 0.000605 726.89752 1617.03552
1632.0 0.000613 726.89496 1560.61743
1551.0 0.000645 726.89221 1510.22180
1439.0 0.000695 726.88959 1465.29138
1375.0 0.000727 726.88696 1425.27917
1310.0 0.000763 726.88464 1389.66125
1244.0 0.000804 726.88165 1357.94421
1246.0 0.000803 726.87885 1329.66956
1209.0 0.000827 726.87585 1304.42114
1160.0 0.000862 726.87280 1281.82153
1160.0 0.000862 726.86975 1261.53589
1153.0 0.000867 726.86646 1243.26990
1112.0 0.000899 726.86340 1226.76599
1070.0 0.000935 726.86023 1211.80188
1065.0 0.000939 726.85687 1198.18677
1101.0 0.000908 726.85339 1185.75842
1105.0 0.000905 726.84991 1174.37830
1109.0 0.000902 726.84619 1163.92944
1074.0 0.000931 726.84271 1154.31250
1061.0 0.000943 726.83899 1145.44348
1037.0 0.000964 726.83502 1137.25098
1009.0 0.000991 726.83105 1129.67432
1024.0 0.000977 726.82733 1122.66174
1005.0 0.000995 726.82318 1116.16760
1041.0 0.000961 726.81909 1110.15356
1054.0 0.000949 726.81488 1104.58630
1025.0 0.000976 726.81067 1099.43530
1021.0 0.000979 726.80627 1094.67517
982.0 0.001018 726.80176 1090.28223
996.0 0.001004 726.79706 1086.23645
977.0 0.001024 726.79242 1082.51917
938.0 0.001066 726.78784 1079.11389
963.0 0.001038 726.78290 1076.00610
981.0 0.001019 726.77820 1073.18262
988.0 0.001012 726.77332 1070.63159
938.0 0.001066 726.76807 1068.34253
953.0 0.001049 726.76294 1066.30579
964.0 0.001037 726.75769 1064.51331
944.0 0.001059 726.75244 1062.95789
977.0 0.001024 726.74683 1061.63171
979.0 0.001021 726.74133 1060.53040
970.0 0.001031 726.73578 1059.64807
992.0 0.001008 726.73022 1058.98059
971.0 0.001030 726.72418 1058.52478
938.0 0.001066 726.71832 1058.27698
975.0 0.001026 726.71252 1058.23523
998.0 0.001002 726.70630 1058.39746
965.0 0.001036 726.70013 1058.76282
954.0 0.001048 726.69379 1059.33008
986.0 0.001014 726.68750 1060.09949
1022.0 0.000978 726.68115 1061.07129
1004.0 0.000996 726.67438 1062.24609
1041.0 0.000961 726.66779 1063.62573
1042.0 0.000960 726.66107 1065.21179
1030.0 0.000971 726.65387 1067.00659
1040.0 0.000962 726.64697 1069.01331
1044.0 0.000958 726.63995 1071.23535
1063.0 0.000941 726.63269 1072.39136
1073.0 0.000932 726.62543 1075.06543
1073.0 0.000932 726.61804 1077.96814
1134.0 0.000882 726.61066 1081.10461
1121.0 0.000892 726.60291 1084.48254
1189.0 0.000841 726.59528 1088.10754
1209.0 0.000827 726.58728 1091.98779
1195.0 0.000837 726.57947 1096.13171
1170.0 0.000855 726.57129 1100.54785
1185.0 0.000844 726.56323 1105.24646
1160.0 0.000862 726.55505 1110.23767
1153.0 0.000867 726.54663 1115.53394
1169.0 0.000855 726.53815 1121.14661
1182.0 0.000846 726.52948 1127.09021
1235.0 0.000810 726.52081 1133.37842
1302.0 0.000768 726.51196 1140.02820
1352.0 0.000740 726.50287 1147.05542
1417.0 0.000706 726.49402 1154.47900
1400.0 0.000714 726.48480 1162.31860
1421.0 0.000704 726.47559 1170.59595
1429.0 0.000700 726.46613 1179.33411
1459.0 0.000685 726.45660 1188.55798
1509.0 0.000663 726.44696 1198.29492
1502.0 0.000666 726.43707 1208.57471
1442.0 0.000693 726.42737 1219.42859
1491.0 0.000671 726.41736 1230.89185
1540.0 0.000649 726.40717 1243.00146
1534.0 0.000652 726.39685 1255.79932
1573.0 0.000636 726.38641 1269.32983
1581.0 0.000633 726.37585 1283.64233
1612.0 0.000620 726.36548 1298.79089
1592.0 0.000628 726.35455 1314.83484
1588.0 0.000630 726.34393 1331.84033
1589.0 0.000629 726.33276 1349.88013
1630.0 0.000613 726.32178 1369.03613
1671.0 0.000598 726.31042 1389.40051
1670.0 0.000599 726.29926 1411.07544
1691.0 0.000591 726.28766 1434.17896
1744.0 0.000573 726.27606 1458.84363
1802.0 0.000555 726.26434 1485.22144
1876.0 0.000533 726.25226 1513.48669
1891.0 0.000529 726.24030 1543.83923
1898.0 0.000527 726.22821 1576.50903
1985.0 0.000504 726.21606 1611.76099
2068.0 0.000484 726.20355 1649.89929
2091.0 0.000478 726.19104 1691.27368
2106.0 0.000475 726.17828 1736.28467
2198.0 0.000455 726.16547 1785.38916
2225.0 0.000449 726.15247 1839.10754
2404.0 0.000416 726.13953 1898.02747
2383.0 0.000420 726.12628 1962.81152
2425.0 0.000412 726.11298 2034.20142
2477.0 0.000404 726.09949 2113.02344
2641.0 0.000379 726.08575 2200.19043
2778.0 0.000360 726.07196 2296.70630
2897.0 0.0003452 726.05817 2403.66699
2954.0 0.0003385 726.04388 2522.25806
3232.0 0.0003094 726.02960 2653.75049
3391.0 0.0002949 726.01563 2799.48950
3520.0 0.0002841 726.00104 2960.87842
3651.0 0.0002739 725.98633 3139.34668
3836.0 0.0002607 725.97150 3336.30786
4075.0 0.0002454 725.95673 3553.09839
4177.0 0.0002394 725.94171 3790.89111
4451.0 0.0002247 725.92657 4050.59229
4693.0 0.0002131 725.91138 4332.72510
4864.0 0.0002056 725.89569 4637.32471
5282.0 0.0001893 725.88000 4963.87451
5488.0 0.0001822 725.86414 5311.33008
5837.0 0.0001713 725.84833 5678.28516
6122.0 0.0001633 725.83215 6063.27100
6367.0 0.0001571 725.81604 6465.15479
6633.0 0.0001508 725.79956 6883.48633
7010.0 0.0001427 725.78326 7318.63672
7304.0 0.0001369 725.76642 7771.58301
7524.0 0.0001329 725.74963 8243.28613
7980.0 0.0001253 725.73279 8733.80176
8428.0 0.0001187 725.71576 9241.30762
8860.0 0.0001129 725.69818 9761.31250
9380.0 0.0001066 725.68091 10286.29590
9915.0 0.0001009 725.66321 10805.98438
10439.0 0.0000958 725.64539 11308.36133
10952.0 0.0000913 725.62762 11781.34766
11275.0 0.0000887 725.60962 12214.77344
11609.0 0.0000861 725.59137 12602.05566
12097.0 0.0000827 725.57306 12940.93848
12596.0 0.0000794 725.55463 13232.93945
12898.0 0.0000775 725.53577 13481.67188
13045.0 0.0000767 725.51685 13690.63379
13236.0 0.0000756 725.49792 13861.22070
13485.0 0.0000742 725.47882 13991.51465
13665.0 0.0000732 725.45953 14076.02246
13746.0 0.0000727 725.44000 14106.25293
13792.0 0.0000725 725.42023 14071.82520
13776.0 0.0000726 725.40045 13961.91992
13500.0 0.0000741 725.38062 13766.95020
13129.0 0.0000762 725.36047 13480.41113
12873.0 0.0000777 725.34009 13100.61816
12462.0 0.0000802 725.31952 12631.87305
12132.0 0.0000824 725.29901 12084.62695
11614.0 0.0000861 725.27802 11474.41797
11155.0 0.0000896 725.25726 10819.90430
10535.0 0.0000949 725.23608 10140.56055
9931.0 0.0001007 725.21490 9454.64746
9250.0 0.0001081 725.19330 8777.83203
8734.0 0.0001145 725.17181 8122.52539
8165.0 0.0001225 725.14996 7497.83594
7522.0 0.0001329 725.12817 6909.89502
7036.0 0.0001421 725.10577 6362.35352
6560.0 0.0001524 725.08362 5856.91064
6131.0 0.0001631 725.06116 5393.79590
5712.0 0.0001751 725.03845 4972.16455
5340.0 0.0001873 725.01563 4590.40234
4918.0 0.0002033 724.99274 4246.37500
4520.0 0.0002212 724.96942 3937.60620
4201.0 0.0002380 724.94611 3661.41895
3804.0 0.0002629 724.92249 3415.04175
3597.0 0.0002780 724.89886 3195.69946
3318.0 0.0003014 724.87488 3000.67627
3100.0 0.0003226 724.85107 2827.36841
2924.0 0.0003420 724.82684 2673.32104
2769.0 0.000361 724.80237 2536.25928
2612.0 0.000383 724.77783 2414.10010
2409.0 0.000415 724.75323 2304.96387
2321.0 0.000431 724.72815 2207.17358
2164.0 0.000462 724.70300 2119.24731
2033.0 0.000492 724.67792 2039.89075
1978.0 0.000506 724.65216 1967.98096
1919.0 0.000521 724.62659 1902.55151
1844.0 0.000542 724.60083 1842.77576
1729.0 0.000578 724.57495 1787.94849
1657.0 0.000604 724.54846 1737.47131
1588.0 0.000630 724.52228 1690.83496
1579.0 0.000633 724.49573 1647.60962
1504.0 0.000665 724.46881 1607.42712
1485.0 0.000673 724.44196 1569.97510
1484.0 0.000674 724.41486 1534.98438
1430.0 0.000699 724.38757 1502.22351
1449.0 0.000690 724.36005 1471.49231
1367.0 0.000732 724.33252 1442.61438
1295.0 0.000772 724.30469 1415.43628
1223.0 0.000818 724.27649 1389.82068
1264.0 0.000791 724.24829 1365.64661
1292.0 0.000774 724.21991 1342.80432
1244.0 0.000804 724.19128 1321.19617
1199.0 0.000834 724.16254 1300.73352
1213.0 0.000824 724.13367 1281.33582
1198.0 0.000835 724.10443 1262.92908
1182.0 0.000846 724.07501 1245.44727
1171.0 0.000854 724.04547 1228.82861
1135.0 0.000881 724.01575 1213.01685
1100.0 0.000909 723.98578 1197.95984
1124.0 0.000890 723.95569 1183.61072
1108.0 0.000903 723.92511 1169.92480
1118.0 0.000894 723.89490 1156.86206
1090.0 0.000917 723.86426 1144.38489
1088.0 0.000919 723.83313 1132.45837
1090.0 0.000917 723.80200 1121.05005
1046.0 0.000956 723.77081 1110.13037
1066.0 0.000938 723.73932 1099.67102
1046.0 0.000956 723.70789 1089.64709
1085.0 0.000922 723.67590 1080.03381
1109.0 0.000902 723.64374 1070.80896
1090.0 0.000917 723.61139 1061.95142
1042.0 0.000960 723.57916 1030.74988
1059.0 0.000944 723.54633 1022.70563
1081.0 0.000925 723.51349 1014.97284
1086.0 0.000921 723.48041 1007.53522
1083.0 0.000923 723.44708 1000.37860
1097.0 0.000912 723.41364 1000.17468
1130.0 0.000885 723.38019 993.57867
1132.0 0.000883 723.34619 987.22394
1138.0 0.000879 723.31195 981.09912
1142.0 0.000876 723.27765 975.19263
1172.0 0.000853 723.24335 969.49500
1162.0 0.000861 723.20874 963.99615
1195.0 0.000837 723.17371 958.68689
1197.0 0.000835 723.13873 953.55902
1171.0 0.000854 723.10339 948.60358
1225.0 0.000816 723.06781 943.81390
1247.0 0.000802 723.03229 939.18207
1258.0 0.000795 722.99634 934.70154
1310.0 0.000763 722.96014 930.36554
1315.0 0.000760 722.92383 926.16809
1305.0 0.000766 722.88745 922.10364
1315.0 0.000760 722.85065 918.16602
1312.0 0.000762 722.81360 914.35065
1356.0 0.000737 722.77649 910.65228
1331.0 0.000751 722.73932 907.06635
1351.0 0.000740 722.70178 903.58789
1375.0 0.000727 722.66388 900.21332
1340.0 0.000746 722.62610 896.93829
1361.0 0.000735 722.58789 893.75867
1357.0 0.000737 722.54962 890.67139
1401.0 0.000714 722.51099 887.67249
1393.0 0.000718 722.47211 884.75873
1343.0 0.000745 722.43304 881.92719
1365.0 0.000733 722.39368 879.17438
1329.0 0.000752 722.35431 872.57172
1301.0 0.000769 722.31458 869.99670
1311.0 0.000763 722.27478 867.49200
1282.0 0.000780 722.23480 865.05542
1277.0 0.000783 722.19440 862.68433
1216.0 0.000822 722.15387 860.37653
1198.0 0.000835 722.11328 858.13000
1184.0 0.000845 722.07214 855.94232
1160.0 0.000862 722.03101 853.81158
1179.0 0.000848 721.98962 851.73584
1165.0 0.000858 721.94830 849.71375
1142.0 0.000876 721.90631 847.74292
1098.0 0.000911 721.86432 845.82202
1037.0 0.000964 721.82214 843.94934
1003.0 0.000997 721.77966 842.12299
964.0 0.001037 721.73706 840.34198
937.0 0.001067 721.69421 838.60480
955.0 0.001047 721.65094 836.91003
937.0 0.001067 721.60754 835.25629
897.0 0.001115 721.56403 833.64240
914.0 0.001094 721.52026 832.06702
895.0 0.001117 721.47620 830.52893
874.0 0.001144 721.43195 829.02722
875.0 0.001143 721.38782 827.56073
866.0 0.001155 721.34314 826.12854
854.0 0.001171 721.29803 824.72961
850.0 0.001176 721.25317 823.36279
870.0 0.001149 721.20789 822.02710
842.0 0.001188 721.16235 820.72211
834.0 0.001199 721.11639 819.44653
836.0 0.001196 721.07074 818.19995
829.0 0.001206 721.02441 816.98077
812.0 0.001232 720.97784 815.78925
812.0 0.001232 720.93134 814.62415
820.0 0.001220 720.88416 813.48462
859.0 0.001164 720.83728 812.37018
864.0 0.001157 720.78998 811.27991
809.0 0.001236 720.74237 810.21381
804.0 0.001244 720.69452 809.17072
757.0 0.001321 720.64667 808.14996
749.0 0.001335 720.59851 807.15125
753.0 0.001328 720.54999 806.17401
754.0 0.001326 720.50110 805.21777
756.0 0.001323 720.45233 804.28174
740.0 0.001351 720.40332 803.36548
764.0 0.001309 720.35382 802.46881
759.0 0.001318 720.30420 801.59113
749.0 0.001335 720.25452 800.73169
744.0 0.001344 720.20428 799.89032
749.0 0.001335 720.15399 799.06647
735.0 0.001361 720.10364 798.26007
761.0 0.001314 720.05286 797.47052
743.0 0.001346 720.00165 796.69745
727.0 0.001376 719.95081 795.94006
746.0 0.001340 719.89929 795.19861
732.0 0.001366 719.84778 794.47260
726.0 0.001377 719.79572 793.76160
703.0 0.001422 719.74359 793.06525
707.0 0.001414 719.69110 792.38336
721.0 0.001387 719.63873 791.71570
738.0 0.001355 719.58594 791.06177
720.0 0.001389 719.53259 790.42145
696.0 0.001437 719.47943 789.79431
714.0 0.001401 719.42584 789.18042
740.0 0.001351 719.37207 788.57904
719.0 0.001391 719.31836 787.99030
716.0 0.001397 719.26416 787.41382
699.0 0.001431 719.20959 786.84930
703.0 0.001422 719.15497 786.29706
718.0 0.001393 719.10004 785.75592
692.0 0.001445 719.04480 785.22650
686.0 0.001458 718.98956 784.70813
718.0 0.001393 718.93378 784.20099
711.0 0.001406 718.87811 783.70471
735.0 0.001361 718.82190 783.21881
706.0 0.001416 718.76544 782.74371
709.0 0.001410 718.70911 782.27863
722.0 0.001385 718.65204 781.82416
708.0 0.001412 718.59509 781.37952
732.0 0.001366 718.53766 780.94476
784.0 0.001276 718.48022 780.51953
754.0 0.001326 718.42249 780.10406
740.0 0.001351 718.36462 779.69788
710.0 0.001408 718.30646 779.30121
712.0 0.001404 718.24792 778.91376
717.0 0.001395 718.18933 778.53540
730.0 0.001370 718.13019 778.16571
759.0 0.001318 718.07117 777.80542
760.0 0.001316 718.01166 777.45361
751.0 0.001332 717.95197 777.11029
761.0 0.001314 717.89215 776.77576
726.0 0.001377 717.83185 776.44958
742.0 0.001348 717.77148 776.13202
727.0 0.001376 717.71094 775.82263
727.0 0.001376 717.65027 775.52136
747.0 0.001339 717.58911 775.22852
752.0 0.001330 717.52777 774.94360
731.0 0.001368 717.46619 774.66675
710.0 0.001408 717.40411 774.39795
720.0 0.001389 717.34210 774.13715
760.0 0.001316 717.27985 773.88403
740.0 0.001351 717.21741 773.63879
741.0 0.001350 717.15436 773.40125
740.0 0.001351 717.09143 773.17151
781.0 0.001280 717.02820 772.94940
777.0 0.001287 716.96472 772.73474
780.0 0.001282 716.90076 772.52820
783.0 0.001277 716.83704 772.32898
769.0 0.001300 716.77264 772.13739
812.0 0.001232 716.70801 771.95325
834.0 0.001199 716.64337 771.77667
816.0 0.001225 716.57837 771.60785
830.0 0.001205 716.51331 771.44641
821.0 0.001218 716.44757 771.29236
819.0 0.001221 716.38196 771.14600
847.0 0.001181 716.31610 771.00708
839.0 0.001192 716.24982 770.87561
846.0 0.001182 716.18359 770.75177
830.0 0.001205 716.11682 770.63574
818.0 0.001222 716.04962 770.52692
838.0 0.001193 715.98248 770.42560
835.0 0.001198 715.91492 770.33240
841.0 0.001189 715.84766 770.24652
867.0 0.001153 715.77960 770.16833
872.0 0.001147 715.71130 770.09808
855.0 0.001170 715.64294 770.03546
866.0 0.001155 715.57434 769.98047
874.0 0.001144 715.50549 769.93359
910.0 0.001099 715.43597 769.89459
925.0 0.001081 715.36670 769.86340
923.0 0.001083 715.29718 769.84082
922.0 0.001085 715.22705 769.82593
898.0 0.001114 715.15704 769.81952
870.0 0.001149 715.08673 769.82104
874.0 0.001144 715.01611 769.83087
864.0 0.001157 714.94537 769.84943
872.0 0.001147 714.87402 769.87659
886.0 0.001129 714.80261 769.91211
889.0 0.001125 714.73108 769.95660
873.0 0.001145 714.65924 770.01019
846.0 0.001182 714.58722 770.07233
892.0 0.001121 714.51459 770.14368
901.0 0.001110 714.44220 770.22437
878.0 0.001139 714.36938 770.31445
869.0 0.001151 714.29602 770.41376
817.0 0.001224 714.22266 770.52313
784.0 0.001276 714.14886 770.64221
797.0 0.001255 714.07520 770.77136
824.0 0.001214 714.00104 770.91046
854.0 0.001171 713.92682 771.06006
819.0 0.001221 713.85223 771.22009
804.0 0.001244 713.77722 771.39093
775.0 0.001290 713.70209 771.57251
755.0 0.001325 713.62671 771.76550
747.0 0.001339 713.55121 771.96948
746.0 0.001340 713.47552 772.18524
761.0 0.001314 713.39911 772.41278
743.0 0.001346 713.32300 772.65277
720.0 0.001389 713.24615 772.90460
717.0 0.001395 713.16931 773.16931
755.0 0.001325 713.09222 773.44678
747.0 0.001339 713.01483 773.73761
749.0 0.001335 712.93726 774.04199
751.0 0.001332 712.85925 774.35992
752.0 0.001330 712.78119 774.69238
716.0 0.001397 712.70288 775.03876
709.0 0.001410 712.62427 775.40033
683.0 0.001464 712.54541 775.77734
700.0 0.001429 712.46613 776.16986
716.0 0.001397 712.38672 776.57855
715.0 0.001399 712.30731 755.46399
702.0 0.001425 712.22723 756.05988
678.0 0.001475 712.14722 756.67157
666.0 0.001502 712.06696 757.29932
650.0 0.001538 711.98627 757.94403
647.0 0.001546 711.90546 758.60602
689.0 0.001451 711.82422 759.28607
723.0 0.001383 711.74286 759.98480
708.0 0.001412 711.66125 760.70245
707.0 0.001414 711.57947 761.43982
685.0 0.001460 711.49713 762.19769
720.0 0.001389 711.41479 762.97681
717.0 0.001395 711.33215 763.77783
701.0 0.001427 711.24951 764.60162
718.0 0.001393 711.16602 765.44879
729.0 0.001372 711.08276 766.32043
715.0 0.001399 710.99915 767.21735
698.0 0.001433 710.91498 768.14008
714.0 0.001401 710.83099 769.08990
721.0 0.001387 710.74677 770.06799
725.0 0.001379 710.66187 771.07501
717.0 0.001395 710.57727 772.11230
682.0 0.001466 710.49188 773.18079
676.0 0.001479 710.40637 774.28192
679.0 0.001473 710.32068 775.41675
685.0 0.001460 710.23486 776.58667
700.0 0.001429 710.14874 777.79333
694.0 0.001441 710.06226 779.03778
708.0 0.001412 709.97565 780.32159
695.0 0.001439 709.88861 781.64679
695.0 0.001439 709.80151 783.01459
714.0 0.001401 709.71429 784.42651
752.0 0.001330 709.62653 785.88538
714.0 0.001401 709.53857 787.39203
706.0 0.001416 709.45020 788.94922
686.0 0.001458 709.36176 790.55920
702.0 0.001425 709.27313 792.22363
759.0 0.001318 709.18414 793.94556
726.0 0.001377 709.09485 795.72705
709.0 0.001410 709.00555 797.57104
706.0 0.001416 708.91571 799.48047
713.0 0.001403 708.82599 801.45782
716.0 0.001397 708.73566 803.50702
704.0 0.001420 708.64545 805.63092
757.0 0.001321 708.55444 807.83301
714.0 0.001401 708.46344 810.11737
698.0 0.001433 708.37250 812.48798
711.0 0.001406 708.28094 814.94879
739.0 0.001353 708.18909 817.50476
729.0 0.001372 708.09705 820.16003
747.0 0.001339 708.00500 822.92047
743.0 0.001346 707.91248 825.79077
742.0 0.001348 707.81964 828.77734
749.0 0.001335 707.72681 831.88617
734.0 0.001362 707.63342 835.12378
742.0 0.001348 707.54028 838.49719
789.0 0.001267 707.44623 842.01398
763.0 0.001311 707.35242 845.68268
759.0 0.001318 707.25842 849.51141
759.0 0.001318 707.16345 853.50995
791.0 0.001264 707.06885 857.68829
824.0 0.001214 706.97388 862.05756
799.0 0.001252 706.87866 866.62970
766.0 0.001305 706.78326 871.41724
810.0 0.001235 706.68756 876.43488
826.0 0.001211 706.59143 881.69781
820.0 0.001220 706.49536 887.22260
820.0 0.001220 706.39880 893.02844
817.0 0.001224 706.30225 899.13544
846.0 0.001182 706.20514 905.56689
833.0 0.001200 706.10791 912.34766
839.0 0.001192 706.01031 919.50604
853.0 0.001172 705.91260 927.07385
830.0 0.001205 705.81445 935.08575
844.0 0.001185 705.71631 943.58142
869.0 0.001151 705.61768 952.60504
898.0 0.001114 705.51923 962.20612
896.0 0.001116 705.42004 972.43964
885.0 0.001130 705.32086 983.36780
890.0 0.001124 705.22137 995.05927
932.0 0.001073 705.12158 1007.59119
938.0 0.001066 705.02161 1021.04858
978.0 0.001022 704.92133 1035.52576
979.0 0.001021 704.82080 1051.12708
968.0 0.001033 704.72003 1067.96631
955.0 0.001047 704.61902 1086.16821
983.0 0.001017 704.51776 1105.86853
1030.0 0.000971 704.41644 1127.21460
1055.0 0.000948 704.31464 1150.36450
1099.0 0.000910 704.21265 1175.48840
1103.0 0.000907 704.11041 1202.76770
1119.0 0.000894 704.00793 1232.39514
1167.0 0.000857 703.90509 1264.57397
1229.0 0.000814 703.80219 1299.51807
1260.0 0.000794 703.69885 1337.44983
1282.0 0.000780 703.59534 1378.59839
1312.0 0.000762 703.49170 1423.19861
1431.0 0.000699 703.38751 1471.48511
1455.0 0.000687 703.28345 1523.68799
1464.0 0.000683 703.17902 1580.02588
1493.0 0.000670 703.07422 1640.69446
1586.0 0.000631 702.96924 1705.85364
1659.0 0.000603 702.86407 1775.61133
1654.0 0.000605 702.75867 1850.00464
1736.0 0.000576 702.65289 1928.97668
1802.0 0.000555 702.54681 2012.36060
1893.0 0.000528 702.44092 2099.86133
2034.0 0.000492 702.33435 2191.05566
2140.0 0.000467 702.22766 2285.40698
2255.0 0.000443 702.12073 2382.30444
2292.0 0.000436 702.01349 2481.12817
2365.0 0.000423 701.90607 2581.33838
2439.0 0.000410 701.79846 2682.57007
2551.0 0.000392 701.69055 2784.71802
2725.0 0.000367 701.58228 2887.98804
2903.0 0.0003445 701.47400 2992.89258
3124.0 0.0003201 701.36505 3100.19312
3271.0 0.0003057 701.25629 3210.78247
3369.0 0.0002968 701.14722 3325.53955
3580.0 0.0002793 701.03784 3445.16260
3667.0 0.0002727 700.92816 3570.00854
3806.0 0.0002627 700.81824 3699.94604
3862.0 0.0002589 700.70795 3834.22778
3987.0 0.0002508 700.59753 3971.39185
4138.0 0.0002417 700.48718 4109.19482
4373.0 0.0002287 700.37628 4244.60010
4552.0 0.0002197 700.26514 4373.82861
4578.0 0.0002184 700.15363 4492.51367
4709.0 0.0002124 700.04211 4595.95850
4814.0 0.0002077 699.93036 4679.48975
4862.0 0.0002057 699.81836 4738.88770
4809.0 0.0002079 699.70593 4770.81055
4897.0 0.0002042 699.59344 4773.13721
4865.0 0.0002055 699.48071 4745.16602
4647.0 0.0002152 699.36749 4687.61816
4560.0 0.0002193 699.25439 4602.47705
4548.0 0.0002199 699.14069 4492.71191
4488.0 0.0002228 699.02698 4361.94971
4221.0 0.0002369 698.91290 4214.16650
3985.0 0.0002509 698.79871 4053.42383
3918.0 0.0002552 698.68420 3883.66626
3761.0 0.0002659 698.56946 3708.56860
3445.0 0.0002903 698.45422 3531.43091
3240.0 0.0003086 698.33917 3355.11182
3068.0 0.0003259 698.22375 3181.99756
2964.0 0.0003374 698.10809 3014.00098
2782.0 0.000359 697.99219 2852.58960
2653.0 0.000377 697.87592 2698.82373
2447.0 0.000409 697.75964 2553.41479
2268.0 0.000441 697.64282 2416.77783
2201.0 0.000454 697.52612 2289.08911
2045.0 0.000489 697.40900 2170.33325
1953.0 0.000512 697.29150 2060.34668
1835.0 0.000545 697.17395 1958.85510
1695.0 0.000590 697.05591 1865.50098
1564.0 0.000639 696.93805 1779.86902
1485.0 0.000673 696.81982 1701.50598
1349.0 0.000741 696.70105 1629.93616
1354.0 0.000739 696.58228 1564.67346
1287.0 0.000777 696.46326 1505.23376
1224.0 0.000817 696.34406 1451.14063
1179.0 0.000848 696.22437 1401.93298
1120.0 0.000893 696.10474 1357.17004
1131.0 0.000884 695.98468 1316.43616
1166.0 0.000858 695.86450 1279.34070
1107.0 0.000903 695.74426 1245.52161
1061.0 0.000943 695.62354 1214.64539
1017.0 0.000983 695.50262 1186.40820
962.0 0.001040 695.38147 1160.53296
943.0 0.001060 695.26019 1136.77087
898.0 0.001114 695.13849 1114.89844
904.0 0.001106 695.01648 1094.71643
893.0 0.001120 694.89453 1076.04785
893.0 0.001120 694.77222 1058.73511
892.0 0.001121 694.64960 1042.64099
880.0 0.001136 694.52698 1027.64294
833.0 0.001200 694.40387 1013.63373
827.0 0.001209 694.28064 1000.51904
818.0 0.001222 694.15704 988.21649
809.0 0.001236 694.03333 976.65277
789.0 0.001267 693.90955 965.76355
801.0 0.001248 693.78528 955.49243
798.0 0.001253 693.66095 945.78864
793.0 0.001261 693.53632 936.60815
805.0 0.001242 693.41138 927.91040
819.0 0.001221 693.28644 919.66040
827.0 0.001209 693.16119 911.82568
813.0 0.001230 693.03571 904.37732
797.0 0.001255 692.90979 897.28931
813.0 0.001230 692.78387 890.53809
782.0 0.001279 692.65753 884.10120
761.0 0.001314 692.53101 877.95935
784.0 0.001276 692.40436 872.09418
779.0 0.001284 692.27753 866.48907
791.0 0.001264 692.15027 861.12836
802.0 0.001247 692.02295 855.99744
784.0 0.001276 691.89520 851.08356
753.0 0.001328 691.76752 846.37427
758.0 0.001319 691.63953 841.85822
784.0 0.001276 691.51123 837.52429
808.0 0.001238 691.38269 833.36322
781.0 0.001280 691.25403 829.36511
770.0 0.001299 691.12512 825.52148
744.0 0.001344 690.99585 821.82483
723.0 0.001383 690.86652 818.26703
768.0 0.001302 690.73694 814.84100
806.0 0.001241 690.60706 811.54004
799.0 0.001252 690.47687 808.35834
812.0 0.001232 690.34680 805.28973
813.0 0.001230 690.21625 802.32892
786.0 0.001272 690.08545 799.47028
812.0 0.001232 689.95465 796.70923
845.0 0.001183 689.82330 794.04144
835.0 0.001198 689.69171 791.46216
879.0 0.001138 689.56055 788.96753
852.0 0.001174 689.42841 786.55334
870.0 0.001149 689.29651 784.21655
864.0 0.001157 689.16425 781.95319
865.0 0.001156 689.03180 779.76044
883.0 0.001133 688.89893 777.63507
909.0 0.001100 688.76611 775.57404
902.0 0.001109 688.63306 773.57489
940.0 0.001064 688.49939 771.63440
968.0 0.001033 688.36597 769.75092
982.0 0.001018 688.23218 767.92145
974.0 0.001027 688.09839 766.14429
1031.0 0.000970 687.96393 764.41669
1034.0 0.000967 687.82965 762.73718
1026.0 0.000975 687.69489 761.10376
1049.0 0.000953 687.56000 759.51440
1096.0 0.000912 687.42487 757.96747
1103.0 0.000907 687.28955 756.46143
1130.0 0.000885 687.15405 754.99457
1111.0 0.000900 687.01843 753.56537
1098.0 0.000911 686.88220 752.17255
1144.0 0.000874 686.74634 750.81494
1136.0 0.000880 686.60992 749.49078
1162.0 0.000861 686.47314 748.19891
1221.0 0.000819 686.33624 746.93835
1237.0 0.000808 686.19940 745.70831
1257.0 0.000796 686.06213 744.50684
1300.0 0.000769 685.92468 743.33344
1286.0 0.000778 685.78711 742.18719
1321.0 0.000757 685.64917 741.06714
1291.0 0.000775 685.51105 739.97198
1342.0 0.000745 685.37286 738.90125
1357.0 0.000737 685.23462 737.85406
1310.0 0.000763 685.09576 736.82953
1290.0 0.000775 684.95679 735.82678
1304.0 0.000767 684.81769 734.84540
1341.0 0.000746 684.67853 733.88446
1336.0 0.000749 684.53900 732.94330
1311.0 0.000763 684.39911 732.02142
1324.0 0.000755 684.25909 731.11804
1322.0 0.000756 684.11914 730.23279
1327.0 0.000754 683.97870 729.36487
1291.0 0.000775 683.83826 728.51385
1215.0 0.000823 683.69745 727.67889
1236.0 0.000809 683.55646 726.85986
1215.0 0.000823 683.41534 726.05634
1187.0 0.000842 683.27417 725.26764
1142.0 0.000876 683.13239 724.49329
1149.0 0.000870 682.99078 723.73279
1143.0 0.000875 682.84875 722.98596
1146.0 0.000873 682.70660 722.25208
1072.0 0.000933 682.56415 721.53131
1055.0 0.000948 682.42145 720.82281
997.0 0.001003 682.27869 720.12610
964.0 0.001037 682.13574 719.44135
943.0 0.001060 681.99261 718.76788
929.0 0.001076 681.84918 718.10522
914.0 0.001094 681.70563 717.45355
905.0 0.001105 681.56213 716.81201
862.0 0.001160 681.41797 716.18091
867.0 0.001153 681.27356 715.55933
852.0 0.001174 681.12946 714.94751
816.0 0.001225 680.98486 714.34479
798.0 0.001253 680.84003 713.75122
788.0 0.001269 680.69501 713.16644
786.0 0.001272 680.54993 712.59027
794.0 0.001259 680.40460 712.02228
812.0 0.001232 680.25891 711.46234
758.0 0.001319 680.11328 710.91071
753.0 0.001328 679.96722 710.36633
766.0 0.001305 679.82135 709.82965
765.0 0.001307 679.67487 709.30005
763.0 0.001311 679.52856 708.77771
762.0 0.001312 679.38184 708.26202
749.0 0.001335 679.23474 707.75342
725.0 0.001379 679.08771 707.25116
688.0 0.001453 678.94061 706.75537
689.0 0.001451 678.79309 706.26599
708.0 0.001412 678.64526 705.78247
675.0 0.001481 678.49762 705.30487
699.0 0.001431 678.34967 704.83289
688.0 0.001453 678.20129 704.36682
668.0 0.001497 678.05298 703.90625
677.0 0.001477 677.90442 703.45093
686.0 0.001458 677.75531 703.00098
675.0 0.001481 677.60651 702.55585
672.0 0.001488 677.45752 702.11584
649.0 0.001541 677.30811 701.68085
656.0 0.001524 677.15863 701.25043
681.0 0.001468 677.00897 700.82477
675.0 0.001481 676.85907 700.40375
657.0 0.001522 676.70898 699.98694
644.0 0.001553 676.55865 699.57452
635.0 0.001575 676.40808 699.16614
642.0 0.001558 676.25775 698.76215
640.0 0.001563 676.10699 698.36212
641.0 0.001560 675.95599 697.96588
671.0 0.001490 675.80475 697.57379
662.0 0.001511 675.65338 697.18512
658.0 0.001520 675.50177 696.80035
645.0 0.001550 675.34991 696.41913
606.0 0.001650 675.19836 696.04108
632.0 0.001582 675.04614 695.66675
648.0 0.001543 674.89404 695.29590
680.0 0.001471 674.74152 694.92822
671.0 0.001490 674.58893 694.56372
689.0 0.001451 674.43597 694.20215
676.0 0.001479 674.28345 693.84399
661.0 0.001513 674.13019 693.48895
666.0 0.001502 673.97681 693.13647
671.0 0.001490 673.82324 692.78705
672.0 0.001488 673.66974 692.44055
663.0 0.001508 673.51581 692.09650
665.0 0.001504 673.36194 691.75525
632.0 0.001582 673.20776 691.41675
628.0 0.001592 673.05347 691.08099
622.0 0.001608 672.89893 690.74750
624.0 0.001603 672.74432 690.41632
613.0 0.001631 672.58942 690.08807
617.0 0.001621 672.43439 689.76184
613.0 0.001631 672.27936 689.43793
614.0 0.001629 672.12396 689.11658
638.0 0.001567 671.96838 688.79718
618.0 0.001618 671.81262 688.48010
630.0 0.001587 671.65686 688.16516
644.0 0.001553 671.50098 687.85217
633.0 0.001580 671.34460 687.54126
645.0 0.001550 671.18799 687.23254
620.0 0.001613 671.03156 686.92566
603.0 0.001658 670.87512 686.62103
600.0 0.001667 670.71808 686.31793
591.0 0.001692 670.56097 686.01654
630.0 0.001587 670.40411 685.71753
608.0 0.001645 670.24652 685.41992
608.0 0.001645 670.08899 685.12402
627.0 0.001595 669.93121 684.83014
620.0 0.001613 669.77374 684.53748
606.0 0.001650 669.61578 684.24683
619.0 0.001616 669.45740 683.95782
610.0 0.001639 669.29926 683.67035
603.0 0.001658 669.14063 683.38440
606.0 0.001650 668.98212 683.09991
611.0 0.001637 668.82330 682.81708
597.0 0.001675 668.66449 682.53564
598.0 0.001672 668.50525 682.25562
597.0 0.001675 668.34595 681.97705
605.0 0.001653 668.18671 681.69995
614.0 0.001629 668.02722 681.42407
613.0 0.001631 667.86731 681.14966
610.0 0.001639 667.70758 680.87622
634.0 0.001577 667.54773 680.60443
637.0 0.001570 667.38727 680.33392
653.0 0.001531 667.22687 680.06458
626.0 0.001597 667.06653 679.79620
629.0 0.001590 666.90601 679.52948
621.0 0.001610 666.74506 679.26373
627.0 0.001595 666.58405 678.99884
623.0 0.001605 666.42322 678.73553
643.0 0.001555 666.26196 678.47296
635.0 0.001575 666.10046 678.21161
644.0 0.001553 665.93915 677.95148
673.0 0.001486 665.77740 677.69238
647.0 0.001546 665.61554 677.43414
637.0 0.001570 665.45355 677.17712
644.0 0.001553 665.29156 676.92120
644.0 0.001553 665.12933 676.66583
639.0 0.001565 664.96698 676.41168
623.0 0.001605 664.80408 676.15839
622.0 0.001608 664.64160 675.90613
638.0 0.001567 664.47858 675.65472
650.0 0.001538 664.31580 675.40442
644.0 0.001553 664.15259 675.15454
645.0 0.001550 663.98950 674.90576
636.0 0.001572 663.82599 674.65790
625.0 0.001600 663.66254 674.41083
642.0 0.001558 663.49860 674.16492
639.0 0.001565 663.33502 673.91943
633.0 0.001580 663.17102 673.67468
644.0 0.001553 663.00671 673.43060
667.0 0.001499 662.84265 673.18774
655.0 0.001527 662.67822 672.94537
657.0 0.001522 662.51385 672.70367
657.0 0.001522 662.34930 672.46301
687.0 0.001456 662.18427 672.22266
698.0 0.001433 662.01953 671.98322
705.0 0.001418 661.85437 671.74438
671.0 0.001490 661.68927 671.50647
652.0 0.001534 661.52393 671.26892
683.0 0.001464 661.35852 671.03223
712.0 0.001404 661.19293 670.79626
677.0 0.001477 661.02740 670.56079
656.0 0.001524 660.86145 670.32605
656.0 0.001524 660.69537 670.09161
684.0 0.001462 660.52930 669.85822
697.0 0.001435 660.36310 669.62500
717.0 0.001395 660.19690 669.39246
702.0 0.001425 660.03040 669.16071
758.0 0.001319 659.86371 668.92938
780.0 0.001282 659.69690 668.69885
780.0 0.001282 659.52997 668.46844
779.0 0.001284 659.36322 668.23883
749.0 0.001335 659.19598 668.00964
760.0 0.001316 659.02887 667.78131
778.0 0.001285 658.86127 667.55304
786.0 0.001272 658.69409 667.32538
808.0 0.001238 658.52637 667.09857
823.0 0.001215 658.35846 666.87170
826.0 0.001211 658.19086 666.64563
861.0 0.001161 658.02277 666.42017
874.0 0.001144 657.85492 666.19501
876.0 0.001142 657.68646 665.97021
868.0 0.001152 657.51849 665.74615
907.0 0.001103 657.34985 665.52234
929.0 0.001076 657.18134 665.29895
908.0 0.001101 657.01282 665.07611
943.0 0.001060 656.84393 664.85358
953.0 0.001049 656.67493 664.63153
907.0 0.001103 656.50580 664.40979
918.0 0.001089 656.33685 664.18866
929.0 0.001076 656.16760 663.96759
931.0 0.001074 655.99823 663.74725
966.0 0.001035 655.82886 663.52710
951.0 0.001052 655.65924 663.30750
918.0 0.001089 655.48938 663.08801
939.0 0.001065 655.31934 662.86902
929.0 0.001076 655.14984 662.65051
894.0 0.001119 654.97968 662.43231
879.0 0.001138 654.80963 662.21429
911.0 0.001098 654.63928 661.99683
905.0 0.001105 654.46893 661.77972
877.0 0.001140 654.29858 661.56281
865.0 0.001156 654.12793 661.34625
842.0 0.001188 653.95734 661.13031
825.0 0.001212 653.78650 660.91443
813.0 0.001230 653.61566 660.69867
803.0 0.001245 653.44458 660.48358
823.0 0.001215 653.27344 660.26880
805.0 0.001242 653.10254 660.05414
768.0 0.001302 652.93091 659.83972
771.0 0.001297 652.75970 659.62579
754.0 0.001326 652.58813 659.41211
739.0 0.001353 652.41650 659.19855
738.0 0.001355 652.24500 658.98560
723.0 0.001383 652.07306 658.77271
704.0 0.001420 651.90112 658.55975
682.0 0.001466 651.72931 658.34778
678.0 0.001475 651.55725 658.13574
679.0 0.001473 651.38495 657.92377
656.0 0.001524 651.21252 651.21112
645.0 0.001550 651.04034 651.03845
676.0 0.001479 650.86792 650.86609
667.0 0.001499 650.69543 650.69348
653.0 0.001531 650.52277 650.52075
646.0 0.001548 650.34985 650.34796
645.0 0.001550 650.17706 650.17542
661.0 0.001513 650.00415 650.00214
643.0 0.001555 649.83130 649.82922
653.0 0.001531 649.65814 649.65619
654.0 0.001529 649.48486 649.48297
647.0 0.001546 649.31152 649.30939
646.0 0.001548 649.13824 649.13605
631.0 0.001585 648.96466 648.96271
631.0 0.001585 648.79114 648.78888
617.0 0.001621 648.61761 648.61530
601.0 0.001664 648.44397 648.44196
618.0 0.001618 648.27002 648.26788
632.0 0.001582 648.09619 648.09387
614.0 0.001629 647.92200 647.91974
653.0 0.001531 647.74823 647.74591
645.0 0.001550 647.57397 647.57178
646.0 0.001548 647.39960 647.39758
618.0 0.001618 647.22546 647.22314
619.0 0.001616 647.05096 659.70660
630.0 0.001587 646.87653 659.62531
643.0 0.001555 646.70215 659.54462
638.0 0.001567 646.52759 659.46509
646.0 0.001548 646.35272 659.38641
618.0 0.001618 646.17773 659.30872
637.0 0.001570 646.00299 659.23199
629.0 0.001590 645.82813 659.15643
621.0 0.001610 645.65314 659.08191
609.0 0.001642 645.47809 659.00830
609.0 0.001642 645.30304 658.93597
617.0 0.001621 645.12769 658.86469
592.0 0.001689 644.95245 658.79431
609.0 0.001642 644.77704 658.72522
610.0 0.001639 644.60156 658.65741
623.0 0.001605 644.42603 658.59058
624.0 0.001603 644.25037 658.52509
595.0 0.001681 644.07477 658.46082
637.0 0.001570 643.89917 658.39758
631.0 0.001585 643.72327 658.33575
586.0 0.001706 643.54742 658.27533
614.0 0.001629 643.37152 658.21625
630.0 0.001587 643.19550 658.15826
594.0 0.001684 643.01929 658.10175
570.0 0.001754 642.84332 658.04657
566.0 0.001767 642.66711 657.99286
598.0 0.001672 642.49091 657.94019
604.0 0.001656 642.31445 657.88953
578.0 0.001730 642.13831 657.84003
557.0 0.001795 641.96185 657.79181
565.0 0.001770 641.78516 657.74554
580.0 0.001724 641.60858 657.70081
606.0 0.001650 641.43213 657.65735
579.0 0.001727 641.25531 657.61566
597.0 0.001675 641.07867 657.57562
593.0 0.001686 640.90173 657.53729
606.0 0.001650 640.72510 657.50049
599.0 0.001669 640.54810 657.46539
595.0 0.001681 640.37115 657.43225
602.0 0.001661 640.19403 657.40070
590.0 0.001695 640.01703 657.37103
570.0 0.001754 639.83978 657.34326
565.0 0.001770 639.66266 657.31763
569.0 0.001757 639.48560 657.29340
569.0 0.001757 639.30792 657.27148
609.0 0.001642 639.13080 657.25134
624.0 0.001603 638.95349 657.23346
628.0 0.001592 638.77594 657.21753
654.0 0.001529 638.59857 657.20349
621.0 0.001610 638.42108 657.19189
610.0 0.001639 638.24341 657.18237
602.0 0.001661 638.06561 657.17493
574.0 0.001742 637.88806 657.17004
581.0 0.001721 637.71039 657.16718
602.0 0.001661 637.53265 657.16675
607.0 0.001647 637.35468 657.16870
586.0 0.001706 637.17700 657.17285
631.0 0.001585 636.99896 657.18005
613.0 0.001631 636.82098 657.18933
606.0 0.001650 636.64307 657.20142
584.0 0.001712 636.46509 657.21606
572.0 0.001748 636.28705 657.23346
578.0 0.001730 636.10895 657.25330
601.0 0.001664 635.93073 657.27631
597.0 0.001675 635.75269 657.30188
611.0 0.001637 635.57434 657.33032
625.0 0.001600 635.39594 657.36182
631.0 0.001585 635.21783 657.39642
598.0 0.001672 635.03943 657.43402
593.0 0.001686 634.86102 657.47498
581.0 0.001721 634.68256 657.51855
586.0 0.001706 634.50439 657.56610
577.0 0.001733 634.32562 657.61658
611.0 0.001637 634.14703 657.67047
602.0 0.001661 633.96875 657.72778
563.0 0.001776 633.79004 657.78888
572.0 0.001748 633.61145 657.85321
641.0 0.001560 633.43280 657.92151
670.0 0.001493 633.25409 657.99353
630.0 0.001587 633.07550 658.06921
584.0 0.001712 632.89685 658.14899
591.0 0.001692 632.71790 658.23242
571.0 0.001751 632.53937 658.32050
580.0 0.001724 632.36060 658.41241
574.0 0.001742 632.18170 658.50861
572.0 0.001748 632.00293 658.60931
601.0 0.001664 631.82385 658.71436
600.0 0.001667 631.64502 658.82385
602.0 0.001661 631.46619 658.93823
617.0 0.001621 631.28723 659.05713
598.0 0.001672 631.10828 659.18103
601.0 0.001664 630.92932 659.30988
611.0 0.001637 630.75031 659.44385
620.0 0.001613 630.57129 659.58270
591.0 0.001692 630.39246 659.72723
602.0 0.001661 630.21295 659.87689
612.0 0.001634 630.03406 660.03217
625.0 0.001600 629.85498 660.19330
636.0 0.001572 629.67578 660.35992
603.0 0.001658 629.49664 660.53296
592.0 0.001689 629.31763 660.71173
632.0 0.001582 629.13867 660.89642
609.0 0.001642 628.95935 661.08783
603.0 0.001658 628.78003 661.28564
606.0 0.001650 628.60101 661.49042
615.0 0.001626 628.42175 661.70154
623.0 0.001605 628.24237 661.91992
624.0 0.001603 628.06342 662.14563
637.0 0.001570 627.88397 662.37817
622.0 0.001608 627.70483 662.61847
642.0 0.001558 627.52582 662.86670
607.0 0.001647 627.34619 663.12268
622.0 0.001608 627.16693 663.38641
628.0 0.001592 626.98755 663.65881
640.0 0.001563 626.80859 663.93945
626.0 0.001597 626.62921 664.22919
651.0 0.001536 626.44977 664.52734
654.0 0.001529 626.27075 664.83508
665.0 0.001504 626.09143 665.15198
646.0 0.001548 625.91217 665.47845
644.0 0.001553 625.73291 665.81500
672.0 0.001488 625.55353 666.16168
645.0 0.001550 625.37433 666.51862
663.0 0.001508 625.19489 666.88623
649.0 0.001541 625.01587 667.26514
654.0 0.001529 624.83643 667.65509
667.0 0.001499 624.65704 668.05658
661.0 0.001513 624.47809 668.46991
657.0 0.001522 624.29871 668.89575
680.0 0.001471 624.11926 669.33405
674.0 0.001484 623.94000 669.78510
668.0 0.001497 623.76074 670.24982
657.0 0.001522 623.58148 670.72772
692.0 0.001445 623.40234 671.22003
698.0 0.001433 623.22290 671.72662
713.0 0.001403 623.04388 672.24811
704.0 0.001420 622.86469 672.78516
704.0 0.001420 622.68524 673.33765
728.0 0.001374 622.50592 673.90631
753.0 0.001328 622.32684 674.49188
752.0 0.001330 622.14789 675.09436
724.0 0.001381 621.96851 675.71503
701.0 0.001427 621.78955 676.35352
737.0 0.001357 621.61035 677.01111
727.0 0.001376 621.43115 677.68781
746.0 0.001340 621.25214 678.38470
742.0 0.001348 621.07324 679.10248
736.0 0.001359 620.89392 679.84113
727.0 0.001376 620.71490 680.60175
730.0 0.001370 620.53589 681.38544
723.0 0.001383 620.35693 682.19214
681.0 0.001468 620.17798 683.02332
668.0 0.001497 619.99890 683.87927
699.0 0.001431 619.81976 684.76117
726.0 0.001377 619.64117 685.66968
686.0 0.001458 619.46204 686.60565
688.0 0.001453 619.28314 687.57001
680.0 0.001471 619.10425 688.56421
659.0 0.001517 618.92554 689.58868
664.0 0.001506 618.74664 690.64484
678.0 0.001475 618.56805 691.73383
687.0 0.001456 618.38934 692.85626
670.0 0.001493 618.21051 694.01385
689.0 0.001451 618.03156 695.20789
649.0 0.001541 617.85309 696.43964
625.0 0.001600 617.67426 697.71027
634.0 0.001577 617.49579 699.02142
661.0 0.001513 617.31714 700.37457
695.0 0.001439 617.13855 701.77142
659.0 0.001517 616.96002 703.21362
650.0 0.001538 616.78137 704.70258
666.0 0.001502 616.60309 706.24078
678.0 0.001475 616.42444 707.82959
699.0 0.001431 616.24615 709.47107
688.0 0.001453 616.06793 711.16785
681.0 0.001468 615.88959 712.92157
671.0 0.001490 615.71130 714.73480
677.0 0.001477 615.53290 716.60986
667.0 0.001499 615.35474 718.54980
696.0 0.001437 615.17633 720.55676
719.0 0.001391 614.99829 722.63428
699.0 0.001431 614.82007 724.78491
695.0 0.001439 614.64227 727.01184
702.0 0.001425 614.46411 729.31873
675.0 0.001481 614.28607 731.70874
667.0 0.001499 614.10822 734.18634
660.0 0.001515 613.93042 736.75476
667.0 0.001499 613.75256 739.41858
713.0 0.001403 613.57471 742.18213
728.0 0.001374 613.39685 745.05060
704.0 0.001420 613.21906 748.02826
766.0 0.001305 613.04138 751.12097
748.0 0.001337 612.86377 754.33411
759.0 0.001318 612.68622 757.67401
795.0 0.001258 612.50873 761.14648
782.0 0.001279 612.33118 764.75848
795.0 0.001258 612.15369 768.51764
775.0 0.001290 611.97638 772.43115
785.0 0.001274 611.79895 776.50751
786.0 0.001272 611.62183 780.75549
762.0 0.001312 611.44452 785.18396
768.0 0.001302 611.26721 789.80322
772.0 0.001295 611.09021 794.62421
755.0 0.001325 610.91321 799.65820
791.0 0.001264 610.73621 804.91730
823.0 0.001215 610.55933 810.41504
852.0 0.001174 610.38214 816.16577
837.0 0.001195 610.20526 822.18463
833.0 0.001200 610.02875 828.48865
820.0 0.001220 609.85175 835.09558
810.0 0.001235 609.67517 842.02539
835.0 0.001198 609.49841 849.29987
828.0 0.001208 609.32184 856.94208
880.0 0.001136 609.14539 864.97858
865.0 0.001156 608.96899 873.43823
860.0 0.001163 608.79260 882.51013
915.0 0.001093 608.61627 891.91681
927.0 0.001079 608.44006 901.85516
959.0 0.001043 608.26379 912.36981
985.0 0.001015 608.08765 923.51300
992.0 0.001008 607.91168 935.34314
984.0 0.001016 607.73560 947.92676
990.0 0.001010 607.55963 961.34003
1021.0 0.000979 607.38379 975.67078
1058.0 0.000945 607.20825 991.01886
1054.0 0.000949 607.03247 1007.49829
1123.0 0.000890 606.85669 1025.23938
1157.0 0.000864 606.68085 1044.39172
1216.0 0.000822 606.50549 1065.12305
1258.0 0.000795 606.33002 1087.62451
1223.0 0.000818 606.15460 1112.11047
1240.0 0.000806 605.97913 1138.82104
1287.0 0.000777 605.80414 1168.02307
1329.0 0.000752 605.62885 1200.01135
1422.0 0.000703 605.45380 1235.10962
1461.0 0.000684 605.27875 1273.67200
1545.0 0.000647 605.10370 1316.08081
1528.0 0.000654 604.92871 1362.74866
1597.0 0.000626 604.75403 1414.11584
1673.0 0.000598 604.57916 1470.65088
1816.0 0.000551 604.40491 1532.84753
1846.0 0.000542 604.23022 1601.22278
1864.0 0.000536 604.05566 1676.31372
1947.0 0.000514 603.88135 1758.67224
2048.0 0.000488 603.70703 1848.85901
2152.0 0.000465 603.53259 1947.43396
2259.0 0.000443 603.35852 2054.94116
2330.0 0.000429 603.18451 2171.88940
2452.0 0.000408 603.01056 2298.72778
2657.0 0.000376 602.83655 2435.81128
2786.0 0.000359 602.66278 2583.35547
2961.0 0.0003377 602.48901 2741.39502
3126.0 0.0003199 602.31519 2909.73193
3185.0 0.0003140 602.14166 3087.90161
3379.0 0.0002959 601.96838 3275.15991
3580.0 0.0002793 601.79480 3470.51123
3793.0 0.0002636 601.62140 3672.79492
4004.0 0.0002498 601.44818 3880.82544
4230.0 0.0002364 601.27502 4093.57764
4479.0 0.0002233 601.10193 4310.38135
4566.0 0.0002190 600.92914 4531.06055
4837.0 0.0002067 600.75616 4755.97070
5006.0 0.0001998 600.58331 4985.90723
5267.0 0.0001899 600.41052 5223.62109
5499.0 0.0001819 600.23798 5466.51074
5699.0 0.0001755 600.06555 5716.70703
5923.0 0.0001688 599.89313 5973.74219
6088.0 0.0001643 599.72095 6235.96094
6323.0 0.0001582 599.54846 6500.25830
6511.0 0.0001536 599.37628 6761.91357
6611.0 0.0001513 599.20441 7014.55908
6774.0 0.0001476 599.03247 7250.32764
6977.0 0.0001433 598.86060 7460.23682
7047.0 0.0001419 598.68872 7634.81885
7040.0 0.0001420 598.51733 7764.98926
7161.0 0.0001396 598.34558 7843.01709
7177.0 0.0001393 598.17401 7863.41992
7076.0 0.0001413 598.00269 7823.60010
6983.0 0.0001432 597.83173 7724.04883
6878.0 0.0001454 597.66046 7568.14453
6758.0 0.0001480 597.48944 7361.59619
6678.0 0.0001497 597.31848 7111.74707
6513.0 0.0001535 597.14771 6826.84961
6126.0 0.0001632 596.97675 6515.44287
5847.0 0.0001710 596.80603 6185.85742
5441.0 0.0001838 596.63562 5845.84668
5207.0 0.0001920 596.46527 5502.33301
4905.0 0.0002039 596.29492 5161.26611
4537.0 0.0002204 596.12463 4827.55762
4248.0 0.0002354 595.95459 4505.10498
4131.0 0.0002421 595.78479 4196.86035
3932.0 0.0002543 595.61469 3904.93677
3705.0 0.0002699 595.44501 3630.72729
3419.0 0.0002925 595.27533 3375.01904
3199.0 0.0003126 595.10565 3138.10449
2911.0 0.0003435 594.93622 2919.88062
2650.0 0.000377 594.76697 2719.92798
2519.0 0.000397 594.59772 2537.58496
2357.0 0.000424 594.42877 2372.00732
2210.0 0.000452 594.25983 2222.21924
2037.0 0.000491 594.09064 2087.15649
1943.0 0.000515 593.92188 1965.70654
1861.0 0.000537 593.75348 1856.73816
1780.0 0.000562 593.58478 1759.12817
1639.0 0.000610 593.41638 1671.78247
1620.0 0.000617 593.24805 1593.65356
1583.0 0.000632 593.07971 1523.75500
1498.0 0.000668 592.91193 1461.16809
1392.0 0.000718 592.74384 1405.04712
1304.0 0.000767 592.57599 1354.62439
1257.0 0.000796 592.40839 1309.20886
1191.0 0.000840 592.24084 1268.18347
1158.0 0.000864 592.07330 1231.00317
1128.0 0.000887 591.90594 1197.18958
1100.0 0.000909 591.73877 1166.32471
1099.0 0.000910 591.57159 1138.04651
1105.0 0.000905 591.40448 1112.04285
1064.0 0.000940 591.23785 1088.04517
1028.0 0.000973 591.07117 1065.82190
980.0 0.001020 590.90442 1045.17554
929.0 0.001076 590.73792 1025.93713
903.0 0.001107 590.57166 1007.96112
905.0 0.001105 590.40521 991.12262
898.0 0.001114 590.23926 975.31335
904.0 0.001106 590.07324 960.44092
920.0 0.001087 589.90753 946.42310
909.0 0.001100 589.74170 933.18927
892.0 0.001121 589.57599 920.67694
883.0 0.001133 589.41071 908.83081
836.0 0.001196 589.24512 897.60095
817.0 0.001224 589.08002 886.94354
816.0 0.001225 588.91486 876.81860
816.0 0.001225 588.74994 867.19049
807.0 0.001239 588.58521 858.02582
790.0 0.001266 588.42047 849.29498
751.0 0.001332 588.25604 840.97058
751.0 0.001332 588.09161 833.02747
763.0 0.001311 587.92737 825.44220
742.0 0.001348 587.76318 818.19360
743.0 0.001346 587.59930 811.26196
729.0 0.001372 587.43536 804.62866
684.0 0.001462 587.27155 798.27661
677.0 0.001477 587.10815 792.19043
715.0 0.001399 586.94458 786.35486
722.0 0.001385 586.78125 780.75647
727.0 0.001376 586.61804 775.38220
717.0 0.001395 586.45502 770.22058
697.0 0.001435 586.29187 765.53235
668.0 0.001497 586.12939 760.76398
668.0 0.001497 585.96686 756.17682
685.0 0.001460 585.80444 751.76141
666.0 0.001502 585.64209 747.50891
665.0 0.001504 585.47974 743.41193
662.0 0.001511 585.31763 739.46240
665.0 0.001504 585.15576 735.65308
675.0 0.001481 584.99426 731.97760
655.0 0.001527 584.83258 728.42957
635.0 0.001575 584.67114 725.00330
627.0 0.001595 584.50977 721.69250
613.0 0.001631 584.34845 718.49243
650.0 0.001538 584.18781 715.39832
632.0 0.001582 584.02667 712.40497
640.0 0.001563 583.86603 709.50818
639.0 0.001565 583.70526 706.70380
658.0 0.001520 583.54498 703.98798
664.0 0.001506 583.38464 701.35651
656.0 0.001524 583.22430 698.80615
652.0 0.001534 583.06464 696.33362
684.0 0.001462 582.90485 693.93536
651.0 0.001536 582.74506 691.60846
640.0 0.001563 582.58545 689.35052
680.0 0.001471 582.42621 687.15845
671.0 0.001490 582.26678 685.02936
656.0 0.001524 582.10785 682.96130
661.0 0.001513 581.94922 680.95160
627.0 0.001595 581.79028 678.99805
628.0 0.001592 581.63177 677.09863
619.0 0.001616 581.47327 675.25153
613.0 0.001631 581.31506 673.45453
596.0 0.001678 581.15668 671.70593
578.0 0.001730 580.99902 670.00378
584.0 0.001712 580.84113 668.34650
577.0 0.001733 580.68335 666.73291
600.0 0.001667 580.52606 665.16071
604.0 0.001656 580.36871 663.62909
589.0 0.001698 580.21143 662.13660
584.0 0.001712 580.05457 660.68146
600.0 0.001667 579.89758 659.26270
617.0 0.001621 579.74091 657.87915
612.0 0.001634 579.58447 656.53015
621.0 0.001610 579.42816 655.21350
633.0 0.001580 579.27191 653.92889
643.0 0.001555 579.11584 652.67542
630.0 0.001587 578.96008 651.45172
615.0 0.001626 578.80426 650.25665
596.0 0.001678 578.64868 649.09015
585.0 0.001709 578.49323 647.95044
607.0 0.001647 578.33801 646.83746
591.0 0.001692 578.18304 645.74994
588.0 0.001701 578.02808 644.68762
613.0 0.001631 577.87354 643.64899
593.0 0.001686 577.71899 642.63422
590.0 0.001695 577.56458 641.64209
600.0 0.001667 577.41058 640.67212
598.0 0.001672 577.25653 639.72394
607.0 0.001647 577.10260 638.79663
613.0 0.001631 576.94885 637.88971
630.0 0.001587 576.79535 637.00250
617.0 0.001621 576.64197 636.13501
596.0 0.001678 576.48871 635.28625
596.0 0.001678 576.33582 634.45599
587.0 0.001704 576.18298 633.64349
605.0 0.001653 576.03027 632.84851
597.0 0.001675 575.87781 632.07080
586.0 0.001706 575.72571 631.30975
613.0 0.001631 575.57336 630.56494
596.0 0.001678 575.42133 629.83618
578.0 0.001730 575.26984 629.12280
604.0 0.001656 575.11810 628.42474
610.0 0.001639 574.96655 627.74170
616.0 0.001623 574.81531 627.07294
628.0 0.001592 574.66418 626.41913
596.0 0.001678 574.51343 625.77881
599.0 0.001669 574.36273 625.15216
597.0 0.001675 574.21228 624.53918
562.0 0.001779 574.06165 623.93945
574.0 0.001742 573.91144 623.35260
585.0 0.001709 573.76147 622.77875
607.0 0.001647 573.61188 622.21735
600.0 0.001667 573.46210 622.94904
601.0 0.001664 573.31268 622.42157
605.0 0.001653 573.16345 621.90588
613.0 0.001631 573.01434 621.40259
602.0 0.001661 572.86536 620.91058
594.0 0.001684 572.71655 620.43011
593.0 0.001686 572.56818 619.96130
593.0 0.001686 572.41992 619.50348
556.0 0.001799 572.27155 619.05719
591.0 0.001692 572.12360 618.62158
619.0 0.001616 571.97601 618.19733
615.0 0.001626 571.82813 617.78375
593.0 0.001686 571.68060 617.38062
586.0 0.001706 571.53357 616.98846
596.0 0.001678 571.38641 616.60687
586.0 0.001706 571.23962 616.23553
591.0 0.001692 571.09290 615.87476
601.0 0.001664 570.94641 615.52448
606.0 0.001650 570.80023 615.18451
633.0 0.001580 570.65387 614.85468
592.0 0.001689 570.50806 614.53564
587.0 0.001704 570.36224 614.22662
591.0 0.001692 570.21692 613.92798
586.0 0.001706 570.07135 613.63983
608.0 0.001645 569.92621 613.36176
594.0 0.001684 569.78143 613.09406
579.0 0.001727 569.63654 612.83667
571.0 0.001751 569.49200 612.58966
571.0 0.001751 569.34760 612.35333
582.0 0.001718 569.20337 612.12744
576.0 0.001736 569.05945 611.91223
588.0 0.001701 568.91577 611.70782
601.0 0.001664 568.77209 611.51410
588.0 0.001701 568.62866 611.33136
566.0 0.001767 568.48529 611.15973
565.0 0.001770 568.34259 610.99927
559.0 0.001789 568.19952 610.85028
559.0 0.001789 568.05695 610.71283
571.0 0.001751 567.91461 610.58679
568.0 0.001761 567.77234 610.47302
564.0 0.001773 567.63037 610.37091
571.0 0.001751 567.48834 610.28137
592.0 0.001689 567.34692 610.20459
573.0 0.001745 567.20544 610.14081
572.0 0.001748 567.06415 610.08990
575.0 0.001739 566.92316 610.05280
557.0 0.001795 566.78223 610.02948
571.0 0.001751 566.64160 610.02051
573.0 0.001745 566.50128 610.02606
573.0 0.001745 566.36090 610.04681
565.0 0.001770 566.22095 610.08313
564.0 0.001773 566.08099 610.13556
585.0 0.001709 565.94153 610.20465
562.0 0.001779 565.80212 610.29095
581.0 0.001721 565.66266 610.39539
582.0 0.001718 565.52374 610.51855
582.0 0.001718 565.38507 610.66125
586.0 0.001706 565.24628 610.82410
574.0 0.001742 565.10809 611.00848
574.0 0.001742 564.96967 611.21564
576.0 0.001736 564.83197 611.44641
600.0 0.001667 564.69397 611.70197
624.0 0.001603 564.55634 611.98419
615.0 0.001626 564.41907 612.29474
624.0 0.001603 564.28198 612.63544
586.0 0.001706 564.14490 613.00824
574.0 0.001742 564.00818 613.41522
568.0 0.001761 563.87177 613.85944
565.0 0.001770 563.73529 614.34332
557.0 0.001795 563.59943 614.87012
571.0 0.001751 563.46332 615.44360
596.0 0.001678 563.32751 616.06714
625.0 0.001600 563.19208 616.74487
616.0 0.001623 563.05688 617.48175
605.0 0.001653 562.92194 618.28241
611.0 0.001637 562.78693 619.15240
626.0 0.001597 562.65210 620.09766
617.0 0.001621 562.51770 621.12408
632.0 0.001582 562.38379 622.23932
622.0 0.001608 562.24963 623.44922
597.0 0.001675 562.11578 624.76227
571.0 0.001751 561.98218 626.18665
576.0 0.001736 561.84882 627.73004
584.0 0.001712 561.71576 629.40240
587.0 0.001704 561.58276 631.21161
598.0 0.001672 561.45020 633.16803
602.0 0.001661 561.31738 635.28003
622.0 0.001608 561.18506 637.55719
626.0 0.001597 561.05304 640.00842
603.0 0.001658 560.92133 642.64105
610.0 0.001639 560.78961 645.46173
645.0 0.001550 560.65808 648.47595
655.0 0.001527 560.52716 651.68616
638.0 0.001567 560.39600 655.09247
614.0 0.001629 560.26544 658.69165
623.0 0.001605 560.13477 662.47754
615.0 0.001626 560.00433 666.44073
629.0 0.001590 559.87433 670.56927
626.0 0.001597 559.74432 674.85010
646.0 0.001548 559.61469 679.27124
680.0 0.001471 559.48529 683.82184
698.0 0.001433 559.35596 688.49518
699.0 0.001431 559.22693 693.28876
686.0 0.001458 559.09821 698.20465
693.0 0.001443 558.96960 703.24664
667.0 0.001499 558.84100 708.41821
732.0 0.001366 558.71301 713.71997
733.0 0.001364 558.58514 719.14294
724.0 0.001381 558.45740 724.66797
700.0 0.001429 558.32996 730.26111
702.0 0.001425 558.20282 735.87378
708.0 0.001412 558.07556 741.44037
696.0 0.001437 557.94885 746.88477
697.0 0.001435 557.82233 752.12164
701.0 0.001427 557.69592 757.06750
706.0 0.001416 557.56989 761.64740
721.0 0.001387 557.44397 765.80585
716.0 0.001397 557.31830 769.51501
756.0 0.001323 557.19281 772.78229
766.0 0.001305 557.06769 775.64972
774.0 0.001292 556.94275 778.19543
795.0 0.001258 556.81787 780.52594
753.0 0.001328 556.69330 782.77246
777.0 0.001287 556.56866 772.81793
821.0 0.001218 556.44476 775.43170
804.0 0.001244 556.32111 778.42072
774.0 0.001292 556.19745 781.94202
787.0 0.001271 556.07385 786.14819
821.0 0.001218 555.95062 791.18585
811.0 0.001233 555.82764 797.19189
774.0 0.001292 555.70526 804.29773
784.0 0.001276 555.58258 812.62671
770.0 0.001299 555.46021 822.29474
791.0 0.001264 555.33801 833.41089
827.0 0.001209 555.21631 846.07867
830.0 0.001205 555.09485 860.39331
876.0 0.001142 554.97357 876.44116
876.0 0.001142 554.85236 894.29840
909.0 0.001100 554.73151 914.02686
911.0 0.001098 554.61053 935.66931
907.0 0.001103 554.49036 959.24542
949.0 0.001054 554.37024 984.74640
961.0 0.001041 554.25012 1012.12927
977.0 0.001024 554.13037 1041.31323
1011.0 0.000989 554.01093 1072.17859
1046.0 0.000956 553.89172 1104.57068
1086.0 0.000921 553.77283 1138.30688
1115.0 0.000897 553.65381 1173.19104
1135.0 0.000881 553.53522 1209.03052
1185.0 0.000844 553.41705 1245.65527
1232.0 0.000812 553.29877 1282.93103
1299.0 0.000770 553.18103 1320.76599
1349.0 0.000741 553.06323 1359.10205
1392.0 0.000718 552.94598 1397.89441
1422.0 0.000703 552.82867 1437.07678
1430.0 0.000699 552.71179 1476.52136
1530.0 0.000654 552.59485 1515.99500
1592.0 0.000628 552.47888 1555.12000
1571.0 0.000637 552.36224 1593.34729
1609.0 0.000622 552.24646 1629.94312
1625.0 0.000615 552.13074 1663.99902
1742.0 0.000574 552.01520 1694.46631
1803.0 0.000555 551.89984 1720.21912
1764.0 0.000567 551.78491 1740.14050
1730.0 0.000578 551.67010 1753.22534
1714.0 0.000583 551.55554 1758.68176
1727.0 0.000579 551.44122 1756.01501
1724.0 0.000580 551.32684 1745.08057
1674.0 0.000597 551.21332 1726.09058
1612.0 0.000620 551.09955 1699.58472
1572.0 0.000636 550.98615 1666.36548
1526.0 0.000655 550.87299 1627.42273
1497.0 0.000668 550.75995 1583.84973
1451.0 0.000689 550.64752 1536.77063
1368.0 0.000731 550.53503 1487.27917
1317.0 0.000759 550.42285 1436.38977
1313.0 0.000762 550.31079 1385.01013
1288.0 0.000776 550.19910 1333.92102
1243.0 0.000805 550.08777 1283.77209
1219.0 0.000820 549.97656 1235.08521
1137.0 0.000880 549.86536 1188.26367
1107.0 0.000903 549.75482 1143.60596
1066.0 0.000938 549.64410 1101.31946
987.0 0.001013 549.53387 1061.53503
925.0 0.001081 549.42395 1024.32092
902.0 0.001109 549.31427 989.69324
853.0 0.001172 549.20447 957.62640
830.0 0.001205 549.09540 928.06256
811.0 0.001233 548.98639 900.91766
817.0 0.001224 548.87744 876.08771
796.0 0.001256 548.76892 853.45526
748.0 0.001337 548.66040 832.89227
735.0 0.001361 548.55243 814.26514
722.0 0.001385 548.44464 797.43713
722.0 0.001385 548.33679 782.27209
747.0 0.001339 548.22961 768.63562
771.0 0.001297 548.12256 756.39886
785.0 0.001274 548.01544 745.43799
761.0 0.001314 547.90906 735.63654
704.0 0.001420 547.80237 726.88654
657.0 0.001522 547.69641 719.08838
641.0 0.001560 547.59052 712.15118
645.0 0.001550 547.48486 705.99377
629.0 0.001590 547.37946 700.54303
611.0 0.001637 547.27429 695.73450
621.0 0.001610 547.16919 691.51270
631.0 0.001585 547.06458 687.82904
648.0 0.001543 546.96008 684.64258
646.0 0.001548 546.85590 681.91937
634.0 0.001577 546.75195 679.63013
637.0 0.001570 546.64838 677.75262
639.0 0.001565 546.54486 676.26855
645.0 0.001550 546.44153 675.16504
658.0 0.001520 546.33887 674.43207
690.0 0.001449 546.23596 674.06342
647.0 0.001546 546.13361 674.05609
621.0 0.001610 546.03125 674.40973
661.0 0.001513 545.92920 675.12567
656.0 0.001524 545.82764 676.20746
670.0 0.001493 545.72595 677.66034
671.0 0.001490 545.62506 679.48926
670.0 0.001493 545.52393 681.69983
678.0 0.001475 545.42303 684.29834
667.0 0.001499 545.32263 687.28918
666.0 0.001502 545.22235 690.67572
689.0 0.001451 545.12238 694.45935
652.0 0.001534 545.02258 698.63965
655.0 0.001527 544.92310 703.21326
662.0 0.001511 544.82391 708.17535
674.0 0.001484 544.72479 713.51971
676.0 0.001479 544.62598 719.24084
641.0 0.001560 544.52759 725.33386
662.0 0.001511 544.42908 731.79883
687.0 0.001456 544.33124 738.64099
698.0 0.001433 544.23346 745.87079
760.0 0.001316 544.13605 753.50562
778.0 0.001285 544.03894 761.56671
766.0 0.001305 543.94159 770.07684
765.0 0.001307 543.84497 779.05634
775.0 0.001290 543.74835 788.51862
771.0 0.001297 543.65210 798.46729
787.0 0.001271 543.55597 808.89008
781.0 0.001280 543.46027 819.76025
771.0 0.001297 543.36469 831.03430
792.0 0.001263 543.26953 842.65649
800.0 0.001250 543.17456 854.56293
819.0 0.001221 543.07965 866.69006
859.0 0.001164 542.98505 878.98108
863.0 0.001159 542.89081 891.39636
860.0 0.001163 542.79694 903.92017
890.0 0.001124 542.70313 916.56152
910.0 0.001099 542.60950 929.35541
959.0 0.001043 542.51630 942.35596
929.0 0.001076 542.42316 955.62714
924.0 0.001082 542.33044 969.23328
935.0 0.001070 542.23785 983.22754
933.0 0.001072 542.14587 997.64703
950.0 0.001053 542.05371 1012.50934
970.0 0.001031 541.96185 1027.81689
996.0 0.001004 541.87042 1043.56396
1014.0 0.000986 541.77924 1059.74780
1014.0 0.000986 541.68817 1076.37610
1019.0 0.000981 541.59735 1093.47046
1070.0 0.000935 541.50677 1111.05994
1125.0 0.000889 541.41669 1129.16516
1146.0 0.000873 541.32660 1147.77612
1214.0 0.000824 541.23657 1166.82178
1211.0 0.000826 541.14716 1186.14612
1175.0 0.000851 541.05804 1205.47974
1208.0 0.000828 540.96899 1224.42786
1189.0 0.000841 540.88025 1242.46606
1223.0 0.000818 540.79163 1258.95154
1230.0 0.000813 540.70349 1273.15564
1244.0 0.000804 540.61554 1284.31482
1241.0 0.000806 540.52771 1291.69580
1239.0 0.000807 540.44019 1294.67249
1209.0 0.000827 540.35284 1292.79163
1245.0 0.000803 540.26593 1285.82568
1305.0 0.000766 540.17932 1273.79358
1301.0 0.000769 540.09271 1256.94836
1262.0 0.000792 540.00641 1235.74329
1231.0 0.000812 539.92053 1210.77832
1240.0 0.000806 539.83472 1182.74316
1197.0 0.000835 539.74957 1152.36523
1124.0 0.000890 539.66394 1120.36072
1099.0 0.000910 539.57898 1087.40405
1081.0 0.000925 539.49451 1054.10071
1062.0 0.000942 539.40991 1020.97571
1010.0 0.000990 539.32550 988.46698
1010.0 0.000990 539.24164 956.92621
996.0 0.001004 539.15802 926.62634
966.0 0.001035 539.07458 897.76794
1001.0 0.000999 538.99139 870.49054
979.0 0.001021 538.90826 844.88049
991.0 0.001009 538.82568 820.98120
997.0 0.001003 538.74329 798.79968
951.0 0.001052 538.66095 778.31506
970.0 0.001031 538.57904 759.48236
991.0 0.001009 538.49744 742.23853
929.0 0.001076 538.41583 726.50836
918.0 0.001089 538.33478 712.20386
922.0 0.001085 538.25366 699.23291
921.0 0.001086 538.17316 687.49792
897.0 0.001115 538.09296 676.90076
893.0 0.001120 538.01263 667.34265
908.0 0.001101 537.93243 658.72913
899.0 0.001112 537.85291 650.96759
924.0 0.001082 537.77356 643.97107
927.0 0.001079 537.69427 637.65863
910.0 0.001099 537.61517 631.95435
906.0 0.001104 537.53662 626.79010
937.0 0.001067 537.45825 622.10254
963.0 0.001038 537.38025 617.83618
926.0 0.001080 537.30225 613.94073
908.0 0.001101 537.22479 610.37189
923.0 0.001083 537.14716 607.09082
907.0 0.001103 537.07013 604.06354
912.0 0.001096 536.99329 602.30334
848.0 0.001179 536.91669 599.70660
859.0 0.001164 536.84021 597.28650
834.0 0.001199 536.76416 595.02393
816.0 0.001225 536.68823 592.90216
803.0 0.001245 536.61255 590.90692
788.0 0.001269 536.53723 589.02661
802.0 0.001247 536.46210 587.25049
789.0 0.001267 536.38715 585.56927
764.0 0.001309 536.31268 583.97461
774.0 0.001292 536.23828 582.45972
779.0 0.001284 536.16418 581.01843
786.0 0.001272 536.09039 579.64551
829.0 0.001206 536.01648 578.33582
784.0 0.001276 535.94336 577.08527
725.0 0.001379 535.87012 575.88947
708.0 0.001412 535.79736 574.74536
686.0 0.001458 535.72473 573.64972
671.0 0.001490 535.65240 572.59924
655.0 0.001527 535.58020 571.59143
649.0 0.001541 535.50830 570.62360
672.0 0.001488 535.43689 569.69391
695.0 0.001439 535.36548 568.80005
676.0 0.001479 535.29443 567.93970
702.0 0.001425 535.22345 567.11121
679.0 0.001473 535.15295 566.31323
651.0 0.001536 535.08282 565.54401
647.0 0.001546 535.01263 564.80188
651.0 0.001536 534.94275 564.08563
667.0 0.001499 534.87335 563.39374
632.0 0.001582 534.80396 562.72534
635.0 0.001575 534.73486 562.07922
616.0 0.001623 534.66608 561.45435
601.0 0.001664 534.59735 560.84912
596.0 0.001678 534.52911 560.26355
587.0 0.001704 534.46094 559.69617
588.0 0.001701 534.39331 559.14636
602.0 0.001661 534.32568 558.61322
588.0 0.001701 534.25842 558.09613
569.0 0.001757 534.19141 557.59418
562.0 0.001779 534.12451 557.10687
566.0 0.001767 534.05774 556.63367
576.0 0.001736 533.99139 556.17377
562.0 0.001779 533.92566 555.72693
562.0 0.001779 533.85974 555.29254
565.0 0.001770 533.79431 554.86951
593.0 0.001686 533.72894 554.45850
594.0 0.001684 533.66394 554.05786
583.0 0.001715 533.59900 553.66827
570.0 0.001754 533.53455 553.28851
592.0 0.001689 533.47003 552.91864
586.0 0.001706 533.40613 552.55811
584.0 0.001712 533.34229 552.20654
580.0 0.001724 533.27875 551.86383
593.0 0.001686 533.21539 551.52954
609.0 0.001642 533.15234 551.20319
587.0 0.001704 533.08960 550.88477
592.0 0.001689 533.02710 550.57428
635.0 0.001575 532.96478 550.27075
620.0 0.001613 532.90277 549.97430
607.0 0.001647 532.84088 549.68463
621.0 0.001610 532.77942 549.40173
611.0 0.001637 532.71814 549.12512
579.0 0.001727 532.65686 548.85486
578.0 0.001730 532.59607 548.59064
589.0 0.001698 532.53558 548.33228
608.0 0.001645 532.47528 548.07953
624.0 0.001603 532.41528 547.83221
617.0 0.001621 532.35529 547.59021
606.0 0.001650 532.29584 547.35352
593.0 0.001686 532.23651 547.12158
596.0 0.001678 532.17761 546.89465
606.0 0.001650 532.11859 546.67303
613.0 0.001631 532.05994 546.45544
616.0 0.001623 532.00153 546.24255
612.0 0.001634 531.94354 546.03412
588.0 0.001701 531.88562 545.83002
597.0 0.001675 531.82837 545.62982
609.0 0.001642 531.77087 545.43390
617.0 0.001621 531.71387 545.24182
600.0 0.001667 531.65698 545.05365
603.0 0.001658 531.60022 544.86951
608.0 0.001645 531.54395 544.68884
615.0 0.001626 531.48785 544.51172
618.0 0.001618 531.43207 544.33826
617.0 0.001621 531.37634 544.16815
611.0 0.001637 531.32117 544.00159
615.0 0.001626 531.26599 543.83832
592.0 0.001689 531.21094 543.67822
602.0 0.001661 531.15656 543.52148
607.0 0.001647 531.10193 543.36792
619.0 0.001616 531.04785 543.21710
602.0 0.001661 530.99408 543.06940
595.0 0.001681 530.94025 542.92499
576.0 0.001736 530.88684 542.78302
548.0 0.001825 530.83356 542.64429
541.0 0.001848 530.78088 542.50806
538.0 0.001859 530.72803 542.37476
530.0 0.001887 530.67584 542.24420
553.0 0.001808 530.62360 542.11597
556.0 0.001799 530.57178 541.99066
568.0 0.001761 530.51996 541.86798
569.0 0.001757 530.46844 541.74799
557.0 0.001795 530.41718 541.63062
556.0 0.001799 530.36639 541.51532
563.0 0.001776 530.31555 541.40259
562.0 0.001779 530.26489 541.29260
572.0 0.001748 530.21472 541.18481
586.0 0.001706 530.16492 541.07947
588.0 0.001701 530.11505 540.97656
576.0 0.001736 530.06555 540.87598
542.0 0.001845 530.01630 540.77771
566.0 0.001767 529.96735 540.68176
560.0 0.001786 529.91852 540.58826
547.0 0.001828 529.87024 540.49670
561.0 0.001783 529.82172 540.40790
563.0 0.001776 529.77350 540.32092
541.0 0.001848 529.72583 540.23621
551.0 0.001815 529.67822 540.15399
546.0 0.001832 529.63080 540.07385
534.0 0.001873 529.58405 539.99591
525.0 0.001905 529.53693 539.92035
548.0 0.001825 529.49048 539.84674
582.0 0.001718 529.44397 539.77557
561.0 0.001783 529.39783 539.70648
545.0 0.001835 529.35181 539.63977
549.0 0.001821 529.30634 539.57501
538.0 0.001859 529.26099 539.51263
527.0 0.001898 529.21576 539.45251
526.0 0.001901 529.17102 539.39459
548.0 0.001825 529.12610 539.18488
560.0 0.001786 529.08160 539.13239
549.0 0.001821 529.03754 539.08185
533.0 0.001876 528.99347 539.03387
562.0 0.001779 528.94965 538.98828
552.0 0.001812 528.90631 538.94452
540.0 0.001852 528.86310 538.90344
537.0 0.001862 528.81989 538.86475
533.0 0.001876 528.77710 538.82813
537.0 0.001862 528.73468 538.79395
527.0 0.001898 528.69214 538.76233
534.0 0.001873 528.65002 538.73279
545.0 0.001835 528.60815 538.70612
533.0 0.001876 528.56665 538.68158
569.0 0.001757 528.52533 538.65948
561.0 0.001783 528.48438 538.64014
571.0 0.001751 528.44336 538.62329
594.0 0.001684 528.40265 538.60889
577.0 0.001733 528.36224 538.59766
535.0 0.001869 528.32196 538.58856
553.0 0.001808 528.28210 538.58276
529.0 0.001890 528.24231 538.57922
562.0 0.001779 528.20270 538.57892
548.0 0.001825 528.16357 538.58112
543.0 0.001842 528.12457 538.58649
529.0 0.001890 528.08557 538.59491
528.0 0.001894 528.04712 538.60645
544.0 0.001838 528.00879 538.62097
543.0 0.001842 527.97064 538.63910
520.0 0.001923 527.93268 538.66003
526.0 0.001901 527.89520 538.68439
503.0 0.001988 527.85785 538.71252
522.0 0.001916 527.82068 538.74377
504.0 0.001984 527.78357 538.77905
510.0 0.001961 527.74695 538.81812
507.0 0.001972 527.71045 538.86066
506.0 0.001976 527.67419 538.90729
550.0 0.001818 527.63831 538.95795
528.0 0.001894 527.60242 539.01270
534.0 0.001873 527.56683 539.07172
555.0 0.001802 527.53156 539.13519
531.0 0.001883 527.49640 539.20313
534.0 0.001873 527.46155 539.27594
524.0 0.001908 527.42706 539.35364
508.0 0.001969 527.39252 539.43591
546.0 0.001832 527.35852 539.52362
544.0 0.001838 527.32440 539.61694
536.0 0.001866 527.29065 539.71545
513.0 0.001949 527.25720 539.81958
516.0 0.001938 527.22406 538.21210
547.0 0.001828 527.19092 538.33862
554.0 0.001805 527.15820 538.47150
620.0 0.001613 527.12549 538.61121
609.0 0.001642 527.09314 538.75732
588.0 0.001701 527.06097 538.91058
604.0 0.001656 527.02905 539.07123
565.0 0.001770 526.99744 539.23914
543.0 0.001842 526.96588 539.41522
541.0 0.001848 526.93463 539.59985
530.0 0.001887 526.90369 539.79297
549.0 0.001821 526.87292 539.99475
555.0 0.001802 526.84247 540.20648
553.0 0.001808 526.81207 540.42780
573.0 0.001745 526.78180 540.65955
545.0 0.001835 526.75201 540.90204
556.0 0.001799 526.72235 541.15576
543.0 0.001842 526.69293 541.42120
527.0 0.001898 526.66382 541.69934
518.0 0.001931 526.63470 541.99036
537.0 0.001862 526.60577 542.29480
545.0 0.001835 526.57733 542.61420
556.0 0.001799 526.54907 542.94812
584.0 0.001712 526.52087 543.29840
535.0 0.001869 526.49298 543.66547
530.0 0.001887 526.46539 544.04987
557.0 0.001795 526.43793 544.45325
555.0 0.001802 526.41058 544.87622
557.0 0.001795 526.38348 545.32007
565.0 0.001770 526.35675 545.78625
546.0 0.001832 526.33044 546.27563
547.0 0.001828 526.30383 546.79028
551.0 0.001815 526.27771 547.33173
548.0 0.001825 526.25189 547.90100
546.0 0.001832 526.22620 548.50079
536.0 0.001866 526.20062 549.13300
549.0 0.001821 526.17560 549.80005
543.0 0.001842 526.15039 550.50458
545.0 0.001835 526.12561 551.24957
558.0 0.001792 526.10107 552.03888
554.0 0.001805 526.07654 552.87555
553.0 0.001808 526.05237 553.76428
566.0 0.001767 526.02844 554.71014
566.0 0.001767 526.00464 555.71851
552.0 0.001812 525.98114 556.79572
566.0 0.001767 525.95782 557.94922
556.0 0.001799 525.93463 559.18707
561.0 0.001783 525.91174 560.51868
561.0 0.001783 525.88916 561.95465
574.0 0.001742 525.86682 563.50726
580.0 0.001724 525.84424 565.18982
567.0 0.001764 525.82251 567.01770
589.0 0.001698 525.80042 569.00806
609.0 0.001642 525.77881 571.17981
601.0 0.001664 525.75751 573.55457
570.0 0.001754 525.73633 576.15582
576.0 0.001736 525.71521 579.00909
565.0 0.001770 525.69470 582.14325
590.0 0.001695 525.67419 585.58826
594.0 0.001684 525.65363 589.37811
591.0 0.001692 525.63361 593.54907
575.0 0.001739 525.61346 598.13904
584.0 0.001712 525.59387 603.18927
594.0 0.001684 525.57434 608.74280
603.0 0.001658 525.55505 614.84540
608.0 0.001645 525.53595 621.54297
620.0 0.001613 525.51709 628.88403
636.0 0.001572 525.49841 636.91724
648.0 0.001543 525.47992 645.68921
620.0 0.001613 525.46155 655.24634
628.0 0.001592 525.44354 665.63074
630.0 0.001587 525.42584 676.87750
654.0 0.001529 525.40808 689.01483
683.0 0.001464 525.39075 702.05884
709.0 0.001410 525.37347 716.01160
697.0 0.001435 525.35638 730.85822
728.0 0.001374 525.33942 746.56348
715.0 0.001399 525.32288 763.07166
718.0 0.001393 525.30646 780.30823
757.0 0.001321 525.29028 798.18176
758.0 0.001319 525.27435 816.59052
792.0 0.001263 525.25861 835.42993
823.0 0.001215 525.24280 854.60095
857.0 0.001167 525.22729 872.71338
849.0 0.001178 525.21210 892.30029
873.0 0.001145 525.19733 911.98181
897.0 0.001115 525.18250 931.68079
908.0 0.001101 525.16797 951.29907
931.0 0.001074 525.15350 970.69611
947.0 0.001056 525.13928 989.67175
922.0 0.001085 525.12531 1007.95087
952.0 0.001050 525.11133 1025.17957
960.0 0.001042 525.09766 1040.92566
974.0 0.001027 525.08441 1054.70056
983.0 0.001017 525.07123 1065.98694
987.0 0.001013 525.05835 1074.28418
1008.0 0.000992 525.04553 1079.33484
987.0 0.001013 525.03278 1080.45508
947.0 0.001056 525.02032 1077.64709
946.0 0.001057 525.00842 1070.90137
933.0 0.001072 524.99609 1060.37781
930.0 0.001075 524.98419 1046.38232
923.0 0.001083 524.97272 1029.33801
919.0 0.001088 524.96130 1009.74268
905.0 0.001105 524.95001 988.13257
879.0 0.001138 524.93878 965.04578
829.0 0.001206 524.92804 940.99622
863.0 0.001159 524.91736 916.45239
874.0 0.001144 524.90698 891.82739
860.0 0.001163 524.89667 867.47101
818.0 0.001222 524.88660 843.67072
800.0 0.001250 524.87665 820.65503
790.0 0.001266 524.86694 798.59845
754.0 0.001326 524.85754 777.62854
715.0 0.001399 524.84808 757.83246
699.0 0.001431 524.83893 739.26282
677.0 0.001477 524.82996 721.94434
680.0 0.001471 524.82129 705.87805
704.0 0.001420 524.81262 691.04510
677.0 0.001477 524.80444 677.41278
660.0 0.001515 524.79596 664.93451
663.0 0.001508 524.78827 653.55554
644.0 0.001553 524.78046 643.21381
631.0 0.001585 524.77264 633.84222
621.0 0.001610 524.76538 625.37177
626.0 0.001597 524.75812 617.73145
604.0 0.001656 524.75098 610.85138
585.0 0.001709 524.74426 604.66272
611.0 0.001637 524.73767 599.09949
595.0 0.001681 524.73096 594.09851
572.0 0.001748 524.72473 589.60101
575.0 0.001739 524.71857 585.55243
584.0 0.001712 524.71259 581.90234
621.0 0.001610 524.70685 578.60504
599.0 0.001669 524.70123 575.61920
585.0 0.001709 524.69580 572.90820
574.0 0.001742 524.69073 570.43903
560.0 0.001786 524.68542 568.18304
563.0 0.001776 524.68066 566.11462
568.0 0.001761 524.67609 564.21198
572.0 0.001748 524.67151 562.45551
587.0 0.001704 524.66718 560.82898
576.0 0.001736 524.66302 559.31787
560.0 0.001786 524.65906 557.90942
565.0 0.001770 524.65546 556.59332
558.0 0.001792 524.65167 555.36041
571.0 0.001751 524.64832 554.20239
575.0 0.001739 524.64484 553.11261
583.0 0.001715 524.64197 552.08484
562.0 0.001779 524.63892 551.11414
556.0 0.001799 524.63629 550.19580
586.0 0.001706 524.63373 549.32550
572.0 0.001748 524.63135 548.50012
605.0 0.001653 524.62933 547.71613
621.0 0.001610 524.62720 546.97089
602.0 0.001661 524.62537 546.26160
583.0 0.001715 524.62378 545.58594
580.0 0.001724 524.62238 544.94177
598.0 0.001672 524.62091 544.32758
602.0 0.001661 524.61963 543.74078
602.0 0.001661 524.61877 543.18048
618.0 0.001618 524.61816 542.64471
626.0 0.001597 524.61761 542.13202
634.0 0.001577 524.61694 541.64160
641.0 0.001560 524.61652 541.17194
617.0 0.001621 524.61658 540.72180
629.0 0.001590 524.61652 540.29041
612.0 0.001634 524.61664 539.87659
602.0 0.001661 524.61725 539.47968
628.0 0.001592 524.61761 539.09839
620.0 0.001613 524.61859 538.73199
604.0 0.001656 524.61920 538.38007
627.0 0.001595 524.62042 538.04181
598.0 0.001672 524.62158 537.71631
579.0 0.001727 524.62311 537.40344
593.0 0.001686 524.62469 537.10217
599.0 0.001669 524.62634 536.81226
562.0 0.001779 524.62823 536.53278
567.0 0.001764 524.63031 536.26361
564.0 0.001773 524.63269 536.00403
574.0 0.001742 524.63495 535.75378
596.0 0.001678 524.63757 535.51227
576.0 0.001736 524.64014 535.27954
610.0 0.001639 524.64301 535.05487
599.0 0.001669 524.64624 534.83801
590.0 0.001695 524.64935 534.62860
577.0 0.001733 524.65289 534.42627
556.0 0.001799 524.65631 534.23059
564.0 0.001773 524.65991 534.04181
576.0 0.001736 524.66370 533.85907
557.0 0.001795 524.66754 533.68256
547.0 0.001828 524.67181 533.51172
535.0 0.001869 524.67627 533.34686
533.0 0.001876 524.68073 533.18695
528.0 0.001894 524.68549 533.03235
519.0 0.001927 524.69025 532.88281
529.0 0.001890 524.69537 532.73785
527.0 0.001898 524.70038 532.59772
543.0 0.001842 524.70557 532.46222
548.0 0.001825 524.71088 532.33044
552.0 0.001812 524.71643 532.20313
542.0 0.001845 524.72217 532.08014
559.0 0.001789 524.72815 531.96063
548.0 0.001825 524.73413 531.84491
546.0 0.001832 524.74054 531.73285
543.0 0.001842 524.74683 531.62402
542.0 0.001845 524.75311 531.51880
534.0 0.001873 524.75977 531.41681
557.0 0.001795 524.76672 531.31787
537.0 0.001862 524.77356 531.22192
532.0 0.001880 524.78088 531.12909
543.0 0.001842 524.78778 531.03888
542.0 0.001845 524.79523 530.95197
520.0 0.001923 524.80310 530.86713
504.0 0.001984 524.81061 530.78510
509.0 0.001965 524.81830 530.70569
527.0 0.001898 524.82635 530.62860
528.0 0.001894 524.83459 530.55396
518.0 0.001931 524.84290 530.48163
520.0 0.001923 524.85126 530.41150
530.0 0.001887 524.86005 530.34357
525.0 0.001905 524.86871 530.27789
530.0 0.001887 524.87769 530.21393
538.0 0.001859 524.88684 530.15240
518.0 0.001931 524.89594 530.09277
517.0 0.001934 524.90503 530.03461
514.0 0.001946 524.91455 529.97870
496.0 0.002016 524.92419 529.92413
528.0 0.001894 524.93402 529.87183
521.0 0.001919 524.94391 529.82092
532.0 0.001880 524.95367 529.77185
540.0 0.001852 524.96405 529.72412
532.0 0.001880 524.97437 529.67841
563.0 0.001776 524.98474 529.63403
554.0 0.001805 524.99536 529.59113
559.0 0.001789 525.00616 529.54968
531.0 0.001883 525.01703 529.50989
499.0 0.002004 525.02783 529.47125
505.0 0.001980 525.03918 529.43384
518.0 0.001931 525.05029 529.39832
521.0 0.001919 525.06183 529.36359
541.0 0.001848 525.07324 529.33051
550.0 0.001818 525.08496 529.29871
573.0 0.001745 525.09674 529.26794
547.0 0.001828 525.10883 529.23846
542.0 0.001845 525.12097 529.21027
524.0 0.001908 525.13306 529.18292
518.0 0.001931 525.14557 529.15704
530.0 0.001887 525.15820 529.13226
520.0 0.001923 525.17078 529.10834
514.0 0.001946 525.18335 529.08563
526.0 0.001901 525.19629 529.06409
522.0 0.001916 525.20935 529.04364
520.0 0.001923 525.22235 529.02393
528.0 0.001894 525.23578 529.00562
540.0 0.001852 525.24902 528.98804
577.0 0.001733 525.26270 528.97137
542.0 0.001845 525.27643 528.95569
521.0 0.001919 525.29022 528.94110
527.0 0.001898 525.30414 528.92737
524.0 0.001908 525.31818 528.91467
517.0 0.001934 525.33240 528.90283
515.0 0.001942 525.34686 528.89197
546.0 0.001832 525.36115 528.88190
533.0 0.001876 525.37573 528.87262
520.0 0.001923 525.39032 528.86426
508.0 0.001969 525.40497 528.85693
513.0 0.001949 525.42023 528.85028
507.0 0.001972 525.43524 528.84454
512.0 0.001953 525.45044 528.83942
522.0 0.001916 525.46576 528.83539
522.0 0.001916 525.48120 528.83203
523.0 0.001912 525.49670 528.82977
536.0 0.001866 525.51245 528.82806
523.0 0.001912 525.52826 528.82715
502.0 0.001992 525.54401 528.82690
521.0 0.001919 525.56024 528.82758
557.0 0.001795 525.57635 528.82898
529.0 0.001890 525.59277 528.83136
520.0 0.001923 525.60889 528.83447
524.0 0.001908 525.62543 528.83838
518.0 0.001931 525.64209 528.84271
512.0 0.001953 525.65894 528.84821
538.0 0.001859 525.67590 528.85437
519.0 0.001927 525.69287 528.86139
524.0 0.001908 525.70978 528.86896
532.0 0.001880 525.72699 528.87732
525.0 0.001905 525.74432 528.88654
529.0 0.001890 525.76190 528.89636
519.0 0.001927 525.77936 528.90735
504.0 0.001984 525.79700 528.91876
512.0 0.001953 525.81488 528.93097
524.0 0.001908 525.83282 528.94385
528.0 0.001894 525.85065 528.95795
523.0 0.001912 525.86890 528.97247
512.0 0.001953 525.88721 528.98792
504.0 0.001984 525.90546 529.00415
499.0 0.002004 525.92407 529.02118
519.0 0.001927 525.94250 529.03900
520.0 0.001923 525.96130 529.05750
501.0 0.001996 525.97986 529.07678
520.0 0.001923 525.99872 529.09705
524.0 0.001908 526.01788 529.11841
535.0 0.001869 526.03680 529.14020
539.0 0.001855 526.05615 529.16284
523.0 0.001912 526.07544 529.18665
544.0 0.001838 526.09491 529.21124
545.0 0.001835 526.11432 529.23663
547.0 0.001828 526.13403 529.26276
537.0 0.001862 526.15375 529.28992
523.0 0.001912 526.17377 529.31842
535.0 0.001869 526.19336 529.34741
533.0 0.001876 526.21350 529.37738
533.0 0.001876 526.23370 529.40863
533.0 0.001876 526.25391 529.44080
525.0 0.001905 526.27441 529.47363
503.0 0.001988 526.29468 529.50787
509.0 0.001965 526.31531 529.54327
502.0 0.001992 526.33606 529.57947
500.0 0.002000 526.35663 529.61694
505.0 0.001980 526.37750 529.65540
510.0 0.001961 526.39862 529.69519
528.0 0.001894 526.41962 529.73633
522.0 0.001916 526.44061 529.77863
518.0 0.001931 526.46210 529.82178
511.0 0.001957 526.48322 529.86664
504.0 0.001984 526.50458 529.91260
520.0 0.001923 526.52618 529.96014
557.0 0.001795 526.54779 530.00903
547.0 0.001828 526.56952 530.05963
537.0 0.001862 526.59149 530.11151
537.0 0.001862 526.61322 530.16473
518.0 0.001931 526.63513 530.22003
530.0 0.001887 526.65729 530.27649
543.0 0.001842 526.67944 530.33502
530.0 0.001887 526.70172 530.39526
523.0 0.001912 526.72412 530.45728
514.0 0.001946 526.74658 530.52142
507.0 0.001972 526.76929 530.58728
517.0 0.001934 526.79169 530.65527
532.0 0.001880 526.81464 530.72571
550.0 0.001818 526.83722 530.79803
511.0 0.001957 526.86017 530.87274
517.0 0.001934 526.88306 530.94983
537.0 0.001862 526.90643 531.02942
547.0 0.001828 526.92932 531.11200
536.0 0.001866 526.95258 532.25494
529.0 0.001890 526.97577 532.35052
534.0 0.001873 526.99933 532.44928
515.0 0.001942 527.02289 532.55103
561.0 0.001783 527.04639 532.65637
575.0 0.001739 527.07025 532.76520
565.0 0.001770 527.09393 532.87762
550.0 0.001818 527.11768 532.99432
532.0 0.001880 527.14166 533.11450
530.0 0.001887 527.16565 533.23920
531.0 0.001883 527.18970 533.36865
511.0 0.001957 527.21387 533.50269
529.0 0.001890 527.23798 533.64191
523.0 0.001912 527.26245 533.78619
506.0 0.001976 527.28662 533.93610
531.0 0.001883 527.31116 534.09210
529.0 0.001890 527.33569 534.25464
549.0 0.001821 527.36053 534.42383
567.0 0.001764 527.38513 534.60022
533.0 0.001876 527.40979 534.78455
562.0 0.001779 527.43469 534.97723
545.0 0.001835 527.45966 535.17871
543.0 0.001842 527.48462 535.39014
518.0 0.001931 527.50964 535.61176
524.0 0.001908 527.53491 535.84497
526.0 0.001901 527.56024 536.09027
523.0 0.001912 527.58545 536.34961
530.0 0.001887 527.61084 535.60529
523.0 0.001912 527.63623 535.90228
522.0 0.001916 527.66180 536.21692
522.0 0.001916 527.68732 536.55096
535.0 0.001869 527.71313 536.90607
522.0 0.001916 527.73865 537.28442
510.0 0.001961 527.76459 537.68872
511.0 0.001957 527.79028 538.12122
498.0 0.002008 527.81635 538.58514
501.0 0.001996 527.84222 539.08344
514.0 0.001946 527.86859 539.61969
539.0 0.001855 527.89465 540.19769
547.0 0.001828 527.92084 540.82141
543.0 0.001842 527.94702 541.49567
555.0 0.001802 527.97333 542.22516
560.0 0.001786 527.99976 543.01495
545.0 0.001835 528.02625 543.87067
533.0 0.001876 528.05280 544.79803
528.0 0.001894 528.07941 545.80341
503.0 0.001988 528.10596 546.89313
509.0 0.001965 528.13263 548.07379
513.0 0.001949 528.15955 549.35242
504.0 0.001984 528.18634 550.73572
524.0 0.001908 528.21326 552.23071
534.0 0.001873 528.24017 553.84375
529.0 0.001890 528.26733 555.80426
539.0 0.001855 528.29437 557.67456
552.0 0.001812 528.32141 559.68109
558.0 0.001792 528.34863 561.82788
559.0 0.001789 528.37610 564.11774
552.0 0.001812 528.40332 566.55219
565.0 0.001770 528.43079 569.13019
574.0 0.001742 528.45807 571.84875
542.0 0.001845 528.48560 574.70215
541.0 0.001848 528.51312 577.68219
554.0 0.001805 528.54077 580.77722
546.0 0.001832 528.56830 583.97357
574.0 0.001742 528.59613 587.25531
588.0 0.001701 528.62402 590.60394
619.0 0.001616 528.65186 594.00055
584.0 0.001712 528.67969 597.42554
564.0 0.001773 528.70740 600.85889
585.0 0.001709 528.73541 604.28009
570.0 0.001754 528.76349 607.66785
564.0 0.001773 528.79156 610.99829
597.0 0.001675 528.81958 614.24481
610.0 0.001639 528.84784 617.37372
629.0 0.001590 528.87604 620.34637
614.0 0.001629 528.90411 623.11548
616.0 0.001623 528.93280 625.62762
608.0 0.001645 528.96094 627.82385
619.0 0.001616 528.98944 629.64178
625.0 0.001600 529.01788 631.02167
637.0 0.001570 529.04657 631.90948
645.0 0.001550 529.07507 632.26312
674.0 0.001484 529.10352 632.05536
650.0 0.001538 529.13232 631.27734
673.0 0.001486 529.16101 629.94092
667.0 0.001499 529.18970 628.07550
682.0 0.001466 529.21844 625.72723
699.0 0.001431 529.24731 622.95538
686.0 0.001458 529.27625 619.82648
666.0 0.001502 529.30511 616.41205
654.0 0.001529 529.33405 612.78400
675.0 0.001481 529.36310 609.01001
639.0 0.001565 529.39197 605.15350
638.0 0.001567 529.42102 601.27051
622.0 0.001608 529.45007 597.40918
628.0 0.001592 529.47931 593.61023
629.0 0.001590 529.50842 589.90729
635.0 0.001575 529.53772 586.32568
644.0 0.001553 529.56714 582.88605
643.0 0.001555 529.59637 579.60266
633.0 0.001580 529.62573 576.48578
631.0 0.001585 529.65497 573.54187
615.0 0.001626 529.68451 570.77332
624.0 0.001603 529.71375 568.18091
629.0 0.001590 529.74316 565.76312
592.0 0.001689 529.77295 563.51532
622.0 0.001608 529.80249 561.43390
619.0 0.001616 529.83203 559.51123
606.0 0.001650 529.86157 557.74121
616.0 0.001623 529.89111 556.11603
622.0 0.001608 529.92102 554.62762
645.0 0.001550 529.95062 553.26703
640.0 0.001563 529.98041 552.02667
635.0 0.001575 530.01019 550.89752
623.0 0.001605 530.03992 549.87134
614.0 0.001629 530.06989 548.94025
580.0 0.001724 530.09961 548.09613
597.0 0.001675 530.12946 547.33142
614.0 0.001629 530.15942 546.63916
604.0 0.001656 530.18927 546.01318
611.0 0.001637 530.21918 545.44647
608.0 0.001645 530.24921 544.93402
583.0 0.001715 530.27930 544.47028
588.0 0.001701 530.30933 544.05060
607.0 0.001647 530.33923 543.67084
602.0 0.001661 530.36945 543.32629
586.0 0.001706 530.39954 543.01440
583.0 0.001715 530.42969 542.73169
584.0 0.001712 530.45984 542.47522
592.0 0.001689 530.49011 542.24243
572.0 0.001748 530.52026 542.03131
567.0 0.001764 530.55042 541.84015
583.0 0.001715 530.58075 541.66693
575.0 0.001739 530.61096 541.51019
591.0 0.001692 530.64154 542.10193
582.0 0.001718 530.67145 541.97888
575.0 0.001739 530.70190 541.86920
561.0 0.001783 530.73218 541.77106
567.0 0.001764 530.76270 541.68469
556.0 0.001799 530.79303 541.60883
550.0 0.001818 530.82343 541.54272
547.0 0.001828 530.85382 541.48676
551.0 0.001815 530.88440 541.43939
572.0 0.001748 530.91461 541.40051
612.0 0.001634 530.94501 541.36987
582.0 0.001718 530.97559 541.34705
568.0 0.001761 531.00598 541.33173
578.0 0.001730 531.03662 541.32373
567.0 0.001764 531.06702 541.32251
565.0 0.001770 531.09772 541.32806
576.0 0.001736 531.12830 541.34015
564.0 0.001773 531.15875 541.35858
545.0 0.001835 531.18945 541.38330
542.0 0.001845 531.21991 541.41418
529.0 0.001890 531.25049 541.45074
526.0 0.001901 531.28113 541.49310
529.0 0.001890 531.31177 541.54126
528.0 0.001894 531.34229 541.59503
521.0 0.001919 531.37311 541.65454
519.0 0.001927 531.40363 541.71918
527.0 0.001898 531.43420 541.78937
519.0 0.001927 531.46490 541.86475
539.0 0.001855 531.49548 541.94598
548.0 0.001825 531.52643 542.03253
540.0 0.001852 531.55695 542.12408
534.0 0.001873 531.58734 542.22119
528.0 0.001894 531.61823 542.32373
515.0 0.001942 531.64886 542.43188
520.0 0.001923 531.67944 542.54523
519.0 0.001927 531.71021 542.66431
521.0 0.001919 531.74103 542.78888
527.0 0.001898 531.77161 542.91913
526.0 0.001901 531.80249 543.05493
536.0 0.001866 531.83325 543.19659
558.0 0.001792 531.86383 543.34430
590.0 0.001695 531.89435 543.49805
555.0 0.001802 531.92523 543.65808
541.0 0.001848 531.95581 543.82422
533.0 0.001876 531.98669 543.99670
530.0 0.001887 532.01752 544.17590
538.0 0.001859 532.04810 544.36194
524.0 0.001908 532.07867 544.55524
535.0 0.001869 532.10931 544.75525
532.0 0.001880 532.14008 544.96289
568.0 0.001761 532.17072 545.17822
550.0 0.001818 532.20148 545.40118
529.0 0.001890 532.23206 545.63239
547.0 0.001828 532.26263 545.87213
531.0 0.001883 532.29352 546.12073
527.0 0.001898 532.32422 546.37817
538.0 0.001859 532.35461 546.64520
535.0 0.001869 532.38538 546.92194
518.0 0.001931 532.41614 547.20874
521.0 0.001919 532.44641 547.50616
512.0 0.001953 532.47729 547.81464
507.0 0.001972 532.50800 548.13489
535.0 0.001869 532.53845 548.46680
537.0 0.001862 532.56915 548.81171
557.0 0.001795 532.59973 549.16949
530.0 0.001887 532.63037 549.54114
507.0 0.001972 532.66083 549.92719
495.0 0.002020 532.69159 550.32849
507.0 0.001972 532.72186 550.74591
523.0 0.001912 532.75244 551.17969
520.0 0.001923 532.78314 551.63110
523.0 0.001912 532.81335 552.10114
517.0 0.001934 532.84406 552.59088
520.0 0.001923 532.87463 553.10138
519.0 0.001927 532.90503 553.63348
538.0 0.001859 532.93536 554.18921
514.0 0.001946 532.96582 554.76929
519.0 0.001927 532.99628 555.37524
529.0 0.001890 533.02661 556.00995
537.0 0.001862 533.05695 556.67371
542.0 0.001845 533.08740 557.36957
555.0 0.001802 533.11792 558.09991
556.0 0.001799 533.14819 558.86694
554.0 0.001805 533.17841 559.67358
535.0 0.001869 533.20862 560.52362
530.0 0.001887 533.23901 561.42047
547.0 0.001828 533.26947 562.36847
542.0 0.001845 533.29956 563.37195
558.0 0.001792 533.32990 564.43695
556.0 0.001799 533.35999 565.56964
568.0 0.001761 533.39014 566.77673
572.0 0.001748 533.42047 568.06635
577.0 0.001733 533.45050 569.44763
565.0 0.001770 533.48059 570.93097
573.0 0.001745 533.51074 572.52808
592.0 0.001689 533.54065 574.25171
601.0 0.001664 533.57086 576.11688
593.0 0.001686 533.60089 578.14032
583.0 0.001715 533.63062 580.34052
607.0 0.001647 533.66095 582.73785
604.0 0.001656 533.69086 585.35553
591.0 0.001692 533.72064 588.21851
615.0 0.001626 533.75043 591.35388
633.0 0.001580 533.78046 594.79291
618.0 0.001618 533.81024 598.56757
623.0 0.001605 533.84021 602.71252
627.0 0.001595 533.86969 607.26611
637.0 0.001570 533.89960 612.26849
623.0 0.001605 533.92938 617.76184
644.0 0.001553 533.95892 623.79034
656.0 0.001524 533.98865 630.39960
637.0 0.001570 534.01825 637.63641
668.0 0.001497 534.04791 645.54779
676.0 0.001479 534.07745 654.18042
687.0 0.001456 534.10699 663.57892
685.0 0.001460 534.13654 673.78491
682.0 0.001466 534.16589 684.83514
686.0 0.001458 534.19531 696.75970
716.0 0.001397 534.22461 709.57947
715.0 0.001399 534.25421 723.30365
752.0 0.001330 534.28345 737.92682
762.0 0.001312 534.31268 753.42798
790.0 0.001266 534.34198 769.76593
814.0 0.001229 534.37146 786.87994
829.0 0.001206 534.40033 804.69049
870.0 0.001149 534.42969 823.09924
912.0 0.001096 534.45886 841.99365
942.0 0.001062 534.48785 861.25171
940.0 0.001064 534.51685 880.74640
930.0 0.001075 534.54590 900.34912
989.0 0.001011 534.57489 919.93036
1026.0 0.000975 534.60370 939.35675
1046.0 0.000956 534.63275 958.48322
1077.0 0.000929 534.66174 977.14026
1104.0 0.000906 534.69031 995.12598
1105.0 0.000905 534.71930 1012.19122
1127.0 0.000887 534.74805 1028.03625
1156.0 0.000865 534.77661 1042.31189
1154.0 0.000867 534.80530 1054.63074
1191.0 0.000840 534.83380 1064.59094
1225.0 0.000816 534.86237 1071.80444
1229.0 0.000814 534.89105 1075.93372
1224.0 0.000817 534.91949 1076.72729
1236.0 0.000809 534.94781 1074.04858
1193.0 0.000838 534.97620 1067.89124
1165.0 0.000858 535.00446 1058.38269
1152.0 0.000868 535.03296 1045.77307
1158.0 0.000864 535.06104 1030.40833
1170.0 0.000855 535.08936 1012.70471
1116.0 0.000896 535.11737 993.11554
1113.0 0.000898 535.14557 972.10205
1081.0 0.000925 535.17377 950.11047
1000.0 0.001000 535.20160 927.55328
1028.0 0.000973 535.22968 904.79846
989.0 0.001011 535.25769 882.16382
944.0 0.001059 535.28558 859.91425
922.0 0.001085 535.31342 838.26715
883.0 0.001133 535.34119 817.39233
859.0 0.001164 535.36890 797.41974
828.0 0.001208 535.39642 778.44336
789.0 0.001267 535.42407 760.52771
792.0 0.001263 535.45166 743.71063
776.0 0.001289 535.47919 728.00873
782.0 0.001279 535.50690 713.42023
714.0 0.001401 535.53424 699.92834
693.0 0.001443 535.56140 687.50488
694.0 0.001441 535.58887 676.11115
667.0 0.001499 535.61603 665.70032
652.0 0.001534 535.64331 656.22064
651.0 0.001536 535.67035 647.61633
636.0 0.001572 535.69751 639.82831
635.0 0.001575 535.72473 632.79669
662.0 0.001511 535.75165 626.46185
684.0 0.001462 535.77850 620.76440
631.0 0.001585 535.80548 615.64795
617.0 0.001621 535.83221 611.05737
584.0 0.001712 535.85913 606.94141
576.0 0.001736 535.88574 603.25153
593.0 0.001686 535.91254 599.94293
591.0 0.001692 535.93884 596.97528
588.0 0.001701 535.96558 594.31104
571.0 0.001751 535.99219 591.91705
569.0 0.001757 536.01849 589.76306
571.0 0.001751 536.04492 587.82239
574.0 0.001742 536.07098 586.07233
570.0 0.001754 536.09735 584.49176
554.0 0.001805 536.12347 583.06366
558.0 0.001792 536.14972 581.77167
579.0 0.001727 536.17590 580.60327
563.0 0.001776 536.20166 579.54718
568.0 0.001761 536.22754 578.59344
572.0 0.001748 536.25354 577.73456
562.0 0.001779 536.27930 576.96338
563.0 0.001776 536.30487 576.27454
609.0 0.001642 536.33075 575.66382
570.0 0.001754 536.35620 575.12769
574.0 0.001742 536.38202 574.66327
577.0 0.001733 536.40741 574.26898
562.0 0.001779 536.43286 573.94366
540.0 0.001852 536.45819 573.68719
559.0 0.001789 536.48340 573.49927
553.0 0.001808 536.50873 573.38135
552.0 0.001812 536.53375 573.33484
563.0 0.001776 536.55896 573.36182
554.0 0.001805 536.58392 573.46490
549.0 0.001821 536.60907 573.64801
549.0 0.001821 536.63385 573.91473
546.0 0.001832 536.65869 574.27045
542.0 0.001845 536.68365 574.71997
564.0 0.001773 536.70813 575.26935
571.0 0.001751 536.73297 575.92596
568.0 0.001761 536.75726 576.69647
551.0 0.001815 536.78180 577.58948
532.0 0.001880 536.80615 578.61285
540.0 0.001852 536.83057 579.77631
571.0 0.001751 536.85486 581.08875
560.0 0.001786 536.87891 582.56049
560.0 0.001786 536.90308 584.20135
562.0 0.001779 536.92706 586.02167
558.0 0.001792 536.95129 588.03143
554.0 0.001805 536.97516 590.23999
542.0 0.001845 536.99890 592.65668
527.0 0.001898 537.02271 595.28937
561.0 0.001783 537.04614 598.14435
566.0 0.001767 537.07001 601.22644
553.0 0.001808 537.09357 604.53766
555.0 0.001802 537.11700 608.07678
567.0 0.001764 537.14038 611.84033
575.0 0.001739 537.16357 615.81958
577.0 0.001733 537.18701 620.00177
595.0 0.001681 537.21008 624.37018
608.0 0.001645 537.23328 628.90295
592.0 0.001689 537.25641 633.57465
601.0 0.001664 537.27924 638.35706
603.0 0.001658 537.30206 643.21851
620.0 0.001613 537.32501 648.12677
654.0 0.001529 537.34766 653.04773
645.0 0.001550 537.37024 657.94733
642.0 0.001558 537.39252 662.78778
642.0 0.001558 537.41528 667.52905
639.0 0.001565 537.43768 672.12512
659.0 0.001517 537.45978 676.52228
669.0 0.001495 537.48206 680.65765
673.0 0.001486 537.50439 684.45764
724.0 0.001381 537.52618 687.84143
712.0 0.001404 537.54828 690.72192
724.0 0.001381 537.57019 693.01141
698.0 0.001433 537.59210 694.62927
675.0 0.001481 537.61371 695.50793
694.0 0.001441 537.63544 695.60065
699.0 0.001431 537.65704 694.88544
726.0 0.001377 537.67847 693.36987
703.0 0.001422 537.69977 691.08923
721.0 0.001387 537.72125 688.10468
689.0 0.001451 537.74255 684.49695
681.0 0.001468 537.76361 680.36243
669.0 0.001495 537.78473 675.80469
647.0 0.001546 537.80573 670.92834
627.0 0.001595 537.82660 665.83551
638.0 0.001567 537.84741 660.62085
616.0 0.001623 537.86816 655.36926
608.0 0.001645 537.88873 650.15448
603.0 0.001658 537.90924 645.03967
589.0 0.001698 537.92981 640.07605
589.0 0.001698 537.94995 635.30511
587.0 0.001704 537.97040 630.76001
615.0 0.001626 537.99066 626.46497
603.0 0.001658 538.01086 622.43811
563.0 0.001776 538.03088 618.69153
567.0 0.001764 538.05078 615.23297
576.0 0.001736 538.07056 612.06573
570.0 0.001754 538.09058 609.19043
578.0 0.001730 538.11005 606.60510
579.0 0.001727 538.12970 604.30579
591.0 0.001692 538.14911 602.28668
576.0 0.001736 538.16864 600.54193
552.0 0.001812 538.18793 599.06409
558.0 0.001792 538.20721 597.84564
568.0 0.001761 538.22638 596.70264
558.0 0.001792 538.24530 595.98419
598.0 0.001672 538.26440 595.50592
597.0 0.001675 538.28333 595.26233
593.0 0.001686 538.30200 595.25079
575.0 0.001739 538.32068 595.46820
565.0 0.001770 538.33936 595.91425
569.0 0.001757 538.35779 596.58978
567.0 0.001764 538.37622 597.49860
569.0 0.001757 538.39447 598.64502
566.0 0.001767 538.41254 600.03595
571.0 0.001751 538.43066 601.68121
589.0 0.001698 538.44897 603.59106
584.0 0.001712 538.46661 605.77960
595.0 0.001681 538.48456 608.26166
609.0 0.001642 538.50232 611.05438
610.0 0.001639 538.51990 614.17719
616.0 0.001623 538.53748 617.65039
618.0 0.001618 538.55487 621.49640
628.0 0.001592 538.57239 625.73853
654.0 0.001529 538.58954 630.40112
684.0 0.001462 538.60663 635.50897
687.0 0.001456 538.62378 641.08734
675.0 0.001481 538.64069 647.16046
674.0 0.001484 538.65759 653.75201
694.0 0.001441 538.67432 660.88330
720.0 0.001389 538.69122 668.57373
736.0 0.001359 538.70764 676.83844
705.0 0.001418 538.72424 685.68774
714.0 0.001401 538.74054 695.12604
741.0 0.001350 538.75671 705.15088
745.0 0.001342 538.77283 715.75000
768.0 0.001302 538.78882 726.90234
764.0 0.001309 538.80493 738.57629
791.0 0.001264 538.82080 750.72827
823.0 0.001215 538.83673 763.30328
836.0 0.001196 538.85217 776.23657
870.0 0.001149 538.86792 789.45245
856.0 0.001168 538.88318 802.86847
874.0 0.001144 538.89874 816.39508
927.0 0.001079 538.91400 829.93860
969.0 0.001032 538.92908 843.39941
993.0 0.001007 538.94427 856.67346
1005.0 0.000995 538.95905 869.64764
986.0 0.001014 538.97406 882.19714
1029.0 0.000972 538.98871 894.18097
992.0 0.001008 539.00348 905.43835
1069.0 0.000935 539.01801 917.97900
1104.0 0.000906 539.03241 927.23114
1103.0 0.000907 539.04688 935.15778
1107.0 0.000903 539.06104 941.54102
1113.0 0.000898 539.07513 946.17163
1088.0 0.000919 539.08917 948.86902
1043.0 0.000959 539.10315 949.49487
1016.0 0.000984 539.11694 947.96777
1035.0 0.000966 539.13043 944.27277
1057.0 0.000946 539.14417 938.46429
1039.0 0.000962 539.15759 930.66333
1068.0 0.000936 539.17090 921.04749
1027.0 0.000974 539.18433 909.83875
1003.0 0.000997 539.19751 897.28833
981.0 0.001019 539.21069 883.66132
933.0 0.001072 539.22351 869.22296
968.0 0.001033 539.23645 854.22638
930.0 0.001075 539.24927 838.90656
881.0 0.001135 539.26172 823.47168
919.0 0.001088 539.27411 808.10321
879.0 0.001138 539.28674 792.95453
840.0 0.001190 539.29913 778.15112
816.0 0.001225 539.31134 763.79388
797.0 0.001255 539.32336 751.42175
795.0 0.001258 539.33539 738.18250
750.0 0.001333 539.34735 725.56757
722.0 0.001385 539.35907 713.60419
708.0 0.001412 539.37073 702.30731
708.0 0.001412 539.38202 691.68158
699.0 0.001431 539.39362 681.72284
698.0 0.001433 539.40509 672.42096
704.0 0.001420 539.41614 663.75952
699.0 0.001431 539.42731 655.71741
708.0 0.001412 539.43835 648.26978
679.0 0.001473 539.44897 641.38995
679.0 0.001473 539.45972 635.04810
683.0 0.001464 539.47052 629.21344
666.0 0.001502 539.48083 623.85437
675.0 0.001481 539.49139 618.93927
669.0 0.001495 539.50189 614.43671
682.0 0.001466 539.51196 610.31519
686.0 0.001458 539.52191 606.54431
648.0 0.001543 539.53204 603.09576
642.0 0.001558 539.54187 599.94116
633.0 0.001580 539.55164 597.05463
607.0 0.001647 539.56140 594.41187
620.0 0.001613 539.57080 591.98956
625.0 0.001600 539.58014 589.76685
626.0 0.001597 539.58954 587.72388
630.0 0.001587 539.59888 585.84351
622.0 0.001608 539.60767 584.10901
624.0 0.001603 539.61664 582.50598
620.0 0.001613 539.62573 581.02179
603.0 0.001658 539.63446 579.64404
599.0 0.001669 539.64276 578.36218
639.0 0.001565 539.65137 577.16748
659.0 0.001517 539.65973 576.05127
626.0 0.001597 539.66803 575.00586
613.0 0.001631 539.67627 574.02502
613.0 0.001631 539.68408 573.10333
584.0 0.001712 539.69220 572.23547
580.0 0.001724 539.69983 571.41669
581.0 0.001721 539.70758 570.64276
575.0 0.001739 539.71515 569.91095
572.0 0.001748 539.72247 569.21753
565.0 0.001770 539.72992 568.56024
584.0 0.001712 539.73694 567.93579
580.0 0.001724 539.74420 567.34247
600.0 0.001667 539.75104 566.77832
590.0 0.001695 539.75787 566.24103
601.0 0.001664 539.76471 565.72955
562.0 0.001779 539.77142 565.24207
569.0 0.001757 539.77777 564.77704
574.0 0.001742 539.78412 564.33368
580.0 0.001724 539.79034 563.91034
572.0 0.001748 539.79651 563.50635
553.0 0.001808 539.80261 563.12030
539.0 0.001855 539.80853 562.75195
555.0 0.001802 539.81433 562.39984
580.0 0.001724 539.81995 562.06299
574.0 0.001742 539.82538 561.74146
568.0 0.001761 539.83075 561.43390
550.0 0.001818 539.83606 561.14008
531.0 0.001883 539.84119 560.85907
565.0 0.001770 539.84613 560.59070
548.0 0.001825 539.85114 560.33380
536.0 0.001866 539.85590 560.08850
516.0 0.001938 539.86053 559.85370
560.0 0.001786 539.86536 559.62988
530.0 0.001887 539.86981 559.41571
541.0 0.001848 539.87415 559.21124
531.0 0.001883 539.87830 559.01599
512.0 0.001953 539.88214 558.82935
547.0 0.001828 539.88623 557.61499
529.0 0.001890 539.89014 557.45282
538.0 0.001859 539.89392 557.29846
546.0 0.001832 539.89758 557.15161
530.0 0.001887 539.90088 557.01215
544.0 0.001838 539.90430 556.87970
531.0 0.001883 539.90729 556.75421
530.0 0.001887 539.91064 556.63507
510.0 0.001961 539.91351 556.52252
506.0 0.001976 539.91632 556.41602
544.0 0.001838 539.91913 556.31561
535.0 0.001869 539.92175 556.22107
505.0 0.001980 539.92419 556.13202
529.0 0.001890 539.92651 556.04852
565.0 0.001770 539.92865 555.97021
542.0 0.001845 539.93079 555.89752
504.0 0.001984 539.93286 555.82947
519.0 0.001927 539.93469 555.76666
521.0 0.001919 539.93652 555.70856
517.0 0.001934 539.93805 555.65509
505.0 0.001980 539.93958 555.60620
519.0 0.001927 539.94080 555.56213
527.0 0.001898 539.94208 555.52203
530.0 0.001887 539.94318 555.48633
513.0 0.001949 539.94421 555.45496
531.0 0.001883 539.94501 555.42773
507.0 0.001972 539.94574 555.40466
518.0 0.001931 539.94629 555.38531
547.0 0.001828 539.94678 555.37018
529.0 0.001890 539.94720 555.35883
514.0 0.001946 539.94727 555.35126
518.0 0.001931 539.94745 555.34747
514.0 0.001946 539.94751 555.34753
519.0 0.001927 539.94727 555.35120
539.0 0.001855 539.94690 555.35858
533.0 0.001876 539.94666 555.36945
537.0 0.001862 539.94580 555.38416
531.0 0.001883 539.94525 555.40222
512.0 0.001953 539.94452 555.42389
515.0 0.001942 539.94354 555.44885
525.0 0.001905 539.94263 555.47748
557.0 0.001795 539.94141 555.50946
546.0 0.001832 539.94006 555.54529
552.0 0.001812 539.93866 555.58447
574.0 0.001742 539.93707 555.62677
553.0 0.001808 539.93536 555.67267
553.0 0.001808 539.93359 555.72211
552.0 0.001812 539.93158 555.77490
560.0 0.001786 539.92975 555.83118
557.0 0.001795 539.92737 555.89087
544.0 0.001838 539.92505 555.95410
560.0 0.001786 539.92255 556.02075
577.0 0.001733 539.91998 556.09100
575.0 0.001739 539.91724 556.16473
552.0 0.001812 539.91449 556.24200
537.0 0.001862 539.91119 556.32257
541.0 0.001848 539.90833 556.40735
524.0 0.001908 539.90503 556.49548
531.0 0.001883 539.90179 556.58704
556.0 0.001799 539.89813 556.68256
549.0 0.001821 539.89465 556.78174
560.0 0.001786 539.89069 556.88483
544.0 0.001838 539.88684 556.99164
535.0 0.001869 539.88300 557.10254
541.0 0.001848 539.87878 557.21722
558.0 0.001792 539.87427 557.33600
568.0 0.001761 539.87018 557.45856
571.0 0.001751 539.86560 557.58582
562.0 0.001779 539.86096 557.71692
565.0 0.001770 539.85602 557.85223
562.0 0.001779 539.85101 557.99194
532.0 0.001880 539.84613 558.13617
533.0 0.001876 539.84088 558.28461
532.0 0.001880 539.83557 558.43805
521.0 0.001919 539.83020 558.59589
537.0 0.001862 539.82458 558.75848
523.0 0.001912 539.81885 558.92596
513.0 0.001949 539.81305 559.09875
505.0 0.001980 539.80688 559.27655
509.0 0.001965 539.80090 559.45935
520.0 0.001923 539.79480 559.64771
519.0 0.001927 539.78833 559.84113
527.0 0.001898 539.78204 560.04022
543.0 0.001842 539.77533 560.24536
521.0 0.001919 539.76855 560.45605
527.0 0.001898 539.76135 560.67279
522.0 0.001916 539.75433 560.89594
530.0 0.001887 539.74738 561.12512
523.0 0.001912 539.74030 561.36090
513.0 0.001949 539.73267 561.60327
511.0 0.001957 539.72516 561.85272
516.0 0.001938 539.71747 562.10925
545.0 0.001835 539.70966 562.37238
553.0 0.001808 539.70172 562.64374
518.0 0.001931 539.69366 562.92224
524.0 0.001908 539.68542 563.20898
534.0 0.001873 539.67694 563.50366
523.0 0.001912 539.66858 563.80658
553.0 0.001808 539.65985 564.11847
541.0 0.001848 539.65118 564.43903
538.0 0.001859 539.64233 564.76892
537.0 0.001862 539.63367 565.10840
531.0 0.001883 539.62427 565.45764
520.0 0.001923 539.61481 565.81683
512.0 0.001953 539.60565 566.18652
522.0 0.001916 539.59613 566.56696
540.0 0.001852 539.58636 566.95862
567.0 0.001764 539.57672 567.36200
546.0 0.001832 539.56671 567.77716
591.0 0.001692 539.55670 568.20490
585.0 0.001709 539.54657 568.64532
582.0 0.001718 539.53613 569.09906
561.0 0.001783 539.52557 569.56696
550.0 0.001818 539.51520 570.04883
533.0 0.001876 539.50433 570.54578
526.0 0.001901 539.49347 571.05804
526.0 0.001901 539.48248 571.58636
538.0 0.001859 539.47162 572.13141
529.0 0.001890 539.46002 572.69342
521.0 0.001919 539.44861 573.27386
526.0 0.001901 539.43713 573.87292
514.0 0.001946 539.42560 574.49158
517.0 0.001934 539.41370 575.13025
516.0 0.001938 539.40186 575.79041
526.0 0.001901 539.38965 576.47235
546.0 0.001832 539.37750 577.17767
534.0 0.001873 539.36517 577.90704
549.0 0.001821 539.35278 578.66132
549.0 0.001821 539.34021 579.44183
563.0 0.001776 539.32758 580.24982
563.0 0.001776 539.31445 581.08673
541.0 0.001848 539.30157 581.95374
546.0 0.001832 539.28851 582.85193
592.0 0.001689 539.27515 583.78314
612.0 0.001634 539.26172 584.74902
610.0 0.001639 539.24829 585.75140
591.0 0.001692 539.23468 586.79205
575.0 0.001739 539.22089 587.87262
557.0 0.001795 539.20709 588.99554
539.0 0.001855 539.19287 590.16333
523.0 0.001912 539.17877 591.37805
522.0 0.001916 539.16461 592.64276
585.0 0.001709 539.14984 593.95996
567.0 0.001764 539.13544 595.33344
569.0 0.001757 539.12054 596.76599
548.0 0.001825 539.10577 598.26221
531.0 0.001883 539.09082 599.82581
536.0 0.001866 539.07550 601.46155
540.0 0.001852 539.06036 603.17523
559.0 0.001789 539.04492 604.97253
586.0 0.001706 539.02936 606.86005
591.0 0.001692 539.01410 608.84583
587.0 0.001704 538.99799 610.93750
579.0 0.001727 538.98218 613.14600
572.0 0.001748 538.96600 615.48163
621.0 0.001610 538.94977 617.95685
629.0 0.001590 538.93347 620.58649
637.0 0.001570 538.91718 623.38647
637.0 0.001570 538.90039 626.37524
616.0 0.001623 538.88373 629.57391
616.0 0.001623 538.86676 633.00592
594.0 0.001684 538.84998 636.47882
608.0 0.001645 538.83282 640.46222
627.0 0.001595 538.81555 644.76917
646.0 0.001548 538.79810 649.43732
648.0 0.001543 538.78064 654.50781
642.0 0.001558 538.76300 660.02704
665.0 0.001504 538.74524 666.04504
642.0 0.001558 538.72723 672.61725
645.0 0.001550 538.70917 679.80328
693.0 0.001443 538.69080 687.66809
684.0 0.001462 538.67261 696.28107
725.0 0.001379 538.65424 705.71527
727.0 0.001376 538.63556 716.04889
727.0 0.001376 538.61676 727.36285
753.0 0.001328 538.59808 739.74091
730.0 0.001370 538.57880 753.26886
754.0 0.001326 538.55988 768.03198
825.0 0.001212 538.54053 784.11566
848.0 0.001179 538.52130 801.60095
807.0 0.001239 538.50165 820.56458
848.0 0.001179 538.48218 841.07336
849.0 0.001178 538.46222 863.18420
920.0 0.001087 538.44238 886.93799
973.0 0.001028 538.42236 912.35638
997.0 0.001003 538.40210 939.43817
978.0 0.001022 538.38177 968.15430
998.0 0.001002 538.36133 998.44592
1004.0 0.000996 538.34082 1030.22205
1016.0 0.000984 538.31995 1063.35901
1055.0 0.000948 538.29901 1097.70410
1097.0 0.000912 538.27820 1133.07849
1129.0 0.000886 538.25702 1169.28564
1154.0 0.000867 538.23584 1206.11536
1178.0 0.000849 538.21448 1243.34949
1208.0 0.000828 538.19299 1280.76318
1234.0 0.000810 538.17133 1318.11890
1277.0 0.000783 538.14960 1355.15637
1280.0 0.000781 538.12756 1391.57983
1267.0 0.000789 538.10559 1427.04456
1315.0 0.000760 538.08344 1461.14893
1323.0 0.000756 538.06110 1493.43604
1362.0 0.000734 538.03864 1523.40967
1427.0 0.000701 538.01617 1550.56274
1414.0 0.000707 537.99335 1574.42151
1470.0 0.000680 537.97058 1594.59485
1468.0 0.000681 537.94763 1610.82336
1492.0 0.000670 537.92450 1623.02026
1456.0 0.000687 537.90149 1631.29089
1439.0 0.000695 537.87793 1635.93384
1501.0 0.000666 537.85455 1637.42017
1515.0 0.000660 537.83093 1636.35388
1491.0 0.000671 537.80725 1633.42578
1521.0 0.000657 537.78326 1629.36267
1538.0 0.000650 537.75909 1624.88269
1592.0 0.000628 537.73492 1620.65588
1559.0 0.000641 537.71057 1617.27612
1540.0 0.000649 537.68622 1615.24158
1533.0 0.000652 537.66162 1614.94507
1540.0 0.000649 537.63715 1616.66968
1559.0 0.000641 537.61224 1620.59180
1590.0 0.000629 537.58740 1626.78613
1604.0 0.000623 537.56226 1635.23560
1652.0 0.000605 537.53711 1645.84045
1674.0 0.000597 537.51184 1658.42896
1751.0 0.000571 537.48633 1672.76782
1749.0 0.000572 537.46063 1688.57019
1836.0 0.000545 537.43512 1705.49927
1816.0 0.000551 537.40912 1723.17017
1798.0 0.000556 537.38312 1741.15015
1888.0 0.000530 537.35693 1758.95020
1951.0 0.000513 537.33081 1776.02637
1994.0 0.000502 537.30432 1791.77881
2000.0 0.000500 537.27802 1805.55823
2051.0 0.000488 537.25134 1816.68628
2101.0 0.000476 537.22461 1824.47974
2122.0 0.000471 537.19775 1828.28955
2127.0 0.000470 537.17078 1827.54211
2056.0 0.000486 537.14355 1821.78223
2077.0 0.000481 537.11633 1810.71045
2050.0 0.000488 537.08887 1794.20850
2122.0 0.000471 537.06134 1772.34851
2025.0 0.000494 537.03369 1745.38611
1962.0 0.000510 537.00586 1713.73999
1899.0 0.000527 536.97791 1677.23352
1773.0 0.000564 536.94977 1637.95435
1752.0 0.000571 536.92175 1597.32239
1684.0 0.000594 536.89337 1553.11194
1600.0 0.000625 536.86505 1507.45068
1544.0 0.000648 536.83649 1460.96606
1480.0 0.000676 536.80780 1414.22290
1390.0 0.000719 536.77893 1367.71619
1333.0 0.000750 536.75000 1321.86902
1286.0 0.000778 536.72089 1277.03076
1238.0 0.000808 536.69171 1233.48511
1185.0 0.000844 536.66254 1191.45544
1174.0 0.000852 536.63281 1151.11121
1105.0 0.000905 536.60327 1112.57446
1043.0 0.000959 536.57349 1075.92883
971.0 0.001030 536.54382 1041.22229
922.0 0.001085 536.51385 1008.47504
883.0 0.001133 536.48364 977.68292
832.0 0.001202 536.45343 948.82196
810.0 0.001235 536.42310 921.85107
799.0 0.001252 536.39270 896.71515
803.0 0.001245 536.36188 873.34918
792.0 0.001263 536.33118 851.67847
790.0 0.001266 536.30029 831.62274
785.0 0.001274 536.26947 813.09601
724.0 0.001381 536.23822 796.00989
699.0 0.001431 536.20685 780.27405
682.0 0.001466 536.17548 765.79810
648.0 0.001543 536.14410 752.49286
665.0 0.001504 536.11255 740.27014
626.0 0.001597 536.08093 729.04504
616.0 0.001623 536.04895 718.73608
646.0 0.001548 536.01691 709.26550
618.0 0.001618 535.98492 700.55988
611.0 0.001637 535.95264 692.55029
624.0 0.001603 535.92023 685.17291
605.0 0.001653 535.88782 678.36780
590.0 0.001695 535.85535 672.08087
575.0 0.001739 535.82227 666.26196
614.0 0.001629 535.78931 660.86554
599.0 0.001669 535.75647 655.85052
605.0 0.001653 535.72327 651.18011
592.0 0.001689 535.69006 646.82056
575.0 0.001739 535.65686 642.74207
558.0 0.001792 535.62311 638.91797
550.0 0.001818 535.58960 635.32483
562.0 0.001779 535.55591 631.94110
562.0 0.001779 535.52203 628.74847
568.0 0.001761 535.48798 625.72992
545.0 0.001835 535.45380 622.87134
546.0 0.001832 535.41968 620.15875
548.0 0.001825 535.38525 617.58142
537.0 0.001862 535.35095 615.12854
536.0 0.001866 535.31610 612.79059
547.0 0.001828 535.28143 610.56012
541.0 0.001848 535.24677 608.42938
562.0 0.001779 535.21167 606.39136
545.0 0.001835 535.17657 604.44092
548.0 0.001825 535.14154 602.57214
547.0 0.001828 535.10590 600.77979
558.0 0.001792 535.07056 599.06006
593.0 0.001686 535.03503 597.40839
567.0 0.001764 534.99927 595.82123
542.0 0.001845 534.96344 594.29517
558.0 0.001792 534.92755 592.82654
551.0 0.001815 534.89148 591.41272
558.0 0.001792 534.85510 590.05096
554.0 0.001805 534.81885 588.73859
548.0 0.001825 534.78241 587.47314
565.0 0.001770 534.74585 586.25238
561.0 0.001783 534.70929 585.07434
553.0 0.001808 534.67249 583.93683
545.0 0.001835 534.63556 582.83807
531.0 0.001883 534.59857 581.77606
532.0 0.001880 534.56146 580.74957
556.0 0.001799 534.52399 579.75671
567.0 0.001764 534.48688 578.79639
533.0 0.001876 534.44922 577.86658
515.0 0.001942 534.41168 576.96667
527.0 0.001898 534.37390 576.09491
536.0 0.001866 534.33594 575.25043
523.0 0.001912 534.29785 574.43158
540.0 0.001852 534.25970 573.63794
527.0 0.001898 534.22162 572.86816
514.0 0.001946 534.18323 572.12122
512.0 0.001953 534.14478 571.39667
513.0 0.001949 534.10626 570.69318
526.0 0.001901 534.06744 570.00995
535.0 0.001869 534.02875 569.34631
535.0 0.001869 533.98962 568.70148
519.0 0.001927 533.95074 568.07489
501.0 0.001996 533.91144 567.46588
518.0 0.001931 533.87238 566.87341
501.0 0.001996 533.83289 566.29730
502.0 0.001992 533.79327 565.73669
503.0 0.001988 533.75360 565.19122
506.0 0.001976 533.71399 564.66040
513.0 0.001949 533.67401 564.14337
520.0 0.001923 533.63416 563.63983
513.0 0.001949 533.59387 563.14960
521.0 0.001919 533.55371 562.67181
539.0 0.001855 533.51355 562.20636
534.0 0.001873 533.47296 561.75281
540.0 0.001852 533.43237 561.31049
527.0 0.001898 533.39178 560.87909
515.0 0.001942 533.35101 560.45850
502.0 0.001992 533.30994 560.04840
497.0 0.002012 533.26898 559.64819
528.0 0.001894 533.22791 559.25757
517.0 0.001934 533.18665 558.87646
502.0 0.001992 533.14520 558.50433
510.0 0.001961 533.10388 558.14142
501.0 0.001996 533.06226 557.78687
522.0 0.001916 533.02045 557.44049
506.0 0.001976 532.97852 557.10236
498.0 0.002008 532.93677 556.77209
508.0 0.001969 532.89471 556.44952
555.0 0.001802 532.85272 556.13409
530.0 0.001887 532.81024 555.82617
514.0 0.001946 532.76801 555.52509
532.0 0.001880 532.72546 555.23096
507.0 0.001972 532.68286 554.94330
487.0 0.002053 532.64014 554.66248
505.0 0.001980 532.59729 554.38763
481.0 0.002079 532.55432 554.11890
482.0 0.002075 532.51123 553.85614
496.0 0.002016 532.46808 553.59943
506.0 0.001976 532.42499 553.34802
504.0 0.001984 532.38141 553.10248
487.0 0.002053 532.33801 552.86230
478.0 0.002092 532.29449 552.62738
493.0 0.002028 532.25049 552.39764
492.0 0.002033 532.20685 552.17303
503.0 0.001988 532.16284 551.95319
483.0 0.002070 532.11890 551.73828
497.0 0.002012 532.07465 551.52814
505.0 0.001980 532.03040 551.32257
514.0 0.001946 531.98608 551.12183
525.0 0.001905 531.94165 550.92505
519.0 0.001927 531.89703 550.73291
508.0 0.001969 531.85236 550.54486
516.0 0.001938 531.80762 550.36096
520.0 0.001923 531.76257 550.18140
521.0 0.001919 531.71753 550.00580
514.0 0.001946 531.67249 549.83411
517.0 0.001934 531.62720 549.66638
507.0 0.001972 531.58191 549.50250
524.0 0.001908 531.53650 549.34241
531.0 0.001883 531.49091 549.18585
531.0 0.001883 531.44543 549.03314
539.0 0.001855 531.39966 548.88416
518.0 0.001931 531.35358 548.73859
518.0 0.001931 531.30756 548.59613
516.0 0.001938 531.26147 548.45752
503.0 0.001988 531.21539 548.32239
493.0 0.002028 531.16913 548.19049
498.0 0.002008 531.12262 548.06177
491.0 0.002037 531.07623 547.93665
520.0 0.001923 531.02948 547.81476
507.0 0.001972 530.98267 547.69592
496.0 0.002016 530.93597 547.58051
528.0 0.001894 530.88904 547.46796
533.0 0.001876 530.84216 547.35901
517.0 0.001934 530.79498 547.25293
502.0 0.001992 530.74768 547.14996
501.0 0.001996 530.70050 547.04993
527.0 0.001898 530.65295 546.95325
505.0 0.001980 530.60547 546.85925
493.0 0.002028 530.55774 546.76868
514.0 0.001946 530.50995 546.68115
521.0 0.001919 530.46210 546.59644
527.0 0.001898 530.41425 546.51477
520.0 0.001923 530.36597 546.43628
501.0 0.001996 530.31805 546.36078
506.0 0.001976 530.26965 546.28827
506.0 0.001976 530.22137 546.21869
515.0 0.001942 530.17303 546.15216
516.0 0.001938 530.12433 546.08862
513.0 0.001949 530.07574 546.02826
516.0 0.001938 530.02698 545.97095
523.0 0.001912 529.97803 545.91620
523.0 0.001912 529.92920 545.86523
510.0 0.001961 529.88013 545.81720
531.0 0.001883 529.83087 545.77191
524.0 0.001908 529.78168 545.72992
518.0 0.001931 529.73230 545.69122
527.0 0.001898 529.68304 545.65564
508.0 0.001969 529.63324 545.62323
506.0 0.001976 529.58368 545.59406
511.0 0.001957 529.53400 545.56824
517.0 0.001934 529.48419 545.54559
521.0 0.001919 529.43420 545.52637
512.0 0.001953 529.38428 545.51044
534.0 0.001873 529.33398 545.49811
511.0 0.001957 529.28381 545.48926
494.0 0.002024 529.23346 545.48376
494.0 0.002024 529.18304 545.48206
484.0 0.002066 529.13251 545.48407
493.0 0.002028 529.08203 545.48956
497.0 0.002012 529.03119 545.49878
486.0 0.002058 528.98047 545.51196
498.0 0.002008 528.92950 545.52899
516.0 0.001938 528.87842 545.55011
520.0 0.001923 528.82739 545.57520
511.0 0.001957 528.77631 545.60437
496.0 0.002016 528.72498 545.63800
517.0 0.001934 528.67371 545.67560
531.0 0.001883 528.62213 545.71759
534.0 0.001873 528.57056 545.76428
516.0 0.001938 528.51904 545.81561
506.0 0.001976 528.46722 545.87164
512.0 0.001953 528.41528 545.93250
529.0 0.001890 528.36340 545.99841
518.0 0.001931 528.31134 546.06940
507.0 0.001972 528.25922 546.14526
507.0 0.001972 528.20709 546.22687
510.0 0.001961 528.15491 546.31372
504.0 0.001984 528.10242 546.40643
508.0 0.001969 528.05011 546.50488
522.0 0.001916 527.99738 546.60925
500.0 0.002000 527.94476 546.71991
495.0 0.002020 527.89209 546.83679
517.0 0.001934 527.83929 546.96033
504.0 0.001984 527.78638 547.09039
521.0 0.001919 527.73309 547.22754
540.0 0.001852 527.68018 547.37183
545.0 0.001835 527.62695 547.52368
547.0 0.001828 527.57367 547.68304
538.0 0.001859 527.52026 547.85034
519.0 0.001927 527.46680 548.02570
486.0 0.002058 527.41333 548.20972
509.0 0.001965 527.35962 548.40253
497.0 0.002012 527.30591 548.60425
489.0 0.002045 527.25214 548.81555
506.0 0.001976 527.19824 549.03638
501.0 0.001996 527.14423 549.26746
508.0 0.001969 527.09015 549.50909
521.0 0.001919 527.03595 549.76154
526.0 0.001901 526.98187 550.02515
526.0 0.001901 526.92737 550.30066
503.0 0.001988 526.87305 550.58850
508.0 0.001969 526.81860 550.88898
512.0 0.001953 526.76404 551.20270
500.0 0.002000 526.70923 551.53015
514.0 0.001946 526.65454 551.87207
525.0 0.001905 526.59967 552.22913
519.0 0.001927 526.54492 552.60156
534.0 0.001873 526.48981 552.99048
516.0 0.001938 526.43457 553.39624
538.0 0.001859 526.37958 553.82019
521.0 0.001919 526.32440 554.26245
514.0 0.001946 526.26886 554.72412
502.0 0.001992 526.21350 555.20648
519.0 0.001927 526.15796 555.70996
505.0 0.001980 526.10236 556.23596
511.0 0.001957 526.04675 556.78540
517.0 0.001934 525.99115 557.35950
523.0 0.001912 525.93518 557.95953
522.0 0.001916 525.87933 558.58667
520.0 0.001923 525.82343 559.24249
562.0 0.001779 525.76715 559.92834
550.0 0.001818 525.71130 560.64612
536.0 0.001866 525.65503 561.39746
538.0 0.001859 525.59863 562.18408
529.0 0.001890 525.54236 563.00836
532.0 0.001880 525.48590 563.87231
537.0 0.001862 525.42926 564.77826
532.0 0.001880 525.37262 565.72906
542.0 0.001845 525.31586 566.72766
530.0 0.001887 525.25922 567.77698
513.0 0.001949 525.20227 568.88092
531.0 0.001883 525.14532 570.04327
531.0 0.001883 525.08844 571.26837
529.0 0.001890 525.03131 572.56140
542.0 0.001845 524.97418 573.92761
570.0 0.001754 524.91705 575.37335
557.0 0.001795 524.85974 576.90576
543.0 0.001842 524.80219 578.53259
537.0 0.001862 524.74481 580.92865
560.0 0.001786 524.68719 582.77802
561.0 0.001783 524.62958 584.75293
554.0 0.001805 524.57178 586.86682
568.0 0.001761 524.51404 589.13464
549.0 0.001821 524.45630 591.57330
563.0 0.001776 524.39844 594.20239
555.0 0.001802 524.34045 597.04358
570.0 0.001754 524.28247 600.12152
567.0 0.001764 524.22418 603.46381
565.0 0.001770 524.16608 607.10126
586.0 0.001706 524.10760 611.06842
577.0 0.001733 524.04962 615.40350
614.0 0.001629 523.99109 620.14868
647.0 0.001546 523.93250 625.35059
626.0 0.001597 523.87396 631.06000
629.0 0.001590 523.81525 637.33197
620.0 0.001613 523.75659 644.22644
627.0 0.001595 523.69788 651.80743
651.0 0.001536 523.63885 660.14337
680.0 0.001471 523.58002 669.30640
673.0 0.001486 523.52112 679.37201
680.0 0.001471 523.46198 690.41888
673.0 0.001486 523.40289 702.52820
727.0 0.001376 523.34381 715.78113
732.0 0.001366 523.28442 730.26001
728.0 0.001374 523.22510 746.04498
749.0 0.001335 523.16577 763.21313
785.0 0.001274 523.10638 781.83624
803.0 0.001245 523.04694 801.97852
837.0 0.001195 522.98730 823.69366
851.0 0.001175 522.92755 847.02216
871.0 0.001148 522.86792 871.98749
879.0 0.001138 522.80804 898.59308
918.0 0.001089 522.74817 926.81726
942.0 0.001062 522.68823 956.61053
927.0 0.001079 522.62811 987.89130
941.0 0.001063 522.56818 1020.54407
1010.0 0.000990 522.50793 1054.41602
1059.0 0.000944 522.44781 1089.31812
1121.0 0.000892 522.38751 1125.02600
1179.0 0.000848 522.32721 1161.28235
1185.0 0.000844 522.26697 1197.80188
1190.0 0.000840 522.20648 1234.27502
1237.0 0.000808 522.14581 1270.37048
1255.0 0.000797 522.08551 1305.73511
1290.0 0.000775 522.02478 1339.99292
1323.0 0.000756 521.96411 1369.73975
1357.0 0.000737 521.90332 1400.54553
1346.0 0.000743 521.84247 1428.91077
1428.0 0.000700 521.78168 1454.31262
1430.0 0.000699 521.72064 1476.19751
1470.0 0.000680 521.65967 1494.00366
1446.0 0.000692 521.59863 1507.19226
1466.0 0.000682 521.53748 1515.28882
1478.0 0.000677 521.47638 1517.92493
1501.0 0.000666 521.41498 1514.87781
1485.0 0.000673 521.35370 1506.09705
1454.0 0.000688 521.29248 1491.71741
1419.0 0.000705 521.23108 1472.05103
1438.0 0.000695 521.16956 1447.56604
1463.0 0.000684 521.10791 1418.85132
1411.0 0.000709 521.04645 1386.57446
1363.0 0.000734 520.98474 1351.44141
1283.0 0.000779 520.92297 1314.15674
1242.0 0.000805 520.86121 1275.39465
1250.0 0.000800 520.79950 1235.77686
1210.0 0.000826 520.73755 1195.85706
1158.0 0.000864 520.67542 1156.11731
1089.0 0.000918 520.61359 1116.96497
1030.0 0.000971 520.55164 1078.73608
1040.0 0.000962 520.48938 1041.70288
1020.0 0.000980 520.42725 1006.07764
969.0 0.001032 520.36511 972.02173
882.0 0.001134 520.30280 939.65100
816.0 0.001225 520.24054 909.04285
783.0 0.001277 520.17816 880.24103
791.0 0.001264 520.11572 853.26135
775.0 0.001290 520.05322 828.09418
763.0 0.001311 519.99066 804.71100
735.0 0.001361 519.92816 783.06500
716.0 0.001397 519.86542 763.09662
709.0 0.001410 519.80261 744.73425
732.0 0.001366 519.73993 727.89819
695.0 0.001439 519.67719 712.50262
652.0 0.001534 519.61414 698.45673
629.0 0.001590 519.55139 685.66882
632.0 0.001582 519.48846 674.04547
633.0 0.001580 519.42542 663.49469
629.0 0.001590 519.36243 653.92645
631.0 0.001585 519.29938 645.25427
626.0 0.001597 519.23621 637.39465
593.0 0.001686 519.17291 630.26965
595.0 0.001681 519.10974 623.80609
590.0 0.001695 519.04626 617.93610
580.0 0.001724 518.98315 612.59680
573.0 0.001745 518.91968 607.73145
568.0 0.001761 518.85626 603.28815
570.0 0.001754 518.79272 599.22046
554.0 0.001805 518.72919 595.48621
563.0 0.001776 518.66571 592.04865
571.0 0.001751 518.60205 588.87457
574.0 0.001742 518.53827 585.93494
592.0 0.001689 518.47461 583.20428
595.0 0.001681 518.41077 580.66022
614.0 0.001629 518.34705 578.28314
582.0 0.001718 518.28314 576.05591
566.0 0.001767 518.21930 573.96350
560.0 0.001786 518.15527 571.99341
558.0 0.001792 518.09131 570.13385
556.0 0.001799 518.02698 568.37518
551.0 0.001815 517.96313 566.70880
531.0 0.001883 517.89905 565.12701
543.0 0.001842 517.83472 563.62347
561.0 0.001783 517.77063 562.19202
584.0 0.001712 517.70636 560.82745
569.0 0.001757 517.64203 559.52521
569.0 0.001757 517.57764 558.28101
540.0 0.001852 517.51343 557.09131
535.0 0.001869 517.44891 555.95270
546.0 0.001832 517.38440 554.86188
560.0 0.001786 517.32007 553.81659
556.0 0.001799 517.25543 552.81342
553.0 0.001808 517.19086 551.85095
545.0 0.001835 517.12616 550.92627
563.0 0.001776 517.06158 550.03790
531.0 0.001883 516.99701 549.18347
527.0 0.001898 516.93213 548.36176
527.0 0.001898 516.86725 547.57068
519.0 0.001927 516.80249 546.80908
536.0 0.001866 516.73773 546.07526
541.0 0.001848 516.67261 545.36823
524.0 0.001908 516.60791 544.68646
549.0 0.001821 516.54297 544.02887
530.0 0.001887 516.47778 543.39441
539.0 0.001855 516.41284 542.78204
542.0 0.001845 516.34772 542.19080
533.0 0.001876 516.28259 541.61975
549.0 0.001821 516.21747 541.06799
556.0 0.001799 516.15228 540.53491
575.0 0.001739 516.08710 540.01953
549.0 0.001821 516.02191 539.52118
543.0 0.001842 515.95660 539.03931
570.0 0.001754 515.89124 538.57318
561.0 0.001783 515.82587 538.12219
586.0 0.001706 515.76038 537.68567
595.0 0.001681 515.69501 537.26331
606.0 0.001650 515.62952 536.85461
634.0 0.001577 515.56409 536.45868
639.0 0.001565 515.49860 536.07544
623.0 0.001605 515.43292 535.70447
611.0 0.001637 515.36755 535.34515
604.0 0.001656 515.30182 534.99738
644.0 0.001553 515.23608 534.66064
615.0 0.001626 515.17053 534.33435
624.0 0.001603 515.10486 534.01880
629.0 0.001590 515.03900 533.71313
622.0 0.001608 514.97321 533.41730
657.0 0.001522 514.90747 533.13080
643.0 0.001555 514.84161 532.85400
639.0 0.001565 514.77576 532.58600
629.0 0.001590 514.70990 532.32684
643.0 0.001555 514.64398 532.07635
669.0 0.001495 514.57813 531.83429
673.0 0.001486 514.51215 531.60052
711.0 0.001406 514.44623 531.37500
675.0 0.001481 514.38000 531.15723
648.0 0.001543 514.31403 530.94733
663.0 0.001508 514.24792 530.74506
654.0 0.001529 514.18188 530.55054
660.0 0.001515 514.11566 530.36340
687.0 0.001456 514.04956 530.18365
647.0 0.001546 513.98334 530.01117
654.0 0.001529 513.91718 529.84601
691.0 0.001447 513.85095 529.68799
668.0 0.001497 513.78461 529.53711
663.0 0.001508 513.71820 529.39331
663.0 0.001508 513.65216 529.25647
636.0 0.001572 513.58563 529.12671
625.0 0.001600 513.51935 529.00415
604.0 0.001656 513.45294 528.88843
636.0 0.001572 513.38654 528.78003
616.0 0.001623 513.32013 528.67841
620.0 0.001613 513.25372 528.58423
613.0 0.001631 513.18726 528.49701
624.0 0.001603 513.12079 528.41718
613.0 0.001631 513.05432 528.34454
595.0 0.001681 512.98779 528.27954
607.0 0.001647 512.92114 528.22186
595.0 0.001681 512.85474 528.17188
597.0 0.001675 512.78809 528.12970
628.0 0.001592 512.72150 528.09540
606.0 0.001650 512.65491 528.06940
582.0 0.001718 512.58820 528.05121
594.0 0.001684 512.52142 528.04199
594.0 0.001684 512.45477 528.04108
587.0 0.001704 512.38806 528.04926
597.0 0.001675 512.32147 528.06647
575.0 0.001739 512.25458 528.09326
585.0 0.001709 512.18774 528.12982
566.0 0.001767 512.12115 528.17645
562.0 0.001779 512.05450 528.23334
561.0 0.001783 511.98737 528.30115
573.0 0.001745 511.92075 528.38013
558.0 0.001792 511.85391 528.47089
555.0 0.001802 511.78708 528.57367
554.0 0.001805 511.72009 528.68939
554.0 0.001805 511.65332 528.81830
562.0 0.001779 511.58630 528.96100
561.0 0.001783 511.51941 529.11853
550.0 0.001818 511.45255 529.29126
543.0 0.001842 511.38562 529.48029
545.0 0.001835 511.31876 529.68640
549.0 0.001821 511.25162 529.91064
584.0 0.001712 511.18469 530.15430
613.0 0.001631 511.11768 530.41840
602.0 0.001661 511.05072 530.70465
557.0 0.001795 510.98367 531.01471
547.0 0.001828 510.91656 531.34998
567.0 0.001764 510.84958 531.71289
550.0 0.001818 510.78265 532.10577
566.0 0.001767 510.71536 532.53119
559.0 0.001789 510.64844 532.99249
575.0 0.001739 510.58130 533.49298
559.0 0.001789 510.51422 534.03674
559.0 0.001789 510.44702 534.62860
571.0 0.001751 510.37994 535.27368
567.0 0.001764 510.31281 535.97803
603.0 0.001658 510.24576 536.74872
592.0 0.001689 510.17856 537.59369
565.0 0.001770 510.11139 538.52185
576.0 0.001736 510.04434 539.54327
579.0 0.001727 509.97708 540.66956
589.0 0.001698 509.91000 541.91382
580.0 0.001724 509.84283 543.28961
573.0 0.001745 509.77560 544.81372
573.0 0.001745 509.70850 546.50348
560.0 0.001786 509.64133 548.37860
581.0 0.001721 509.57407 550.45996
584.0 0.001712 509.50681 552.77100
603.0 0.001658 509.43964 555.33649
641.0 0.001560 509.37253 558.18304
594.0 0.001684 509.30515 561.33868
600.0 0.001667 509.23785 564.83331
614.0 0.001629 509.17072 568.69769
605.0 0.001653 509.10355 572.96338
635.0 0.001575 509.03625 577.66266
626.0 0.001597 508.96909 582.82758
634.0 0.001577 508.90186 588.48956
659.0 0.001517 508.83466 594.67865
660.0 0.001515 508.76721 601.42279
683.0 0.001464 508.70001 608.74677
686.0 0.001458 508.63275 616.67090
725.0 0.001379 508.56555 625.20996
754.0 0.001326 508.49826 634.37238
753.0 0.001328 508.43103 644.15765
797.0 0.001255 508.36377 654.55554
799.0 0.001252 508.29657 665.54449
816.0 0.001225 508.22922 677.09058
821.0 0.001218 508.16190 689.14502
832.0 0.001202 508.09464 701.64514
848.0 0.001179 508.02747 714.51337
848.0 0.001179 507.96033 727.65857
906.0 0.001104 507.89304 740.97559
930.0 0.001075 507.82578 754.34894
914.0 0.001094 507.75858 767.65289
926.0 0.001080 507.69128 780.75330
924.0 0.001082 507.62411 793.50720
950.0 0.001053 507.55667 805.76202
1025.0 0.000976 507.48950 817.35425
1043.0 0.000959 507.42215 828.10645
1068.0 0.000936 507.35516 837.82800
1083.0 0.000923 507.28793 846.31604
1084.0 0.000923 507.22055 853.36230
1054.0 0.000949 507.15332 858.76300
1031.0 0.000970 507.08621 862.33282
1020.0 0.000980 507.01901 863.92108
1037.0 0.000964 506.95184 863.42645
1062.0 0.000942 506.88464 860.81012
1089.0 0.000918 506.81741 856.10181
1064.0 0.000940 506.75034 849.39954
1054.0 0.000949 506.68311 840.86267
1057.0 0.000946 506.61597 830.70013
1062.0 0.000942 506.54883 819.15503
1018.0 0.000982 506.48178 806.48798
986.0 0.001014 506.41449 792.96295
974.0 0.001027 506.34726 778.83514
1011.0 0.000989 506.28021 764.34064
989.0 0.001011 506.21310 749.69287
976.0 0.001025 506.14600 735.07745
913.0 0.001095 506.07895 720.65283
912.0 0.001096 506.01181 706.55090
874.0 0.001144 505.94464 692.87878
847.0 0.001181 505.87762 679.72107
819.0 0.001221 505.81064 667.14325
812.0 0.001232 505.74353 655.19238
839.0 0.001192 505.67648 643.90094
836.0 0.001196 505.60956 633.28809
801.0 0.001248 505.54251 623.36139
763.0 0.001311 505.47546 614.11847
759.0 0.001318 505.40851 605.54956
715.0 0.001399 505.34161 597.63696
688.0 0.001453 505.27451 590.35773
710.0 0.001408 505.20758 594.70264
689.0 0.001451 505.14075 588.67096
679.0 0.001473 505.07379 583.18079
656.0 0.001524 505.00693 578.19678
647.0 0.001546 504.93994 573.68280
668.0 0.001497 504.87317 569.60260
662.0 0.001511 504.80615 565.91986
650.0 0.001538 504.73935 562.59973
628.0 0.001592 504.67258 559.60822
618.0 0.001618 504.60583 556.91364
615.0 0.001626 504.53894 554.48541
591.0 0.001692 504.47198 552.29590
580.0 0.001724 504.40527 550.31927
578.0 0.001730 504.33862 548.53180
573.0 0.001745 504.27173 546.91217
585.0 0.001709 504.20508 545.44092
567.0 0.001764 504.13840 544.10095
550.0 0.001818 504.07169 542.87689
551.0 0.001815 504.00513 541.75543
553.0 0.001808 503.93835 540.72443
555.0 0.001802 503.87177 539.77368
541.0 0.001848 503.80505 538.89398
544.0 0.001838 503.73853 538.07739
529.0 0.001890 503.67200 537.31738
518.0 0.001931 503.60556 536.60779
523.0 0.001912 503.53891 535.94373
520.0 0.001923 503.47241 535.32068
515.0 0.001942 503.40588 534.73486
541.0 0.001848 503.33954 534.18304
579.0 0.001727 503.27295 533.66205
574.0 0.001742 503.20663 533.16998
561.0 0.001783 503.14032 532.70404
545.0 0.001835 503.07385 532.26245
523.0 0.001912 503.00735 531.84387
520.0 0.001923 502.94107 531.44629
550.0 0.001818 502.87485 531.06854
553.0 0.001808 502.80835 530.70972
567.0 0.001764 502.74216 530.36841
579.0 0.001727 502.67599 530.04364
583.0 0.001715 502.60968 529.73444
567.0 0.001764 502.54349 529.44025
568.0 0.001761 502.47736 529.16016
544.0 0.001838 502.41116 528.89349
517.0 0.001934 502.34497 528.63953
508.0 0.001969 502.27896 528.39764
508.0 0.001969 502.21289 528.16748
498.0 0.002008 502.14691 527.94818
487.0 0.002053 502.08078 527.73956
500.0 0.002000 502.01480 527.54108
513.0 0.001949 501.94888 527.35242
528.0 0.001894 501.88287 527.17297
508.0 0.001969 501.81696 527.00244
520.0 0.001923 501.75113 526.84064
526.0 0.001901 501.68515 526.68689
520.0 0.001923 501.61926 526.54108
528.0 0.001894 501.55356 526.40326
511.0 0.001957 501.48782 526.27264
508.0 0.001969 501.42197 526.14905
523.0 0.001912 501.35629 526.03253
524.0 0.001908 501.29068 525.92273
524.0 0.001908 501.22501 525.81934
511.0 0.001957 501.15924 525.72217
517.0 0.001934 501.09387 525.63123
502.0 0.001992 501.02808 525.54614
527.0 0.001898 500.96265 525.46674
536.0 0.001866 500.89713 525.39301
524.0 0.001908 500.83163 525.32489
506.0 0.001976 500.76608 525.26172
534.0 0.001873 500.70071 525.20398
521.0 0.001919 500.63528 525.15131
519.0 0.001927 500.56992 525.10352
507.0 0.001972 500.50461 525.06061
514.0 0.001946 500.43930 525.02240
538.0 0.001859 500.37415 524.98901
525.0 0.001905 500.30887 524.95990
566.0 0.001767 500.24380 524.93536
537.0 0.001862 500.17865 524.91541
516.0 0.001938 500.11349 524.89966
552.0 0.001812 500.04837 524.88806
540.0 0.001852 499.98322 524.88092
536.0 0.001866 499.91827 524.87793
525.0 0.001905 499.85330 524.87885
518.0 0.001931 499.78833 524.88379
522.0 0.001916 499.72336 523.44122
506.0 0.001976 499.65860 523.46301
505.0 0.001980 499.59366 523.48853
523.0 0.001912 499.52899 523.51807
517.0 0.001934 499.46417 523.55121
516.0 0.001938 499.39935 523.58820
516.0 0.001938 499.33463 523.62872
532.0 0.001880 499.27005 523.67328
514.0 0.001946 499.20547 523.72125
509.0 0.001965 499.14090 523.77313
515.0 0.001942 499.07629 523.82861
518.0 0.001931 499.01181 523.88770
506.0 0.001976 498.94720 523.95056
499.0 0.002004 498.88293 524.01703
524.0 0.001908 498.81839 524.08716
550.0 0.001818 498.75415 524.16095
551.0 0.001815 498.68982 524.23834
520.0 0.001923 498.62567 524.31952
503.0 0.001988 498.56131 524.40436
507.0 0.001972 498.49713 524.49286
508.0 0.001969 498.43292 524.58496
508.0 0.001969 498.36887 524.68085
525.0 0.001905 498.30478 524.78040
521.0 0.001919 498.24069 524.88391
546.0 0.001832 498.17676 524.99103
543.0 0.001842 498.11279 525.10199
546.0 0.001832 498.04895 525.21686
554.0 0.001805 497.98505 525.33545
535.0 0.001869 497.92120 525.45801
592.0 0.001689 497.85751 525.58441
565.0 0.001770 497.79373 525.71484
562.0 0.001779 497.73004 525.84918
564.0 0.001773 497.66641 525.98749
577.0 0.001733 497.60284 526.13007
570.0 0.001754 497.53915 526.27655
555.0 0.001802 497.47571 526.42725
592.0 0.001689 497.41229 526.58221
597.0 0.001675 497.34882 526.74133
581.0 0.001721 497.28549 526.90472
582.0 0.001718 497.22208 527.07245
564.0 0.001773 497.15881 527.24463
549.0 0.001821 497.09558 527.42139
568.0 0.001761 497.03241 527.60242
558.0 0.001792 496.96927 530.97418
577.0 0.001733 496.90613 531.18384
586.0 0.001706 496.84296 531.39832
593.0 0.001686 496.78003 531.61780
608.0 0.001645 496.71701 531.84222
590.0 0.001695 496.65417 532.07196
597.0 0.001675 496.59113 532.30670
610.0 0.001639 496.52835 532.54730
600.0 0.001667 496.46567 532.79279
654.0 0.001529 496.40289 533.04370
655.0 0.001527 496.34018 533.30017
636.0 0.001572 496.27771 533.56207
622.0 0.001608 496.21497 533.82977
633.0 0.001580 496.15234 534.10345
639.0 0.001565 496.09000 534.38281
617.0 0.001621 496.02768 534.66815
613.0 0.001631 495.96518 534.95984
639.0 0.001565 495.90283 535.25757
648.0 0.001543 495.84045 535.56158
663.0 0.001508 495.77838 535.87225
678.0 0.001475 495.71606 536.18939
732.0 0.001366 495.65387 536.51324
709.0 0.001410 495.59192 536.84399
705.0 0.001418 495.52994 537.18170
716.0 0.001397 495.46774 537.52637
718.0 0.001393 495.40604 537.87854
714.0 0.001401 495.34412 538.23785
726.0 0.001377 495.28229 538.60480
719.0 0.001391 495.22037 538.97949
741.0 0.001350 495.15878 539.36200
765.0 0.001307 495.09708 539.75244
775.0 0.001290 495.03537 540.15118
792.0 0.001263 494.97397 540.55817
803.0 0.001245 494.91238 540.97369
793.0 0.001261 494.85089 541.39801
817.0 0.001224 494.78946 541.83112
819.0 0.001221 494.72824 542.27344
877.0 0.001140 494.66690 542.72491
865.0 0.001156 494.60568 543.18610
865.0 0.001156 494.54449 543.65674
830.0 0.001205 494.48346 544.13739
805.0 0.001242 494.42221 544.62823
793.0 0.001261 494.36136 545.12946
801.0 0.001248 494.30023 545.64136
807.0 0.001239 494.23944 546.16425
824.0 0.001214 494.17862 546.69812
820.0 0.001220 494.11768 547.24341
827.0 0.001209 494.05707 547.80048
809.0 0.001236 493.99640 548.36951
772.0 0.001295 493.93579 548.95062
751.0 0.001332 493.87515 549.54431
763.0 0.001311 493.81461 550.15082
776.0 0.001289 493.75427 550.77063
795.0 0.001258 493.69379 551.40399
763.0 0.001311 493.63354 552.05115
801.0 0.001248 493.57327 552.71246
769.0 0.001300 493.51303 553.38837
779.0 0.001284 493.45291 554.07916
747.0 0.001339 493.39282 554.78546
736.0 0.001359 493.33270 555.50739
707.0 0.001414 493.27271 556.24548
705.0 0.001418 493.21280 557.00000
708.0 0.001412 493.15302 557.77173
715.0 0.001399 493.09314 558.56085
738.0 0.001355 493.03345 559.36804
757.0 0.001321 492.97375 560.19366
703.0 0.001422 492.91415 561.03815
716.0 0.001397 492.85449 561.90228
737.0 0.001357 492.79501 562.78638
742.0 0.001348 492.73563 563.69116
730.0 0.001370 492.67624 564.61713
721.0 0.001387 492.61691 565.56464
692.0 0.001445 492.55765 566.53491
740.0 0.001351 492.49850 567.52820
740.0 0.001351 492.43936 568.54523
736.0 0.001359 492.38040 569.58691
693.0 0.001443 492.32132 570.65363
667.0 0.001499 492.26236 571.74634
671.0 0.001490 492.20343 572.86609
708.0 0.001412 492.14474 574.01318
723.0 0.001383 492.08594 575.18884
676.0 0.001479 492.02737 576.39386
649.0 0.001541 491.96860 577.62903
649.0 0.001541 491.91006 578.89563
635.0 0.001575 491.85165 580.60370
632.0 0.001582 491.79318 581.93817
631.0 0.001585 491.73480 583.30695
603.0 0.001658 491.67642 584.71124
609.0 0.001642 491.61829 586.15228
596.0 0.001678 491.56009 587.63116
600.0 0.001667 491.50198 589.14923
632.0 0.001582 491.44394 590.70782
620.0 0.001613 491.38599 592.30811
608.0 0.001645 491.32819 593.95203
631.0 0.001585 491.27020 595.64050
611.0 0.001637 491.21243 597.37549
596.0 0.001678 491.15479 599.15857
584.0 0.001712 491.09720 600.99139
586.0 0.001706 491.03952 602.87579
598.0 0.001672 490.98209 604.81354
613.0 0.001631 490.92465 606.80688
590.0 0.001695 490.86722 608.85760
624.0 0.001603 490.80991 610.96796
622.0 0.001608 490.75275 613.14008
596.0 0.001678 490.69553 615.37646
597.0 0.001675 490.63834 617.67969
585.0 0.001709 490.58142 620.05231
600.0 0.001667 490.52448 622.49677
617.0 0.001621 490.46756 625.01611
615.0 0.001626 490.41077 627.61334
619.0 0.001616 490.35403 630.29163
627.0 0.001595 490.29736 633.05438
648.0 0.001543 490.24060 635.90466
644.0 0.001553 490.18414 638.84674
632.0 0.001582 490.12762 641.88403
617.0 0.001621 490.07129 645.02087
586.0 0.001706 490.01495 648.26117
588.0 0.001701 489.95868 651.60956
584.0 0.001712 489.90244 655.07123
595.0 0.001681 489.84634 658.65057
632.0 0.001582 489.79025 662.35321
614.0 0.001629 489.73431 666.18488
638.0 0.001567 489.67838 670.15131
645.0 0.001550 489.62256 673.59637
634.0 0.001577 489.56671 677.85632
632.0 0.001582 489.51111 682.27106
617.0 0.001621 489.45547 686.84778
639.0 0.001565 489.39984 691.59473
644.0 0.001553 489.34439 696.52057
617.0 0.001621 489.28906 701.63385
621.0 0.001610 489.23370 706.94440
633.0 0.001580 489.17844 712.46301
627.0 0.001595 489.12317 718.19995
644.0 0.001553 489.06818 724.16797
637.0 0.001570 489.01309 730.37939
658.0 0.001520 488.95810 736.84827
683.0 0.001464 488.90320 743.58954
677.0 0.001477 488.84845 750.62012
699.0 0.001431 488.79373 757.95734
706.0 0.001416 488.73886 765.62109
697.0 0.001435 488.68439 773.63324
678.0 0.001475 488.62985 782.01746
672.0 0.001488 488.57538 790.80042
676.0 0.001479 488.52103 800.01208
713.0 0.001403 488.46677 809.68500
731.0 0.001368 488.41251 819.85663
747.0 0.001339 488.35846 830.56897
770.0 0.001299 488.30426 841.86920
792.0 0.001263 488.25024 853.81036
823.0 0.001215 488.19632 866.45343
830.0 0.001205 488.14258 879.86658
859.0 0.001164 488.08878 894.12811
858.0 0.001166 488.03506 909.32593
850.0 0.001176 487.98145 925.56055
894.0 0.001119 487.92801 942.94507
896.0 0.001116 487.87442 961.60815
909.0 0.001100 487.82104 981.69458
921.0 0.001086 487.76767 1003.36749
944.0 0.001059 487.71451 1026.80994
962.0 0.001040 487.66150 1052.22693
1009.0 0.000991 487.60834 1079.84668
1031.0 0.000970 487.55533 1109.92261
1087.0 0.000920 487.50238 1142.73486
1128.0 0.000887 487.44949 1178.59106
1129.0 0.000886 487.39667 1217.82837
1193.0 0.000838 487.34421 1260.81226
1223.0 0.000818 487.29156 1307.93860
1240.0 0.000806 487.23886 1359.63232
1248.0 0.000801 487.18661 1416.34607
1368.0 0.000731 487.13412 1478.55835
1410.0 0.000709 487.08188 1546.77258
1496.0 0.000668 487.02969 1621.51086
1571.0 0.000637 486.97754 1703.31128
1650.0 0.000606 486.92548 1792.72021
1749.0 0.000572 486.87350 1890.28784
1895.0 0.000528 486.82147 1996.55750
1980.0 0.000505 486.76984 2112.05615
2145.0 0.000466 486.71799 2237.28442
2306.0 0.000434 486.66638 2372.70264
2428.0 0.000412 486.61472 2518.71533
2475.0 0.000404 486.56332 2675.65576
2690.0 0.000372 486.51196 2843.76855
2794.0 0.000358 486.46066 3023.18750
2953.0 0.0003386 486.40933 3213.91455
3120.0 0.0003205 486.35815 3415.79907
3402.0 0.0002939 486.30704 3628.50879
3680.0 0.0002717 486.25613 3851.51221
3874.0 0.0002581 486.20511 4084.05249
4119.0 0.0002428 486.15427 4325.13184
4306.0 0.0002322 486.10342 4573.49805
4575.0 0.0002186 486.05292 4827.63525
4853.0 0.0002061 486.00229 5085.77393
5096.0 0.0001962 485.95169 5345.89355
5541.0 0.0001805 485.90131 5605.74805
5975.0 0.0001674 485.85095 5862.87451
6237.0 0.0001603 485.80072 6114.62354
6440.0 0.0001553 485.75046 6358.15576
6625.0 0.0001509 485.70047 6590.45752
6852.0 0.0001459 485.65036 6808.33398
7201.0 0.0001389 485.60040 7008.42334
7355.0 0.0001360 485.55051 7187.22461
7397.0 0.0001352 485.50082 7341.16699
7604.0 0.0001315 485.45120 7466.73047
7570.0 0.0001321 485.40164 7560.61768
7627.0 0.0001311 485.35202 7619.96387
7512.0 0.0001331 485.30267 7642.56885
7397.0 0.0001352 485.25320 7627.10254
7370.0 0.0001357 485.20389 7573.26270
7411.0 0.0001349 485.15482 7481.85205
7263.0 0.0001377 485.10571 7354.75439
7078.0 0.0001413 485.05664 7195.84766
6823.0 0.0001466 485.00778 7006.69727
6564.0 0.0001523 484.95892 6792.49414
6279.0 0.0001593 484.91010 6557.69629
6051.0 0.0001653 484.86148 6306.82373
5719.0 0.0001749 484.81287 6044.26709
5429.0 0.0001842 484.76437 5774.13330
5124.0 0.0001952 484.71594 5500.15625
4830.0 0.0002070 484.66757 5225.63281
4570.0 0.0002188 484.61942 4953.41211
4294.0 0.0002329 484.57129 4685.90332
4049.0 0.0002470 484.52313 4425.09619
3808.0 0.0002626 484.47513 4172.60107
3445.0 0.0002903 484.42728 3929.69043
3212.0 0.0003113 484.37943 3697.33105
2992.0 0.0003342 484.33173 3476.22705
2772.0 0.000361 484.28415 3266.85205
2676.0 0.000374 484.23663 3069.48047
2508.0 0.000399 484.18903 2884.21411
2421.0 0.000413 484.14172 2711.00610
2165.0 0.000462 484.09433 2549.68384
2026.0 0.000494 484.04724 2399.96826
1942.0 0.000515 484.00006 2261.49048
1811.0 0.000552 483.95303 2133.81079
1692.0 0.000591 483.90607 2016.43286
1569.0 0.000637 483.85913 1908.81702
1517.0 0.000659 483.81238 1810.39404
1442.0 0.000693 483.76575 1720.57727
1384.0 0.000723 483.71924 1638.77173
1335.0 0.000749 483.67261 1564.38501
1257.0 0.000796 483.62613 1496.83374
1216.0 0.000822 483.57986 1435.55066
1208.0 0.000828 483.53369 1379.99207
1137.0 0.000880 483.48749 1329.63879
1135.0 0.000881 483.44144 1284.00232
1105.0 0.000905 483.39542 1242.62610
1056.0 0.000947 483.34955 1205.08655
1014.0 0.000986 483.30380 1170.99377
986.0 0.001014 483.25800 1139.99182
985.0 0.001015 483.21234 1111.75696
966.0 0.001035 483.16690 1085.99780
928.0 0.001078 483.12143 1062.45251
909.0 0.001100 483.07614 1040.88757
903.0 0.001107 483.03085 1021.09552
894.0 0.001119 482.98575 1002.89319
901.0 0.001110 482.94058 986.11963
906.0 0.001104 482.89557 970.63306
868.0 0.001152 482.85056 956.30981
889.0 0.001125 482.80591 943.04211
857.0 0.001167 482.76117 930.73688
861.0 0.001161 482.71643 919.31232
873.0 0.001145 482.67206 908.69879
844.0 0.001185 482.62750 898.83508
802.0 0.001247 482.58307 889.66937
811.0 0.001233 482.53882 881.15674
796.0 0.001256 482.49460 873.25903
746.0 0.001340 482.45056 865.94342
770.0 0.001299 482.40662 859.18237
810.0 0.001235 482.36255 852.95300
812.0 0.001232 482.31885 847.23663
789.0 0.001267 482.27521 842.01819
776.0 0.001289 482.23138 837.28613
763.0 0.001311 482.18790 833.03253
761.0 0.001314 482.14450 829.25256
769.0 0.001300 482.10110 825.94495
736.0 0.001359 482.05771 823.11090
756.0 0.001323 482.01453 820.75574
751.0 0.001332 481.97162 818.88812
763.0 0.001311 481.92847 817.51959
780.0 0.001282 481.88553 816.66595
780.0 0.001282 481.84277 816.34650
789.0 0.001267 481.79996 816.58478
776.0 0.001289 481.75742 817.40839
783.0 0.001277 481.71478 818.84949
789.0 0.001267 481.67245 820.94507
824.0 0.001214 481.63007 823.73639
853.0 0.001172 481.58774 827.26996
853.0 0.001172 481.54550 831.59766
871.0 0.001148 481.50351 836.77600
840.0 0.001190 481.46155 842.86700
816.0 0.001225 481.41962 849.93781
827.0 0.001209 481.37784 858.06036
846.0 0.001182 481.33621 867.31128
845.0 0.001183 481.29456 877.77209
860.0 0.001163 481.25299 889.52777
876.0 0.001142 481.21152 902.66675
897.0 0.001115 481.17029 917.28052
880.0 0.001136 481.12909 933.46179
872.0 0.001147 481.08792 951.30426
863.0 0.001159 481.04669 970.90082
865.0 0.001156 481.00586 992.34277
867.0 0.001153 480.96503 1015.71783
913.0 0.001095 480.92426 1041.10791
948.0 0.001055 480.88345 1068.58752
984.0 0.001016 480.84283 1098.22180
976.0 0.001025 480.80240 1130.06274
1031.0 0.000970 480.76202 1164.14746
1085.0 0.000922 480.72171 1200.49414
1126.0 0.000888 480.68137 1239.09924
1154.0 0.000867 480.64139 1279.93408
1180.0 0.000847 480.60135 1322.93921
1253.0 0.000798 480.56143 1368.02161
1263.0 0.000792 480.52164 1415.05176
1279.0 0.000782 480.48178 1463.85706
1362.0 0.000734 480.44220 1514.22205
1434.0 0.000697 480.40259 1565.88257
1504.0 0.000665 480.36316 1618.52661
1577.0 0.000634 480.32379 1671.79346
1606.0 0.000623 480.28445 1725.27393
1684.0 0.000594 480.24533 1778.51318
1772.0 0.000564 480.20624 1831.01196
1803.0 0.000555 480.16730 1882.23157
1840.0 0.000543 480.12842 1931.59412
1926.0 0.000519 480.08960 1978.48730
1942.0 0.000515 480.05087 2022.26819
2007.0 0.000498 480.01239 2062.26807
2108.0 0.000474 479.97382 2097.80420
2257.0 0.000443 479.93533 2128.19604
2205.0 0.000454 479.89694 2152.78589
2238.0 0.000447 479.85883 2170.96997
2280.0 0.000439 479.82065 2182.23315
2315.0 0.000432 479.78259 2186.18359
2207.0 0.000453 479.74469 2182.58472
2193.0 0.000456 479.70682 2171.38062
2211.0 0.000452 479.66901 2152.70728
2219.0 0.000451 479.63138 2126.89038
2168.0 0.000461 479.59375 2094.43018
2113.0 0.000473 479.55646 2055.96924
2089.0 0.000479 479.51901 2012.25867
1965.0 0.000509 479.48169 1964.11682
1866.0 0.000536 479.44449 1912.38867
1783.0 0.000561 479.40756 1857.91089
1711.0 0.000584 479.37054 1801.48267
1687.0 0.000593 479.33374 1743.84485
1585.0 0.000631 479.29681 1685.66626
1524.0 0.000656 479.26010 1627.53613
1476.0 0.000678 479.22339 1569.96362
1392.0 0.000718 479.18707 1513.37854
1287.0 0.000777 479.15063 1458.13843
1200.0 0.000833 479.11426 1404.53271
1169.0 0.000855 479.07813 1352.79199
1168.0 0.000856 479.04193 1303.09241
1122.0 0.000891 479.00592 1255.56531
1055.0 0.000948 478.97003 1210.30164
1000.0 0.001000 478.93414 1167.35681
968.0 0.001033 478.89841 1126.75769
907.0 0.001103 478.86279 1088.50476
879.0 0.001138 478.82718 1052.57703
855.0 0.001170 478.79181 1018.93585
812.0 0.001232 478.75638 987.52588
801.0 0.001248 478.72122 958.28009
781.0 0.001280 478.68607 931.12152
753.0 0.001328 478.65094 905.96466
742.0 0.001348 478.61597 882.71826
748.0 0.001337 478.58115 861.28735
760.0 0.001316 478.54636 841.57458
775.0 0.001290 478.51169 823.48181
718.0 0.001393 478.47723 806.91138
711.0 0.001406 478.44269 791.76801
695.0 0.001439 478.40823 777.95850
675.0 0.001481 478.37399 765.39410
663.0 0.001508 478.33960 753.99048
658.0 0.001520 478.30576 743.66815
670.0 0.001493 478.27170 734.35345
657.0 0.001522 478.23776 725.97809
655.0 0.001527 478.20401 718.48016
683.0 0.001464 478.17026 711.80365
682.0 0.001466 478.13672 705.89844
691.0 0.001447 478.10315 700.72040
656.0 0.001524 478.06976 696.23083
630.0 0.001587 478.03644 692.39624
638.0 0.001567 478.00327 689.18866
628.0 0.001592 477.97006 686.58362
620.0 0.001613 477.93719 684.56128
616.0 0.001623 477.90405 683.10535
625.0 0.001600 477.87128 682.20215
649.0 0.001541 477.83856 681.84076
638.0 0.001567 477.80597 682.01123
654.0 0.001529 477.77335 682.70557
634.0 0.001577 477.74097 683.91608
623.0 0.001605 477.70868 685.63422
615.0 0.001626 477.67642 687.85132
651.0 0.001536 477.64432 690.55646
655.0 0.001527 477.61218 693.73651
730.0 0.001370 477.58029 697.37469
715.0 0.001399 477.54834 701.45044
677.0 0.001477 477.51660 705.93884
686.0 0.001458 477.48505 710.80865
699.0 0.001431 477.45337 716.02295
711.0 0.001406 477.42197 721.53845
699.0 0.001431 477.39069 727.30365
720.0 0.001389 477.35931 733.26086
729.0 0.001372 477.32806 739.34528
755.0 0.001325 477.29697 745.48456
736.0 0.001359 477.26605 751.60040
740.0 0.001351 477.23520 757.60876
742.0 0.001348 477.20447 763.41913
819.0 0.001221 477.17380 768.93610
821.0 0.001218 477.14316 774.06012
829.0 0.001206 477.11258 778.68750
854.0 0.001171 477.08218 782.71179
838.0 0.001193 477.05194 786.02655
843.0 0.001186 477.02170 789.81464
826.0 0.001211 476.99164 791.41541
854.0 0.001171 476.96167 792.02484
845.0 0.001183 476.93176 791.57874
814.0 0.001229 476.90189 790.03699
900.0 0.001111 476.87222 787.38782
846.0 0.001182 476.84274 783.64917
811.0 0.001233 476.81314 778.86951
794.0 0.001259 476.78363 773.12372
781.0 0.001280 476.75430 766.51013
758.0 0.001319 476.72513 759.14313
751.0 0.001332 476.69598 751.14764
721.0 0.001387 476.66699 742.65216
694.0 0.001441 476.63809 733.78387
693.0 0.001443 476.60928 724.66309
687.0 0.001456 476.58060 715.40167
689.0 0.001451 476.55194 706.09900
712.0 0.001404 476.52344 696.84302
688.0 0.001453 476.49484 687.70917
664.0 0.001506 476.46652 678.76031
666.0 0.001502 476.43835 670.04883
638.0 0.001567 476.41016 661.61652
636.0 0.001572 476.38223 653.49652
620.0 0.001613 476.35422 645.71387
624.0 0.001603 476.32645 638.28699
591.0 0.001692 476.29861 631.22711
598.0 0.001672 476.27090 624.54175
614.0 0.001629 476.24329 618.23273
613.0 0.001631 476.21597 612.29852
608.0 0.001645 476.18860 606.73431
597.0 0.001675 476.16125 601.53223
603.0 0.001658 476.13409 596.68213
594.0 0.001684 476.10696 592.17200
595.0 0.001681 476.08008 587.98853
592.0 0.001689 476.05313 584.11664
594.0 0.001684 476.02634 580.54108
592.0 0.001689 475.99976 577.24542
573.0 0.001745 475.97321 574.21362
584.0 0.001712 475.94669 571.42889
608.0 0.001645 475.92029 568.87518
601.0 0.001664 475.89401 566.53662
601.0 0.001664 475.86780 564.39795
599.0 0.001669 475.84177 562.44409
610.0 0.001639 475.81564 560.66138
629.0 0.001590 475.78983 559.03632
631.0 0.001585 475.76398 557.55676
655.0 0.001527 475.73822 556.21161
668.0 0.001497 475.71262 554.98993
665.0 0.001504 475.68723 553.88220
624.0 0.001603 475.66168 552.88007
686.0 0.001458 475.63647 551.97540
648.0 0.001543 475.61124 551.16162
620.0 0.001613 475.58606 550.43207
641.0 0.001560 475.56107 549.78168
660.0 0.001515 475.53607 549.20563
646.0 0.001548 475.51132 548.70007
638.0 0.001567 475.48663 548.26129
643.0 0.001555 475.46194 547.88672
657.0 0.001522 475.43735 547.57391
647.0 0.001546 475.41287 547.32104
621.0 0.001610 475.38861 547.12695
612.0 0.001634 475.36435 546.99048
617.0 0.001621 475.34015 546.91138
606.0 0.001650 475.31610 546.88940
595.0 0.001681 475.29214 546.92529
594.0 0.001684 475.26834 547.01935
599.0 0.001669 475.24457 547.17303
623.0 0.001605 475.22086 547.38800
576.0 0.001736 475.19727 547.66650
577.0 0.001733 475.17386 548.01080
571.0 0.001751 475.15060 548.42450
575.0 0.001739 475.12723 548.91119
613.0 0.001631 475.10406 549.47571
586.0 0.001706 475.08090 550.12274
566.0 0.001767 475.05795 550.85883
560.0 0.001786 475.03503 551.69128
547.0 0.001828 475.01221 552.62793
574.0 0.001742 474.98944 553.67822
562.0 0.001779 474.96707 554.85278
546.0 0.001832 474.94434 556.16406
572.0 0.001748 474.92197 557.62561
557.0 0.001795 474.89972 559.25287
574.0 0.001742 474.87741 561.06342
580.0 0.001724 474.85519 563.07654
564.0 0.001773 474.83334 565.31421
568.0 0.001761 474.81140 568.41785
559.0 0.001789 474.78952 571.18219
549.0 0.001821 474.76779 574.25018
561.0 0.001783 474.74622 577.65338
576.0 0.001736 474.72470 581.42535
579.0 0.001727 474.70328 585.60297
593.0 0.001686 474.68185 590.22504
604.0 0.001656 474.66055 595.33319
598.0 0.001672 474.63940 600.97009
610.0 0.001639 474.61832 607.18103
627.0 0.001595 474.59735 614.01245
624.0 0.001603 474.57660 621.51178
647.0 0.001546 474.55588 629.72626
626.0 0.001597 474.53506 638.70343
663.0 0.001508 474.51453 648.48907
698.0 0.001433 474.49405 659.12720
679.0 0.001473 474.47354 670.65875
688.0 0.001453 474.45319 683.12036
709.0 0.001410 474.43307 696.54297
723.0 0.001383 474.41302 710.95062
725.0 0.001379 474.39291 727.06500
750.0 0.001333 474.37299 743.48340
794.0 0.001259 474.35324 760.90106
806.0 0.001241 474.33353 779.29712
809.0 0.001236 474.31384 798.63495
852.0 0.001174 474.29425 818.86005
867.0 0.001153 474.27490 839.89832
892.0 0.001121 474.25555 861.65387
905.0 0.001105 474.23621 884.41345
924.0 0.001082 474.21713 907.22760
966.0 0.001035 474.19815 930.33417
999.0 0.001001 474.17914 953.54529
985.0 0.001015 474.16016 976.65143
1009.0 0.000991 474.14157 999.42310
1091.0 0.000917 474.12280 1021.61163
1118.0 0.000894 474.10413 1042.95227
1118.0 0.000894 474.08572 1063.16431
1167.0 0.000857 474.06729 1081.95386
1182.0 0.000846 474.04889 1099.01648
1181.0 0.000847 474.03073 1103.07861
1194.0 0.000838 474.01266 1115.82532
1205.0 0.000830 473.99454 1125.93323
1221.0 0.000819 473.97668 1133.13708
1253.0 0.000798 473.95886 1137.21826
1256.0 0.000796 473.94113 1138.02124
1236.0 0.000809 473.92340 1135.46875
1220.0 0.000820 473.90591 1129.57227
1156.0 0.000865 473.88843 1120.43457
1142.0 0.000876 473.87112 1108.24512
1135.0 0.000881 473.85382 1093.26929
1157.0 0.000864 473.83661 1075.83032
1118.0 0.000894 473.81961 1056.29236
1049.0 0.000953 473.80264 1035.03772
1023.0 0.000978 473.78571 1012.45001
980.0 0.001020 473.76889 988.89941
959.0 0.001043 473.75214 964.73083
933.0 0.001072 473.73557 940.25690
928.0 0.001078 473.71906 915.75446
922.0 0.001085 473.70264 891.46222
904.0 0.001106 473.68631 867.58337
844.0 0.001185 473.66995 844.28632
795.0 0.001258 473.65390 821.70819
785.0 0.001274 473.63766 799.95831
788.0 0.001269 473.62177 779.12054
788.0 0.001269 473.60605 759.25690
749.0 0.001335 473.59024 740.41022
707.0 0.001414 473.57449 722.60614
681.0 0.001468 473.55899 705.85590
673.0 0.001486 473.54343 690.15820
634.0 0.001577 473.52805 675.50024
625.0 0.001600 473.51282 661.86084
637.0 0.001570 473.49753 649.20996
610.0 0.001639 473.48242 637.51227
593.0 0.001686 473.46738 626.72650
570.0 0.001754 473.45236 616.80750
574.0 0.001742 473.43759 607.70770
614.0 0.001629 473.42276 599.37738
595.0 0.001681 473.40814 591.76575
582.0 0.001718 473.39352 584.82184
553.0 0.001808 473.37894 578.49542
529.0 0.001890 473.36462 572.73743
528.0 0.001894 473.35034 567.50024
535.0 0.001869 473.33615 562.73834
548.0 0.001825 473.32202 558.40833
572.0 0.001748 473.30795 554.46997
545.0 0.001835 473.29404 550.88483
561.0 0.001783 473.28015 547.61841
541.0 0.001848 473.26636 544.63831
518.0 0.001931 473.25278 541.91504
512.0 0.001953 473.23914 539.42157
525.0 0.001905 473.22565 537.13403
525.0 0.001905 473.21222 535.03076
532.0 0.001880 473.19901 533.09216
511.0 0.001957 473.18573 531.30115
533.0 0.001876 473.17273 529.64227
533.0 0.001876 473.15958 528.10193
507.0 0.001972 473.14670 526.66858
536.0 0.001866 473.13388 525.33154
520.0 0.001923 473.12109 524.08154
502.0 0.001992 473.10849 522.91046
522.0 0.001916 473.09579 521.81134
511.0 0.001957 473.08334 520.77826
528.0 0.001894 473.07101 519.80542
535.0 0.001869 473.05862 518.88806
525.0 0.001905 473.04645 518.02240
542.0 0.001845 473.03433 517.20441
515.0 0.001942 473.02222 516.43097
514.0 0.001946 473.01035 515.69928
519.0 0.001927 472.99847 515.00641
506.0 0.001976 472.98660 514.35040
497.0 0.002012 472.97495 513.72919
490.0 0.002041 472.96329 513.14081
496.0 0.002016 472.95197 512.58356
490.0 0.002041 472.94046 512.05585
470.0 0.002128 472.92917 511.55649
483.0 0.002070 472.91785 511.08423
480.0 0.002083 472.90677 510.63757
493.0 0.002028 472.89575 510.21591
498.0 0.002008 472.88470 509.81790
491.0 0.002037 472.87390 509.44275
485.0 0.002062 472.86301 509.08960
502.0 0.001992 472.85236 508.75769
551.0 0.001815 472.84171 508.44659
530.0 0.001887 472.83121 508.15521
504.0 0.001984 472.82080 507.88318
505.0 0.001980 472.81042 507.62982
508.0 0.001969 472.80014 507.39471
516.0 0.001938 472.79001 507.17719
501.0 0.001996 472.77997 506.97714
476.0 0.002101 472.76993 506.79398
502.0 0.001992 472.75992 506.62726
493.0 0.002028 472.75009 506.47672
503.0 0.001988 472.74045 506.34210
499.0 0.002004 472.73077 506.22305
492.0 0.002033 472.72110 506.11948
491.0 0.002037 472.71170 506.03091
476.0 0.002101 472.70233 505.95752
499.0 0.002004 472.69302 505.89886
488.0 0.002049 472.68381 505.85495
498.0 0.002008 472.67465 505.82544
507.0 0.001972 472.66568 505.81061
491.0 0.002037 472.65674 505.81018
485.0 0.002062 472.64777 505.82431
497.0 0.002012 472.63901 505.85260
513.0 0.001949 472.63025 505.89554
512.0 0.001953 472.62167 505.95282
485.0 0.002062 472.61313 506.02466
502.0 0.001992 472.60474 506.11111
490.0 0.002041 472.59631 506.21222
492.0 0.002033 472.58804 506.32822
494.0 0.002024 472.57986 506.45941
487.0 0.002053 472.57187 506.60571
488.0 0.002049 472.56378 506.76749
507.0 0.001972 472.55585 506.94504
528.0 0.001894 472.54800 507.13855
543.0 0.001842 472.54025 507.34824
504.0 0.001984 472.53253 507.57446
501.0 0.001996 472.52499 507.81778
488.0 0.002049 472.51736 508.07837
489.0 0.002045 472.50998 508.35693
489.0 0.002045 472.50266 508.65359
489.0 0.002045 472.49542 508.96899
501.0 0.001996 472.48822 509.30389
510.0 0.001961 472.48114 509.65860
503.0 0.001988 472.47415 510.03375
501.0 0.001996 472.46722 507.25455
499.0 0.002004 472.46045 507.69208
514.0 0.001946 472.45374 508.15198
510.0 0.001961 472.44705 508.63547
512.0 0.001953 472.44052 509.14331
507.0 0.001972 472.43390 509.67648
513.0 0.001949 472.42755 510.23615
512.0 0.001953 472.42123 510.82285
520.0 0.001923 472.41489 511.43896
508.0 0.001969 472.40863 512.08545
512.0 0.001953 472.40271 512.76367
521.0 0.001919 472.39667 513.47546
542.0 0.001845 472.39072 514.22229
537.0 0.001862 472.38498 515.00659
519.0 0.001927 472.37912 515.83032
530.0 0.001887 472.37344 516.69598
524.0 0.001908 472.36789 517.60632
524.0 0.001908 472.36240 518.56439
521.0 0.001919 472.35699 519.57349
517.0 0.001934 472.35162 520.63770
513.0 0.001949 472.34641 521.76117
519.0 0.001927 472.34109 522.94836
531.0 0.001883 472.33597 524.20490
515.0 0.001942 472.33105 525.53717
500.0 0.002000 472.32617 526.95166
498.0 0.002008 472.32126 528.45612
505.0 0.001980 472.31647 530.05963
538.0 0.001859 472.31174 531.77130
523.0 0.001912 472.30710 533.60278
531.0 0.001883 472.30261 535.56592
527.0 0.001898 472.29828 537.67456
534.0 0.001873 472.29379 539.94427
532.0 0.001880 472.28946 542.39172
521.0 0.001919 472.28534 545.03619
524.0 0.001908 472.28122 547.89807
544.0 0.001838 472.27722 551.00092
539.0 0.001855 472.27310 554.36932
535.0 0.001869 472.26932 558.03088
528.0 0.001894 472.26544 562.06561
541.0 0.001848 472.26175 566.40466
564.0 0.001773 472.25806 573.80005
575.0 0.001739 472.25455 578.96973
552.0 0.001812 472.25101 584.60345
544.0 0.001838 472.24768 590.74164
545.0 0.001835 472.24426 597.42670
575.0 0.001739 472.24103 604.70239
579.0 0.001727 472.23785 612.61346
590.0 0.001695 472.23477 621.20508
599.0 0.001669 472.23175 630.52277
616.0 0.001623 472.22867 640.61127
643.0 0.001555 472.22589 651.51465
679.0 0.001473 472.22305 663.27393
694.0 0.001441 472.22046 675.92816
674.0 0.001484 472.21790 689.51202
655.0 0.001527 472.21527 708.14777
687.0 0.001456 472.21283 723.70374
696.0 0.001437 472.21033 740.25909
702.0 0.001425 472.20816 757.82050
736.0 0.001359 472.20575 776.38446
779.0 0.001284 472.20364 795.93506
804.0 0.001244 472.20151 816.44226
802.0 0.001247 472.19949 837.86035
850.0 0.001176 472.19754 860.12573
914.0 0.001094 472.19568 883.15582
924.0 0.001082 472.19394 906.84589
940.0 0.001064 472.19226 931.07050
965.0 0.001036 472.19067 955.68018
992.0 0.001008 472.18915 980.50226
1057.0 0.000946 472.18753 1005.34100
1064.0 0.000940 472.18619 1029.97888
1052.0 0.000951 472.18478 1054.17627
1077.0 0.000929 472.18362 1077.67578
1109.0 0.000902 472.18243 1100.20178
1172.0 0.000853 472.18137 1121.46460
1219.0 0.000820 472.18027 1141.16235
1235.0 0.000810 472.17935 1160.04871
1273.0 0.000786 472.17850 1175.69775
1271.0 0.000787 472.17767 1188.86499
1226.0 0.000816 472.17688 1199.27002
1221.0 0.000819 472.17633 1206.66711
1209.0 0.000827 472.17563 1210.85986
1252.0 0.000799 472.17529 1211.71643
1258.0 0.000795 472.17487 1209.18066
1254.0 0.000797 472.17438 1203.28003
1246.0 0.000803 472.17416 1193.71887
1225.0 0.000816 472.17389 1181.51001
1169.0 0.000855 472.17383 1166.50415
1163.0 0.000860 472.17386 1149.01855
1108.0 0.000903 472.17383 1129.40637
1037.0 0.000964 472.17380 1108.03979
1038.0 0.000963 472.17404 1085.29321
986.0 0.001014 472.17422 1061.52942
966.0 0.001035 472.17459 1037.08911
940.0 0.001064 472.17496 1012.28284
901.0 0.001110 472.17545 987.38818
877.0 0.001140 472.17603 962.64771
854.0 0.001171 472.17654 938.26880
813.0 0.001230 472.17725 914.42651
791.0 0.001264 472.17801 891.26489
779.0 0.001284 472.17874 868.90143
739.0 0.001353 472.17972 847.42828
733.0 0.001364 472.18073 826.91644
718.0 0.001393 472.18158 807.41754
667.0 0.001499 472.18277 788.96747
639.0 0.001565 472.18402 771.58691
657.0 0.001522 472.18506 755.28491
630.0 0.001587 472.18652 740.05920
622.0 0.001608 472.18784 725.89899
624.0 0.001603 472.18930 712.78522
613.0 0.001631 472.19070 700.69342
609.0 0.001642 472.19238 689.59308
605.0 0.001653 472.19400 679.45038
615.0 0.001626 472.19577 670.22845
621.0 0.001610 472.19766 661.88861
616.0 0.001623 472.19949 654.39038
611.0 0.001637 472.20145 647.69440
600.0 0.001667 472.20343 641.76129
578.0 0.001730 472.20560 636.55286
585.0 0.001709 472.20770 632.03314
614.0 0.001629 472.21002 628.16864
611.0 0.001637 472.21237 624.92871
592.0 0.001689 472.21466 622.28607
605.0 0.001653 472.21704 620.21704
593.0 0.001686 472.21951 618.70203
581.0 0.001721 472.22214 617.72516
596.0 0.001678 472.22476 617.27509
569.0 0.001757 472.22745 617.34418
580.0 0.001724 472.23022 617.92981
549.0 0.001821 472.23309 619.03217
557.0 0.001795 472.23608 620.65674
568.0 0.001761 472.23895 622.81183
583.0 0.001715 472.24203 625.50964
609.0 0.001642 472.24512 628.76495
660.0 0.001515 472.24835 632.59662
652.0 0.001534 472.25150 637.02502
639.0 0.001565 472.25485 642.07263
622.0 0.001608 472.25830 647.76337
633.0 0.001580 472.26172 654.12250
652.0 0.001534 472.26529 661.17529
667.0 0.001499 472.26883 668.94653
676.0 0.001479 472.27246 677.46033
657.0 0.001522 472.27628 686.73853
691.0 0.001447 472.27994 696.80054
729.0 0.001372 472.28381 707.66187
718.0 0.001393 472.28775 719.33374
747.0 0.001339 472.29175 731.82135
752.0 0.001330 472.29578 745.12262
751.0 0.001332 472.29980 759.22833
774.0 0.001292 472.30396 774.11926
820.0 0.001220 472.30820 789.76569
816.0 0.001225 472.31268 806.12720
852.0 0.001174 472.31686 823.15021
876.0 0.001142 472.32135 840.76819
919.0 0.001088 472.32587 858.90192
974.0 0.001027 472.33038 877.45831
978.0 0.001022 472.33511 896.33093
963.0 0.001038 472.33969 915.40149
996.0 0.001004 472.34442 934.53876
982.0 0.001018 472.34927 953.60095
1014.0 0.000986 472.35422 972.43567
1059.0 0.000944 472.35910 990.88196
1054.0 0.000949 472.36407 1008.77197
1108.0 0.000903 472.36920 1025.93494
1118.0 0.000894 472.37439 1042.20117
1079.0 0.000927 472.37955 1057.40991
1105.0 0.000905 472.38477 1071.41614
1108.0 0.000903 472.39020 1084.09875
1141.0 0.000876 472.39557 1095.36792
1141.0 0.000876 472.40094 1105.17102
1159.0 0.000863 472.40649 1113.49280
1190.0 0.000840 472.41202 1120.35657
1224.0 0.000817 472.41769 1125.81543
1258.0 0.000795 472.42343 1129.94702
1220.0 0.000820 472.42914 1132.84204
1199.0 0.000834 472.43500 1134.59448
1161.0 0.000861 472.44080 1135.29199
1138.0 0.000879 472.44678 1135.00732
1137.0 0.000880 472.45279 1133.79297
1171.0 0.000854 472.45883 1131.67749
1163.0 0.000860 472.46503 1128.66370
1180.0 0.000847 472.47125 1124.73047
1159.0 0.000863 472.47745 1119.83655
1150.0 0.000870 472.48370 1113.92346
1108.0 0.000903 472.49014 1106.92590
1109.0 0.000902 472.49652 1098.77759
1083.0 0.000923 472.50302 1089.42212
1073.0 0.000932 472.50958 1078.82385
1035.0 0.000966 472.51614 1066.97327
1042.0 0.000960 472.52277 1053.89539
1013.0 0.000987 472.52957 1039.65161
994.0 0.001006 472.53641 1024.33960
986.0 0.001014 472.54324 1008.08917
940.0 0.001064 472.55008 991.05634
949.0 0.001054 472.55710 973.41461
927.0 0.001079 472.56409 955.34650
911.0 0.001098 472.57117 937.03534
867.0 0.001153 472.57831 918.65784
835.0 0.001198 472.58542 900.37909
826.0 0.001211 472.59280 882.34784
824.0 0.001214 472.60010 864.69543
823.0 0.001215 472.60739 847.53412
792.0 0.001263 472.61481 830.95862
781.0 0.001280 472.62234 815.04572
749.0 0.001335 472.62979 799.85718
743.0 0.001346 472.63745 785.44122
733.0 0.001364 472.64511 771.83307
700.0 0.001429 472.65286 759.05902
687.0 0.001456 472.66061 747.13599
714.0 0.001401 472.66846 736.07367
708.0 0.001412 472.67636 725.87628
694.0 0.001441 472.68423 715.51984
683.0 0.001464 472.69220 707.05231
689.0 0.001451 472.70032 699.43658
656.0 0.001524 472.70837 692.66199
695.0 0.001439 472.71655 686.71655
688.0 0.001453 472.72476 681.58667
674.0 0.001484 472.73303 677.25781
670.0 0.001493 472.74136 673.71515
676.0 0.001479 472.74982 670.94330
662.0 0.001511 472.75809 668.92627
641.0 0.001560 472.76663 667.64923
636.0 0.001572 472.77518 667.09656
651.0 0.001536 472.78375 667.25317
648.0 0.001543 472.79245 668.10455
640.0 0.001563 472.80115 669.63531
638.0 0.001567 472.80988 671.83044
632.0 0.001582 472.81873 674.67505
665.0 0.001504 472.82761 678.15277
684.0 0.001462 472.83658 682.24689
678.0 0.001475 472.84549 686.93872
681.0 0.001468 472.85446 692.20825
640.0 0.001563 472.86356 698.03253
650.0 0.001538 472.87274 704.38538
649.0 0.001541 472.88193 711.23773
668.0 0.001497 472.89124 718.55499
685.0 0.001460 472.90039 726.29791
705.0 0.001418 472.90988 734.42163
729.0 0.001372 472.91919 742.87451
742.0 0.001348 472.92862 751.59808
770.0 0.001299 472.93820 760.52679
801.0 0.001248 472.94775 769.58728
790.0 0.001266 472.95724 778.69910
769.0 0.001300 472.96689 787.77441
757.0 0.001321 472.97668 796.71863
763.0 0.001311 472.98642 805.43121
818.0 0.001222 472.99615 813.80627
812.0 0.001232 473.00616 821.73395
841.0 0.001189 473.01599 829.10211
857.0 0.001167 473.02600 835.79858
853.0 0.001172 473.03589 841.71332
863.0 0.001159 473.04608 846.74304
865.0 0.001156 473.05615 850.79468
887.0 0.001127 473.06628 853.79095
900.0 0.001111 473.07648 855.67419
889.0 0.001125 473.08673 856.41150
857.0 0.001167 473.09705 855.99762
829.0 0.001206 473.10742 854.45599
825.0 0.001212 473.11780 851.83881
853.0 0.001172 473.12836 848.22528
838.0 0.001193 473.13876 843.71552
847.0 0.001181 473.14932 838.42749
846.0 0.001182 473.15991 832.49017
853.0 0.001172 473.17062 826.03809
801.0 0.001248 473.18127 819.20551
817.0 0.001224 473.19211 812.12329
832.0 0.001202 473.20285 804.91412
802.0 0.001247 473.21371 797.69147
791.0 0.001264 473.22458 790.55817
766.0 0.001305 473.23553 783.60553
750.0 0.001333 473.24652 776.91443
746.0 0.001340 473.25754 770.55530
780.0 0.001282 473.26865 764.58960
811.0 0.001233 473.27972 759.07080
778.0 0.001285 473.29086 754.04572
752.0 0.001330 473.30215 749.55579
761.0 0.001314 473.31332 745.63812
744.0 0.001344 473.32468 742.32654
780.0 0.001282 473.33609 739.65363
794.0 0.001259 473.34750 737.65106
769.0 0.001300 473.35898 736.35022
763.0 0.001311 473.37042 735.78455
806.0 0.001241 473.38208 735.98956
790.0 0.001266 473.39362 737.00476
784.0 0.001276 473.40521 738.87384
809.0 0.001236 473.41693 741.64618
825.0 0.001212 473.42856 745.37799
838.0 0.001193 473.44034 750.13281
876.0 0.001142 473.45224 755.98285
878.0 0.001139 473.46402 763.00995
893.0 0.001120 473.47592 771.30585
921.0 0.001086 473.48792 780.97247
913.0 0.001095 473.49979 792.12445
934.0 0.001071 473.51196 804.88593
968.0 0.001033 473.52396 819.39343
997.0 0.001003 473.53613 835.79413
1008.0 0.000992 473.54819 854.24542
1023.0 0.000978 473.56049 874.91418
1053.0 0.000950 473.57266 897.97443
1034.0 0.000967 473.58511 923.60669
1090.0 0.000917 473.59726 951.99487
1103.0 0.000907 473.60974 983.32330
1156.0 0.000865 473.62210 1017.77405
1177.0 0.000850 473.63455 1055.52234
1261.0 0.000793 473.64722 1096.73352
1296.0 0.000772 473.65967 1141.55640
1368.0 0.000731 473.67221 1190.11963
1419.0 0.000705 473.68484 1242.52515
1459.0 0.000685 473.69760 1298.84229
1509.0 0.000663 473.71017 1359.10034
1576.0 0.000635 473.72296 1423.28333
1602.0 0.000624 473.73581 1491.32007
1661.0 0.000602 473.74860 1563.07837
1699.0 0.000589 473.76151 1638.35815
1714.0 0.000583 473.77451 1716.88196
1776.0 0.000563 473.78738 1798.29041
1844.0 0.000542 473.80042 1882.13733
1890.0 0.000529 473.81342 1967.88574
1897.0 0.000527 473.82648 2054.90674
1967.0 0.000508 473.83951 2142.48389
2011.0 0.000497 473.85281 2229.81641
2066.0 0.000484 473.86600 2316.02515
2118.0 0.000472 473.87906 2400.16431
2268.0 0.000441 473.89246 2481.22900
2238.0 0.000447 473.90576 2558.16577
2331.0 0.000429 473.91907 2629.88745
2409.0 0.000415 473.93253 2695.28638
2385.0 0.000419 473.94595 2753.26343
2412.0 0.000415 473.95941 2802.76221
2403.0 0.000416 473.97290 2842.81519
2434.0 0.000411 473.98645 2872.60889
2431.0 0.000411 474.00000 2891.53979
2514.0 0.000398 474.01364 2899.28027
2481.0 0.000403 474.02737 2895.82104
2533.0 0.000395 474.04111 2881.49341
2523.0 0.000396 474.05475 2856.96362
2539.0 0.000394 474.06857 2823.19702
2555.0 0.000391 474.08231 2781.40308
2485.0 0.000402 474.09616 2732.96069
2496.0 0.000401 474.11005 2679.34473
2518.0 0.000397 474.12396 2622.05322
2491.0 0.000401 474.13791 2562.54663
2456.0 0.000407 474.15189 2502.20166
2406.0 0.000416 474.16595 2442.27856
2365.0 0.000423 474.18008 2383.90356
2302.0 0.000434 474.19412 2328.05884
2233.0 0.000448 474.20825 2275.58228
2331.0 0.000429 474.22238 2227.17212
2316.0 0.000432 474.23666 2183.39160
2312.0 0.000433 474.25089 2144.67798
2278.0 0.000439 474.26520 2111.34863
2255.0 0.000443 474.27951 2083.60815
2230.0 0.000448 474.29382 2061.55420
2250.0 0.000444 474.30823 2045.18384
2314.0 0.000432 474.32260 2034.39478
2249.0 0.000445 474.33704 2028.99292
2209.0 0.000453 474.35162 2028.69470
2144.0 0.000466 474.36606 2033.13147
2193.0 0.000456 474.38065 2041.85571
2254.0 0.000444 474.39517 2054.34595
2214.0 0.000452 474.40988 2070.01440
2169.0 0.000461 474.42444 2088.21338
2188.0 0.000457 474.43915 2108.24463
2279.0 0.000439 474.45386 2129.36890
2260.0 0.000442 474.46872 2150.81616
2361.0 0.000424 474.48340 2171.79688
2352.0 0.000425 474.49823 2191.51636
2374.0 0.000421 474.51321 2209.19067
2393.0 0.000418 474.52802 2224.06787
2484.0 0.000403 474.54297 2235.45264
2530.0 0.000395 474.55789 2242.73291
2536.0 0.000394 474.57294 2245.41089
2455.0 0.000407 474.58783 2243.12695
2500.0 0.000400 474.60291 2235.68701
2504.0 0.000399 474.61801 2223.06982
2459.0 0.000407 474.63309 2205.43408
2424.0 0.000413 474.64813 2183.10596
2305.0 0.000434 474.66342 2156.55859
2322.0 0.000431 474.67871 2126.38110
2285.0 0.000438 474.69382 2093.24609
2221.0 0.000450 474.70905 2057.86914
2214.0 0.000452 474.72446 2020.97803
2146.0 0.000466 474.73969 1983.28088
2076.0 0.000482 474.75507 1945.44263
1939.0 0.000516 474.77051 1908.06726
1881.0 0.000532 474.78583 1871.68616
1835.0 0.000545 474.80133 1836.75122
1811.0 0.000552 474.81671 1803.63354
1754.0 0.000570 474.83234 1772.62109
1723.0 0.000580 474.84778 1743.92188
1682.0 0.000595 474.86340 1717.66736
1697.0 0.000589 474.87900 1693.91577
1646.0 0.000608 474.89456 1672.65430
1556.0 0.000643 474.91019 1653.80627
1515.0 0.000660 474.92596 1637.23279
1516.0 0.000660 474.94165 1622.73975
1529.0 0.000654 474.95737 1610.08167
1502.0 0.000666 474.97302 1598.96741
1453.0 0.000688 474.98892 1589.06592
1429.0 0.000700 475.00482 1580.01208
1395.0 0.000717 475.02054 1571.41333
1383.0 0.000723 475.03644 1562.85608
1348.0 0.000742 475.05240 1553.91626
1318.0 0.000759 475.06818 1544.16956
1318.0 0.000759 475.08432 1533.20728
1339.0 0.000747 475.10028 1520.65198
1305.0 0.000766 475.11627 1506.17834
1270.0 0.000787 475.13232 1489.53064
1277.0 0.000783 475.14832 1470.53833
1266.0 0.000790 475.16437 1449.12830
1252.0 0.000799 475.18057 1425.32642
1272.0 0.000786 475.19666 1399.25342
1273.0 0.000786 475.21283 1371.11377
1235.0 0.000810 475.22906 1339.90210
1175.0 0.000851 475.24521 1308.49255
1127.0 0.000887 475.26147 1275.94287
1102.0 0.000907 475.27771 1242.59937
1098.0 0.000911 475.29407 1208.79993
1102.0 0.000907 475.31033 1174.86047
1082.0 0.000924 475.32681 1141.06824
1043.0 0.000959 475.34314 1107.67749
1002.0 0.000998 475.35953 1074.90796
969.0 0.001032 475.37595 1042.94507
952.0 0.001050 475.39240 1011.94208
906.0 0.001104 475.40891 982.02295
890.0 0.001124 475.42538 953.28448
859.0 0.001164 475.44189 925.79907
837.0 0.001195 475.45853 899.61853
785.0 0.001274 475.47488 874.77496
793.0 0.001261 475.49158 851.28381
773.0 0.001294 475.50812 829.14612
753.0 0.001328 475.52469 808.35004
743.0 0.001346 475.54147 788.87201
743.0 0.001346 475.55807 770.67944
732.0 0.001366 475.57483 753.73132
674.0 0.001484 475.59158 737.98022
634.0 0.001577 475.60828 723.37280
616.0 0.001623 475.62512 709.85211
629.0 0.001590 475.64185 697.35815
641.0 0.001560 475.65863 685.82880
625.0 0.001600 475.67551 675.20129
603.0 0.001658 475.69238 665.41315
604.0 0.001656 475.70929 656.40216
611.0 0.001637 475.72623 648.10809
581.0 0.001721 475.74307 640.47235
579.0 0.001727 475.76001 633.43939
592.0 0.001689 475.77704 626.95630
572.0 0.001748 475.79401 620.97333
574.0 0.001742 475.81097 615.44385
577.0 0.001733 475.82813 610.32520
571.0 0.001751 475.84509 605.57764
560.0 0.001786 475.86221 601.16455
566.0 0.001767 475.87915 597.05359
576.0 0.001736 475.89636 593.21466
565.0 0.001770 475.91342 589.62073
562.0 0.001779 475.93066 586.24811
561.0 0.001783 475.94781 583.07501
547.0 0.001828 475.96494 580.08234
553.0 0.001808 475.98218 577.25336
546.0 0.001832 475.99948 574.57269
558.0 0.001792 476.01666 572.02734
553.0 0.001808 476.03391 569.60541
533.0 0.001876 476.05112 567.29651
532.0 0.001880 476.06854 565.09180
523.0 0.001912 476.08588 562.98291
520.0 0.001923 476.10315 560.96265
523.0 0.001912 476.12064 559.02502
512.0 0.001953 476.13794 557.16418
521.0 0.001919 476.15543 555.37512
541.0 0.001848 476.17273 553.65344
540.0 0.001852 476.19016 551.99487
534.0 0.001873 476.20755 550.39606
505.0 0.001980 476.22507 548.85364
526.0 0.001901 476.24255 547.36444
504.0 0.001984 476.26013 545.92584
522.0 0.001916 476.27768 544.53528
532.0 0.001880 476.29520 543.19037
519.0 0.001927 476.31262 541.88910
522.0 0.001916 476.33020 540.62939
509.0 0.001965 476.34778 539.40930
494.0 0.002024 476.36548 538.22723
501.0 0.001996 476.38309 537.08124
498.0 0.002008 476.40054 535.97009
518.0 0.001931 476.41824 534.89227
507.0 0.001972 476.43600 533.84644
504.0 0.001984 476.45367 532.83112
511.0 0.001957 476.47147 531.84521
510.0 0.001961 476.48914 530.88763
507.0 0.001972 476.50684 529.95715
494.0 0.002024 476.52451 529.05280
489.0 0.002045 476.54230 528.17365
501.0 0.001996 476.56000 527.31842
493.0 0.002028 476.57800 526.48657
505.0 0.001980 476.59573 525.67725
506.0 0.001976 476.61353 524.88953
490.0 0.002041 476.63132 524.12268
500.0 0.002000 476.64911 523.37573
500.0 0.002000 476.66705 522.64825
485.0 0.002062 476.68497 521.32300
479.0 0.002088 476.70279 520.63605
509.0 0.001965 476.72076 519.96637
522.0 0.001916 476.73862 519.31360
493.0 0.002028 476.75656 518.67725
493.0 0.002028 476.77448 518.05640
496.0 0.002016 476.79245 517.45081
514.0 0.001946 476.81039 516.85986
509.0 0.001965 476.82846 516.28326
519.0 0.001927 476.84644 515.72034
498.0 0.002008 476.86444 515.17084
500.0 0.002000 476.88239 514.63428
494.0 0.002024 476.90042 514.11017
510.0 0.001961 476.91849 514.73560
491.0 0.002037 476.93649 514.24384
489.0 0.002045 476.95456 513.76331
477.0 0.002096 476.97260 513.29401
484.0 0.002066 476.99081 512.83551
491.0 0.002037 477.00897 512.38751
510.0 0.001961 477.02704 511.94968
527.0 0.001898 477.04510 510.81912
513.0 0.001949 477.06332 510.40518
506.0 0.001976 477.08148 510.00024
508.0 0.001969 477.09958 509.60468
493.0 0.002028 477.11774 509.21786
508.0 0.001969 477.13586 508.83963
506.0 0.001976 477.15414 508.46964
480.0 0.002083 477.17239 508.10785
479.0 0.002088 477.19058 507.75394
480.0 0.002083 477.20868 507.40768
487.0 0.002053 477.22699 507.06882
501.0 0.001996 477.24521 506.73743
503.0 0.001988 477.26340 506.41299
504.0 0.001984 477.28180 506.09558
497.0 0.002012 477.30005 505.78464
500.0 0.002000 477.31842 505.48047
503.0 0.001988 477.33658 505.18277
494.0 0.002024 477.35498 504.89124
523.0 0.001912 477.37323 504.60577
507.0 0.001972 477.39160 504.32632
494.0 0.002024 477.40988 504.05258
484.0 0.002066 477.42825 503.78455
485.0 0.002062 477.44659 503.52197
500.0 0.002000 477.46494 503.26495
512.0 0.001953 477.48331 503.01306
492.0 0.002033 477.50162 502.76633
469.0 0.002132 477.52008 502.52463
473.0 0.002114 477.53839 502.28781
484.0 0.002066 477.55688 502.05588
468.0 0.002137 477.57526 501.82867
461.0 0.002169 477.59357 501.60596
458.0 0.002183 477.61206 501.38773
477.0 0.002096 477.63037 501.17395
480.0 0.002083 477.64886 500.96445
485.0 0.002062 477.66733 500.75922
472.0 0.002119 477.68576 500.55807
483.0 0.002070 477.70419 500.36096
469.0 0.002132 477.72269 500.16785
486.0 0.002058 477.74109 499.97849
481.0 0.002079 477.75955 499.79297
489.0 0.002045 477.77817 499.61127
500.0 0.002000 477.79660 499.43301
494.0 0.002024 477.81500 499.25851
475.0 0.002105 477.83356 499.08725
462.0 0.002165 477.85202 498.91971
458.0 0.002183 477.87054 498.75534
463.0 0.002160 477.88904 498.59442
475.0 0.002105 477.90759 498.43668
481.0 0.002079 477.92612 498.28207
472.0 0.002119 477.94461 498.13052
498.0 0.002008 477.96313 499.98779
483.0 0.002070 477.98166 499.85266
490.0 0.002041 478.00021 499.72052
479.0 0.002088 478.01886 499.59149
485.0 0.002062 478.03732 499.46527
481.0 0.002079 478.05594 499.34204
482.0 0.002075 478.07446 499.22162
503.0 0.001988 478.09299 499.10391
516.0 0.001938 478.11176 498.98911
507.0 0.001972 478.13019 498.87695
494.0 0.002024 478.14883 498.76743
482.0 0.002075 478.16748 498.66052
479.0 0.002088 478.18600 498.55646
488.0 0.002049 478.20453 498.45456
489.0 0.002045 478.22311 498.35544
498.0 0.002008 478.24170 498.25867
477.0 0.002096 478.26035 498.16437
497.0 0.002012 478.27899 498.07266
499.0 0.002004 478.29755 497.98315
487.0 0.002053 478.31610 497.89609
487.0 0.002053 478.33478 497.81134
495.0 0.002020 478.35342 497.72882
506.0 0.001976 478.37204 497.64868
504.0 0.001984 478.39056 497.57071
501.0 0.001996 478.40927 497.49496
494.0 0.002024 478.42786 497.42151
479.0 0.002088 478.44644 497.35010
465.0 0.002151 478.46512 497.28098
478.0 0.002092 478.48380 497.21387
510.0 0.001961 478.50244 497.14883
487.0 0.002053 478.52100 497.08594
497.0 0.002012 478.53967 497.02521
471.0 0.002123 478.55826 496.96643
481.0 0.002079 478.57690 496.94885
471.0 0.002123 478.59561 496.89435
467.0 0.002141 478.61423 496.84186
476.0 0.002101 478.63284 496.79132
481.0 0.002079 478.65146 496.74286
489.0 0.002045 478.67017 496.69635
482.0 0.002075 478.68881 496.65170
471.0 0.002123 478.70743 496.60910
468.0 0.002137 478.72604 496.56833
465.0 0.002151 478.74472 496.52957
478.0 0.002092 478.76337 496.49271
499.0 0.002004 478.78204 496.45776
489.0 0.002045 478.80057 496.42459
487.0 0.002053 478.81921 496.39337
481.0 0.002079 478.83789 496.85168
490.0 0.002041 478.85651 496.82779
479.0 0.002088 478.87521 496.80591
476.0 0.002101 478.89377 496.78583
476.0 0.002101 478.91241 496.76767
466.0 0.002146 478.93109 496.75137
473.0 0.002114 478.94974 496.73715
485.0 0.002062 478.96829 496.72455
494.0 0.002024 478.98700 496.71414
482.0 0.002075 479.00571 496.70560
477.0 0.002096 479.02420 496.69891
461.0 0.002169 479.04294 496.69406
465.0 0.002151 479.06158 496.69122
468.0 0.002137 479.08017 496.69031
466.0 0.002146 479.09882 496.69125
473.0 0.002114 479.11743 496.69443
471.0 0.002123 479.13605 496.69928
473.0 0.002114 479.15463 496.70605
467.0 0.002141 479.17334 496.71503
506.0 0.001976 479.19189 496.72592
495.0 0.002020 479.21060 496.73877
485.0 0.002062 479.22913 496.75357
496.0 0.002016 479.24771 496.77045
484.0 0.002066 479.26639 496.78934
502.0 0.001992 479.28497 496.81033
523.0 0.001912 479.30341 496.83340
497.0 0.002012 479.32208 496.85852
477.0 0.002096 479.34070 496.88586
480.0 0.002083 479.35941 496.91534
479.0 0.002088 479.37796 496.94675
499.0 0.002004 479.39648 496.57785
526.0 0.001901 479.41507 496.61584
504.0 0.001984 479.43362 496.65607
519.0 0.001927 479.45218 496.69870
504.0 0.001984 479.47076 496.74344
499.0 0.002004 479.48938 496.79044
511.0 0.001957 479.50787 496.84000
498.0 0.002008 479.52655 496.89191
499.0 0.002004 479.54498 496.94608
503.0 0.001988 479.56351 497.00284
514.0 0.001946 479.58212 497.06207
505.0 0.001980 479.60071 497.12390
502.0 0.001992 479.61920 497.18826
511.0 0.001957 479.63770 497.25522
500.0 0.002000 479.65622 497.32486
517.0 0.001934 479.67480 497.39740
506.0 0.001976 479.69324 497.47256
509.0 0.001965 479.71173 497.55054
514.0 0.001946 479.73016 497.63153
529.0 0.001890 479.74881 497.71548
544.0 0.001838 479.76712 497.80246
523.0 0.001912 479.78571 497.89236
516.0 0.001938 479.80420 497.98572
532.0 0.001880 479.82266 498.08218
522.0 0.001916 479.84113 498.18198
541.0 0.001848 479.85959 498.28513
537.0 0.001862 479.87814 498.39182
534.0 0.001873 479.89651 498.50198
558.0 0.001792 479.91492 498.61588
538.0 0.001859 479.93338 498.73355
567.0 0.001764 479.95190 498.85507
543.0 0.001842 479.97018 498.98053
538.0 0.001859 479.98862 499.11005
564.0 0.001773 480.00714 499.24380
548.0 0.001825 480.02545 499.38184
553.0 0.001808 480.04385 499.52420
590.0 0.001695 480.06223 499.67114
603.0 0.001658 480.08063 499.82278
604.0 0.001656 480.09903 499.97955
548.0 0.001825 480.11740 500.14084
542.0 0.001845 480.13568 500.30759
538.0 0.001859 480.15411 500.47949
525.0 0.001905 480.17236 500.65701
547.0 0.001828 480.19073 500.84018
535.0 0.001869 480.20911 501.02924
557.0 0.001795 480.22726 501.22415
563.0 0.001776 480.24567 501.42548
558.0 0.001792 480.26395 501.63336
569.0 0.001757 480.28226 501.84796
548.0 0.001825 480.30054 502.06946
545.0 0.001835 480.31879 502.29828
534.0 0.001873 480.33710 502.53448
523.0 0.001912 480.35541 502.77850
520.0 0.001923 480.37360 503.03070
525.0 0.001905 480.39178 503.29120
524.0 0.001908 480.41013 503.56039
545.0 0.001835 480.42828 503.78845
514.0 0.001946 480.44653 504.07663
518.0 0.001931 480.46481 499.46945
526.0 0.001901 480.48291 499.80554
529.0 0.001890 480.50122 500.15219
502.0 0.001992 480.51932 500.50980
494.0 0.002024 480.53748 500.87857
493.0 0.002028 480.55560 501.25967
501.0 0.001996 480.57376 501.65314
514.0 0.001946 480.59189 502.05966
502.0 0.001992 480.61005 502.47998
513.0 0.001949 480.62811 502.91461
515.0 0.001942 480.64621 503.36447
534.0 0.001873 480.66440 503.83044
541.0 0.001848 480.68246 504.31287
518.0 0.001931 480.70053 504.81305
524.0 0.001908 480.71863 505.33197
524.0 0.001908 480.73663 505.87048
516.0 0.001938 480.75467 506.43002
512.0 0.001953 480.77280 507.01166
523.0 0.001912 480.79080 507.61685
518.0 0.001931 480.80875 508.24719
528.0 0.001894 480.82678 508.90433
518.0 0.001931 480.84479 509.59036
526.0 0.001901 480.86267 510.30725
524.0 0.001908 480.88071 511.05746
531.0 0.001883 480.89865 511.84427
515.0 0.001942 480.91666 512.67017
533.0 0.001876 480.93457 513.53900
555.0 0.001802 480.95255 514.45514
561.0 0.001783 480.97040 515.42279
547.0 0.001828 480.98828 516.44757
548.0 0.001825 481.00601 517.53577
543.0 0.001842 481.02405 518.69446
538.0 0.001859 481.04184 519.93140
571.0 0.001751 481.05975 521.25610
560.0 0.001786 481.07755 522.67883
577.0 0.001733 481.09537 523.15735
591.0 0.001692 481.11316 524.82068
562.0 0.001779 481.13104 526.62286
582.0 0.001718 481.14880 528.58167
601.0 0.001664 481.16669 530.71606
593.0 0.001686 481.18439 533.04803
586.0 0.001706 481.20215 535.60144
595.0 0.001681 481.21982 538.40283
586.0 0.001706 481.23758 541.48096
609.0 0.001642 481.25525 544.86823
623.0 0.001605 481.27307 548.59869
626.0 0.001597 481.29068 552.70886
648.0 0.001543 481.30832 557.23871
645.0 0.001550 481.32596 562.22949
642.0 0.001558 481.34363 567.72510
647.0 0.001546 481.36130 573.77051
656.0 0.001524 481.37885 580.41260
639.0 0.001565 481.39651 587.69794
662.0 0.001511 481.41409 595.67413
689.0 0.001451 481.43164 604.38702
704.0 0.001420 481.44913 613.88129
686.0 0.001458 481.46677 624.19897
681.0 0.001468 481.48425 635.37823
715.0 0.001399 481.50174 647.45239
733.0 0.001364 481.51932 660.44879
728.0 0.001374 481.53680 674.38678
713.0 0.001403 481.55435 689.27728
766.0 0.001305 481.57181 705.12000
774.0 0.001292 481.58920 721.90320
772.0 0.001295 481.60666 739.60089
774.0 0.001292 481.62411 758.17163
791.0 0.001264 481.64151 777.55676
848.0 0.001179 481.65884 797.67847
844.0 0.001185 481.67621 818.43835
859.0 0.001164 481.69366 839.71631
878.0 0.001139 481.71088 861.36945
881.0 0.001135 481.72821 883.23059
870.0 0.001149 481.74557 905.10999
884.0 0.001131 481.76279 926.79517
938.0 0.001066 481.78015 948.25439
990.0 0.001010 481.79745 968.83136
967.0 0.001034 481.81470 988.45807
1000.0 0.001000 481.83191 1006.85321
987.0 0.001013 481.84918 1023.72693
950.0 0.001053 481.86627 1038.78784
971.0 0.001030 481.88345 1054.93689
1007.0 0.000993 481.90063 1065.54846
1022.0 0.000978 481.91782 1073.54651
1017.0 0.000983 481.93503 1078.72900
1020.0 0.000980 481.95212 1080.94714
1030.0 0.000971 481.96930 1080.11987
1037.0 0.000964 481.98633 1076.24109
1032.0 0.000969 482.00345 1069.38403
988.0 0.001012 482.02045 1059.69910
983.0 0.001017 482.03754 1047.40393
987.0 0.001013 482.05460 1032.77161
966.0 0.001035 482.07147 1016.11401
984.0 0.001016 482.08856 997.76434
950.0 0.001053 482.10547 978.06323
946.0 0.001057 482.12247 957.34253
936.0 0.001068 482.13937 935.91650
939.0 0.001065 482.15625 914.07532
882.0 0.001134 482.17325 892.07886
849.0 0.001178 482.19012 870.15704
837.0 0.001195 482.20697 848.50861
861.0 0.001161 482.22388 827.30292
823.0 0.001215 482.24063 806.68158
797.0 0.001255 482.25745 786.76141
784.0 0.001276 482.27441 767.63483
775.0 0.001290 482.29111 749.37488
789.0 0.001267 482.30789 732.03467
763.0 0.001311 482.32452 715.65131
747.0 0.001339 482.34134 700.24677
724.0 0.001381 482.35800 685.82965
717.0 0.001395 482.37469 672.39703
700.0 0.001429 482.39139 659.93585
709.0 0.001410 482.40799 648.42419
715.0 0.001399 482.42480 637.83282
724.0 0.001381 482.44135 628.12677
716.0 0.001397 482.45801 619.26581
668.0 0.001497 482.47458 611.20630
651.0 0.001536 482.49109 603.90186
639.0 0.001565 482.50769 597.30481
645.0 0.001550 482.52432 591.36664
661.0 0.001513 482.54083 586.03906
646.0 0.001548 482.55716 581.27429
609.0 0.001642 482.57373 577.02637
592.0 0.001689 482.59024 573.25092
597.0 0.001675 482.60657 569.90601
588.0 0.001701 482.62311 566.95215
610.0 0.001639 482.63940 564.35254
597.0 0.001675 482.65579 562.07349
604.0 0.001656 482.67221 560.08417
608.0 0.001645 482.68863 558.35638
593.0 0.001686 482.70486 556.86548
598.0 0.001672 482.72119 555.58905
594.0 0.001684 482.73749 554.50751
601.0 0.001664 482.75375 553.60419
593.0 0.001686 482.76996 552.86469
623.0 0.001605 482.78622 552.27692
634.0 0.001577 482.80249 551.83105
626.0 0.001597 482.81863 551.51941
588.0 0.001701 482.83478 551.33588
596.0 0.001678 482.85098 551.27704
619.0 0.001616 482.86710 551.34033
620.0 0.001613 482.88312 551.52570
640.0 0.001563 482.89923 551.83380
670.0 0.001493 482.91525 552.26788
632.0 0.001582 482.93140 552.83215
632.0 0.001582 482.94745 553.53241
636.0 0.001572 482.96335 554.37616
617.0 0.001621 482.97940 555.37195
655.0 0.001527 482.99530 556.53052
651.0 0.001536 483.01132 557.86328
644.0 0.001553 483.02719 559.38318
654.0 0.001529 483.04315 561.10480
673.0 0.001486 483.05902 563.04358
688.0 0.001453 483.07495 565.21606
697.0 0.001435 483.09082 567.63989
679.0 0.001473 483.10654 570.33344
700.0 0.001429 483.12238 573.31561
740.0 0.001351 483.13821 576.60547
755.0 0.001325 483.15396 580.22241
739.0 0.001353 483.16962 584.18524
730.0 0.001370 483.18542 588.51227
758.0 0.001319 483.20111 593.22052
745.0 0.001342 483.21671 598.32538
743.0 0.001346 483.23245 603.84052
744.0 0.001344 483.24811 609.77686
774.0 0.001292 483.26358 616.14166
791.0 0.001264 483.27927 622.93939
811.0 0.001233 483.29486 630.16949
834.0 0.001199 483.31033 637.82654
847.0 0.001181 483.32581 645.89905
869.0 0.001151 483.34140 654.36951
830.0 0.001205 483.35687 663.21295
838.0 0.001193 483.37231 672.39697
825.0 0.001212 483.38770 681.88037
826.0 0.001211 483.40317 691.61273
813.0 0.001230 483.41864 701.53424
840.0 0.001190 483.43405 711.57568
831.0 0.001203 483.44937 721.65814
837.0 0.001195 483.46472 731.69305
851.0 0.001175 483.47998 741.58282
840.0 0.001190 483.49530 751.22308
834.0 0.001199 483.51047 760.50177
843.0 0.001186 483.52591 769.30273
823.0 0.001215 483.54102 777.50647
849.0 0.001178 483.55634 784.99365
856.0 0.001168 483.57141 791.64771
846.0 0.001182 483.58655 797.35992
834.0 0.001199 483.60178 802.03369
828.0 0.001208 483.61688 805.59076
836.0 0.001196 483.63181 807.97620
829.0 0.001206 483.64697 809.16443
805.0 0.001242 483.66211 809.16101
760.0 0.001316 483.67694 808.00562
751.0 0.001332 483.69202 805.76947
729.0 0.001372 483.70697 802.55267
753.0 0.001328 483.72189 798.47815
776.0 0.001289 483.73682 793.68591
774.0 0.001292 483.75168 788.32501
783.0 0.001277 483.76663 782.54858
757.0 0.001321 483.78143 776.50800
744.0 0.001344 483.79630 770.57184
742.0 0.001348 483.81116 764.43048
768.0 0.001302 483.82593 758.43311
739.0 0.001353 483.84058 752.69513
745.0 0.001342 483.85544 747.32227
735.0 0.001361 483.87015 742.40967
742.0 0.001348 483.88495 738.04443
696.0 0.001437 483.89954 734.30530
682.0 0.001466 483.91425 731.26471
715.0 0.001399 483.92880 728.98920
730.0 0.001370 483.94348 727.54089
769.0 0.001300 483.95798 726.97797
759.0 0.001318 483.97260 727.35565
755.0 0.001325 483.98706 728.72699
726.0 0.001377 484.00153 731.14301
678.0 0.001475 484.01608 734.65381
694.0 0.001441 484.03055 739.30872
720.0 0.001389 484.04483 745.15656
709.0 0.001410 484.05942 752.24597
693.0 0.001443 484.07382 760.62518
708.0 0.001412 484.08817 770.34283
698.0 0.001433 484.10251 781.44678
699.0 0.001431 484.11673 793.98499
716.0 0.001397 484.13104 808.00403
700.0 0.001429 484.14529 823.54950
730.0 0.001370 484.15958 840.66467
799.0 0.001252 484.17380 859.39014
778.0 0.001285 484.18790 879.76276
831.0 0.001203 484.20212 901.81427
854.0 0.001171 484.21625 925.57086
867.0 0.001153 484.23029 951.05060
917.0 0.001091 484.24448 978.26294
944.0 0.001059 484.25864 1007.20636
993.0 0.001007 484.27255 1037.86707
1004.0 0.000996 484.28665 1070.21619
991.0 0.001009 484.30066 1104.20813
1030.0 0.000971 484.31464 1139.77856
1064.0 0.000940 484.32858 1176.84033
1129.0 0.000886 484.34250 1215.28210
1168.0 0.000856 484.35638 1254.96533
1202.0 0.000832 484.37021 1295.72083
1312.0 0.000762 484.38397 1337.34753
1361.0 0.000735 484.39789 1379.60901
1353.0 0.000739 484.41174 1422.23096
1419.0 0.000705 484.42551 1464.90234
1504.0 0.000665 484.43918 1507.27344
1540.0 0.000649 484.45291 1548.95801
1590.0 0.000629 484.46661 1589.53455
1681.0 0.000595 484.48035 1628.55054
1738.0 0.000575 484.49393 1665.52917
1851.0 0.000540 484.50757 1699.97546
1965.0 0.000509 484.52115 1731.38660
1940.0 0.000515 484.53464 1759.26501
1972.0 0.000507 484.54834 1783.13232
2077.0 0.000481 484.56180 1802.54578
2112.0 0.000473 484.57526 1817.11780
2114.0 0.000473 484.58875 1826.53394
2128.0 0.000470 484.60220 1830.57190
2135.0 0.000468 484.61554 1829.11633
2109.0 0.000474 484.62903 1822.16760
2147.0 0.000466 484.64221 1809.84546
2098.0 0.000477 484.65576 1792.38586
2073.0 0.000482 484.66904 1770.12817
2026.0 0.000494 484.68228 1743.50061
1962.0 0.000510 484.69562 1712.99622
1884.0 0.000531 484.70877 1679.77161
1778.0 0.000562 484.72195 1643.14819
1738.0 0.000575 484.73514 1604.29858
1750.0 0.000571 484.74835 1563.76160
1687.0 0.000593 484.76154 1522.04346
1592.0 0.000628 484.77451 1479.61108
1573.0 0.000636 484.78760 1436.88452
1497.0 0.000668 484.80072 1394.23511
1419.0 0.000705 484.81366 1351.98401
1374.0 0.000728 484.82672 1310.40771
1322.0 0.000756 484.83972 1269.73682
1305.0 0.000766 484.85272 1230.16138
1214.0 0.000824 484.86551 1191.83545
1173.0 0.000853 484.87848 1154.87976
1140.0 0.000877 484.89130 1119.38440
1089.0 0.000918 484.90417 1085.41528
1048.0 0.000954 484.91699 1053.01416
1028.0 0.000973 484.92966 1022.20270
1010.0 0.000990 484.94244 992.98535
952.0 0.001050 484.95520 965.35077
919.0 0.001088 484.96790 939.27533
868.0 0.001152 484.98062 914.72406
843.0 0.001186 484.99329 891.65314
846.0 0.001182 485.00586 870.01184
866.0 0.001155 485.01849 849.74426
853.0 0.001172 485.03110 830.79065
855.0 0.001170 485.04355 813.08893
792.0 0.001263 485.05609 796.57654
772.0 0.001295 485.06863 781.19000
776.0 0.001289 485.08112 766.86725
760.0 0.001316 485.09348 753.54742
751.0 0.001332 485.10599 741.17120
746.0 0.001340 485.11823 729.68091
710.0 0.001408 485.13068 719.02179
678.0 0.001475 485.14301 709.14001
651.0 0.001536 485.15530 699.98474
662.0 0.001511 485.16760 691.50714
645.0 0.001550 485.17984 683.66083
648.0 0.001543 485.19208 676.40143
628.0 0.001592 485.20419 669.68713
618.0 0.001618 485.21634 663.47876
627.0 0.001595 485.22852 657.73907
641.0 0.001560 485.24054 652.43359
634.0 0.001577 485.25275 647.53070
612.0 0.001634 485.26471 643.00024
618.0 0.001618 485.27686 638.81537
631.0 0.001585 485.28885 634.95068
602.0 0.001661 485.30078 631.38336
613.0 0.001631 485.31271 628.09265
604.0 0.001656 485.32468 625.05939
576.0 0.001736 485.33661 622.26660
572.0 0.001748 485.34842 619.69843
587.0 0.001704 485.36029 617.34100
597.0 0.001675 485.37204 615.18158
606.0 0.001650 485.38382 613.20862
594.0 0.001684 485.39563 611.41217
610.0 0.001639 485.40732 609.78278
585.0 0.001709 485.41910 608.31183
575.0 0.001739 485.43066 606.99261
585.0 0.001709 485.44232 605.81793
571.0 0.001751 485.45395 604.78204
576.0 0.001736 485.46545 603.87958
573.0 0.001745 485.47705 603.10596
604.0 0.001656 485.48862 602.45715
574.0 0.001742 485.50012 601.92963
561.0 0.001783 485.51157 601.52002
572.0 0.001748 485.52307 601.22601
571.0 0.001751 485.53436 601.04523
563.0 0.001776 485.54593 600.97626
575.0 0.001739 485.55707 601.01752
554.0 0.001805 485.56860 601.16864
558.0 0.001792 485.57980 601.42902
537.0 0.001862 485.59100 601.79846
558.0 0.001792 485.60242 602.27795
603.0 0.001658 485.61365 602.86804
594.0 0.001684 485.62473 603.57050
598.0 0.001672 485.63589 604.38702
570.0 0.001754 485.64703 605.32062
559.0 0.001789 485.65820 606.37415
587.0 0.001704 485.66934 607.55145
567.0 0.001764 485.68030 608.85718
560.0 0.001786 485.69138 610.29700
556.0 0.001799 485.70224 611.87665
558.0 0.001792 485.71326 613.60437
580.0 0.001724 485.72421 615.48792
608.0 0.001645 485.73511 617.53754
608.0 0.001645 485.74594 619.76447
607.0 0.001647 485.75677 622.18176
592.0 0.001689 485.76764 624.80414
601.0 0.001664 485.77844 627.64850
614.0 0.001629 485.78928 630.73431
613.0 0.001631 485.79993 634.08337
638.0 0.001567 485.81064 637.72040
645.0 0.001550 485.82123 641.67365
640.0 0.001563 485.83191 645.97412
632.0 0.001582 485.84262 650.65759
627.0 0.001595 485.85321 654.62775
639.0 0.001565 485.86374 660.20837
626.0 0.001597 485.87433 666.30450
621.0 0.001610 485.88467 672.96979
633.0 0.001580 485.89526 680.26392
693.0 0.001443 485.90564 688.25226
675.0 0.001481 485.91608 697.00507
668.0 0.001497 485.92651 706.59973
677.0 0.001477 485.93689 717.11890
685.0 0.001460 485.94727 728.65125
681.0 0.001468 485.95755 741.29095
675.0 0.001481 485.96774 755.13812
710.0 0.001408 485.97797 770.29724
723.0 0.001383 485.98819 786.87726
736.0 0.001359 485.99835 804.99054
808.0 0.001238 486.00848 824.75256
845.0 0.001183 486.01865 846.27936
833.0 0.001200 486.02878 869.68781
850.0 0.001176 486.03882 895.09302
892.0 0.001121 486.04892 922.60638
929.0 0.001076 486.05893 952.33502
977.0 0.001024 486.06879 984.37823
1007.0 0.000993 486.07877 1018.82562
1051.0 0.000951 486.08865 1055.75488
1079.0 0.000927 486.09860 1095.22876
1129.0 0.000886 486.10843 1137.29199
1134.0 0.000882 486.11823 1181.96838
1208.0 0.000828 486.12811 1229.25769
1218.0 0.000821 486.13794 1279.13171
1288.0 0.000776 486.14774 1331.53064
1348.0 0.000742 486.15726 1386.35901
1428.0 0.000700 486.16711 1443.48291
1453.0 0.000688 486.17670 1502.72351
1495.0 0.000669 486.18622 1563.85474
1604.0 0.000623 486.19598 1626.59900
1701.0 0.000588 486.20541 1690.62256
1805.0 0.000554 486.21494 1755.53369
1911.0 0.000523 486.22452 1820.87952
1917.0 0.000522 486.23401 1886.14514
1990.0 0.000503 486.24341 1950.75537
2034.0 0.000492 486.25287 2014.07617
2067.0 0.000484 486.26230 2075.42090
2111.0 0.000474 486.27161 2134.05713
2184.0 0.000458 486.28094 2189.21851
2286.0 0.000437 486.29022 2240.11768
2319.0 0.000431 486.29959 2285.96289
2508.0 0.000399 486.30878 2325.97998
2513.0 0.000398 486.31790 2359.43433
2470.0 0.000405 486.32721 2385.66040
2447.0 0.000409 486.33630 2404.08984
2424.0 0.000413 486.34540 2414.28101
2462.0 0.000406 486.35446 2415.94580
2475.0 0.000404 486.36362 2408.97412
2436.0 0.000411 486.37256 2393.44482
2392.0 0.000418 486.38168 2369.62793
2399.0 0.000417 486.39059 2337.97412
2369.0 0.000422 486.39957 2299.09375
2333.0 0.000429 486.40839 2253.72363
2262.0 0.000442 486.41721 2202.69238
2126.0 0.000470 486.42615 2146.88062
2063.0 0.000485 486.43500 2087.18457
2006.0 0.000499 486.44370 2024.48499
1969.0 0.000508 486.45255 1959.62036
1847.0 0.000541 486.46115 1893.37000
1801.0 0.000555 486.46988 1826.44116
1699.0 0.000589 486.47861 1759.46509
1633.0 0.000612 486.48724 1692.99341
1591.0 0.000629 486.49585 1627.50183
1577.0 0.000634 486.50446 1563.39355
1500.0 0.000667 486.51300 1501.00525
1380.0 0.000725 486.52145 1440.61243
1290.0 0.000775 486.53000 1382.43542
1219.0 0.000820 486.53845 1326.64551
1164.0 0.000859 486.54694 1273.36938
1108.0 0.000903 486.55530 1222.69519
1069.0 0.000935 486.56363 1174.67590
1002.0 0.000998 486.57202 1129.33350
961.0 0.001041 486.58029 1086.66333
925.0 0.001081 486.58865 1046.63696
903.0 0.001107 486.59683 1009.20520
881.0 0.001135 486.60504 974.30151
836.0 0.001196 486.61319 941.84454
814.0 0.001229 486.62146 911.74072
805.0 0.001242 486.62946 883.88702
803.0 0.001245 486.63766 858.17279
780.0 0.001282 486.64572 834.48236
770.0 0.001299 486.65363 812.69666
746.0 0.001340 486.66183 792.69531
728.0 0.001374 486.66959 774.35785
731.0 0.001368 486.67758 757.56549
732.0 0.001366 486.68549 742.20184
705.0 0.001418 486.69330 728.15448
707.0 0.001414 486.70120 715.31555
691.0 0.001447 486.70908 703.58203
685.0 0.001460 486.71683 692.85712
670.0 0.001493 486.72455 683.04962
662.0 0.001511 486.73236 674.07465
667.0 0.001499 486.74014 665.85339
660.0 0.001515 486.74771 658.31348
673.0 0.001486 486.75543 651.38892
646.0 0.001548 486.76297 645.01898
674.0 0.001484 486.77054 639.14911
645.0 0.001550 486.77811 633.72980
636.0 0.001572 486.78564 628.71692
599.0 0.001669 486.79312 624.07043
591.0 0.001692 486.80060 619.75531
617.0 0.001621 486.80792 615.74030
614.0 0.001629 486.81540 611.99725
595.0 0.001681 486.82269 608.50201
582.0 0.001718 486.83017 605.23315
592.0 0.001689 486.83725 602.17194
594.0 0.001684 486.84457 599.30182
602.0 0.001661 486.85190 596.60883
593.0 0.001686 486.85898 594.08044
577.0 0.001733 486.86624 591.70636
570.0 0.001754 486.87335 589.47760
589.0 0.001698 486.88043 587.38647
570.0 0.001754 486.88754 585.42688
570.0 0.001754 486.89474 583.59381
564.0 0.001773 486.90164 581.88312
587.0 0.001704 486.90869 580.29205
558.0 0.001792 486.91562 578.81848
561.0 0.001783 486.92264 577.46155
553.0 0.001808 486.92938 576.22058
530.0 0.001887 486.93634 575.09650
533.0 0.001876 486.94324 574.09082
548.0 0.001825 486.94995 573.20538
556.0 0.001799 486.95663 572.44348
568.0 0.001761 486.96344 571.80872
569.0 0.001757 486.97015 571.30530
561.0 0.001783 486.97690 570.93878
561.0 0.001783 486.98346 570.71454
539.0 0.001855 486.99014 570.63892
534.0 0.001873 486.99661 570.71863
527.0 0.001898 487.00323 570.96112
527.0 0.001898 487.00964 571.37396
560.0 0.001786 487.01630 571.96466
558.0 0.001792 487.02271 572.74121
563.0 0.001776 487.02911 573.71204
571.0 0.001751 487.03558 574.88409
572.0 0.001748 487.04193 576.26532
579.0 0.001727 487.04831 577.86212
585.0 0.001709 487.05466 579.68091
577.0 0.001733 487.06085 581.72638
592.0 0.001689 487.06726 584.00269
574.0 0.001742 487.07339 586.51239
583.0 0.001715 487.07953 589.25598
593.0 0.001686 487.08569 592.23230
599.0 0.001669 487.09180 595.43774
609.0 0.001642 487.09796 598.86658
612.0 0.001634 487.10397 602.50934
608.0 0.001645 487.11008 606.35413
617.0 0.001621 487.11606 610.38495
605.0 0.001653 487.12192 614.58221
645.0 0.001550 487.12796 618.92200
673.0 0.001486 487.13379 623.37567
667.0 0.001499 487.13965 627.91034
670.0 0.001493 487.14569 632.48773
691.0 0.001447 487.15137 637.06494
666.0 0.001502 487.15714 641.59436
679.0 0.001473 487.16284 646.02362
684.0 0.001462 487.16858 650.29675
691.0 0.001447 487.17432 654.35419
713.0 0.001403 487.17990 658.13446
716.0 0.001397 487.18561 661.57483
700.0 0.001429 487.19122 664.61377
694.0 0.001441 487.19678 667.19122
717.0 0.001395 487.20233 669.25311
731.0 0.001368 487.20782 670.75220
766.0 0.001305 487.21326 671.65118
756.0 0.001323 487.21863 671.92548
763.0 0.001311 487.22412 671.82245
745.0 0.001342 487.22949 670.83325
740.0 0.001351 487.23471 669.23541
703.0 0.001422 487.24011 667.06500
711.0 0.001406 487.24530 664.37158
702.0 0.001425 487.25067 661.21533
697.0 0.001435 487.25589 657.66351
755.0 0.001325 487.26102 653.78864
766.0 0.001305 487.26614 649.66406
738.0 0.001355 487.27139 645.36304
734.0 0.001362 487.27637 640.95508
758.0 0.001319 487.28146 636.50580
757.0 0.001321 487.28647 632.07611
758.0 0.001319 487.29144 627.72089
729.0 0.001372 487.29645 623.49005
690.0 0.001449 487.30139 619.42822
680.0 0.001471 487.30624 615.57495
697.0 0.001435 487.31113 611.96588
660.0 0.001515 487.31601 608.63263
646.0 0.001548 487.32077 605.60309
652.0 0.001534 487.32547 602.90247
662.0 0.001511 487.33032 600.55322
652.0 0.001534 487.33508 598.57550
648.0 0.001543 487.33981 596.98761
638.0 0.001567 487.34439 595.80603
639.0 0.001565 487.34897 595.04559
625.0 0.001600 487.35349 594.72009
655.0 0.001527 487.35815 594.84174
626.0 0.001597 487.36264 595.42163
602.0 0.001661 487.36703 596.46997
601.0 0.001664 487.37161 597.99579
616.0 0.001623 487.37604 600.00714
599.0 0.001669 487.38049 602.51074
595.0 0.001681 487.38492 605.51221
586.0 0.001706 487.38913 609.01605
588.0 0.001701 487.39349 613.02490
597.0 0.001675 487.39774 617.53961
588.0 0.001701 487.40204 622.55933
595.0 0.001681 487.40610 628.08087
605.0 0.001653 487.41037 634.09821
597.0 0.001675 487.41455 640.60248
604.0 0.001656 487.41855 647.58093
608.0 0.001645 487.42270 655.01733
618.0 0.001618 487.42685 662.89105
644.0 0.001553 487.43079 671.17572
634.0 0.001577 487.43478 679.83966
640.0 0.001563 487.43869 688.84460
709.0 0.001410 487.44263 698.14551
698.0 0.001433 487.44656 707.68945
714.0 0.001401 487.45038 717.41492
727.0 0.001376 487.45419 727.25201
731.0 0.001368 487.45804 737.12158
748.0 0.001337 487.46179 746.93500
751.0 0.001332 487.46555 756.59509
765.0 0.001307 487.46918 765.99567
781.0 0.001280 487.47296 775.02356
796.0 0.001256 487.47650 783.55914
792.0 0.001263 487.48007 791.47870
793.0 0.001261 487.48370 798.65765
831.0 0.001203 487.48718 804.97217
840.0 0.001190 487.49075 810.30438
838.0 0.001193 487.49435 814.54596
841.0 0.001189 487.49768 817.60309
835.0 0.001198 487.50119 819.40070
861.0 0.001161 487.50452 819.88690
821.0 0.001218 487.50781 819.03693
797.0 0.001255 487.51120 816.85400
812.0 0.001232 487.51450 813.37128
801.0 0.001248 487.51767 808.64966
799.0 0.001252 487.52094 802.77448
779.0 0.001284 487.52423 795.85205
782.0 0.001279 487.52728 788.00391
810.0 0.001235 487.53040 779.36084
782.0 0.001279 487.53345 770.05798
787.0 0.001271 487.53659 760.22925
748.0 0.001337 487.53964 750.00415
677.0 0.001477 487.54263 739.50421
652.0 0.001534 487.54562 728.84088
642.0 0.001558 487.54855 718.11456
662.0 0.001511 487.55151 714.55304
652.0 0.001534 487.55432 703.99927
681.0 0.001468 487.55719 693.61584
667.0 0.001499 487.55991 683.45880
671.0 0.001490 487.56274 673.57532
633.0 0.001580 487.56549 664.00317
639.0 0.001565 487.56827 654.77325
623.0 0.001605 487.57098 645.90948
623.0 0.001605 487.57352 637.42902
584.0 0.001712 487.57617 629.34418
586.0 0.001706 487.57883 621.66272
550.0 0.001818 487.58142 614.38727
543.0 0.001842 487.58398 607.51733
533.0 0.001876 487.58640 601.04883
520.0 0.001923 487.58890 594.97516
521.0 0.001919 487.59122 589.28680
545.0 0.001835 487.59372 583.97217
546.0 0.001832 487.59607 579.01831
545.0 0.001835 487.59836 574.41064
560.0 0.001786 487.60074 570.13354
576.0 0.001736 487.60287 566.17041
578.0 0.001730 487.60519 562.50427
546.0 0.001832 487.60736 559.11780
529.0 0.001890 487.60956 555.99365
527.0 0.001898 487.61169 553.11444
539.0 0.001855 487.61380 550.46301
527.0 0.001898 487.61591 548.02307
509.0 0.001965 487.61804 545.77844
503.0 0.001988 487.62000 543.71362
514.0 0.001946 487.62201 541.81421
537.0 0.001862 487.62396 540.06622
545.0 0.001835 487.62589 538.45660
522.0 0.001916 487.62781 536.97327
526.0 0.001901 487.62967 535.60486
522.0 0.001916 487.63138 534.34094
513.0 0.001949 487.63333 533.17188
524.0 0.001908 487.63504 532.08881
499.0 0.002004 487.63669 529.07849
504.0 0.001984 487.63852 528.15436
516.0 0.001938 487.64011 527.29431
500.0 0.002000 487.64157 526.49243
500.0 0.002000 487.64331 525.74323
501.0 0.001996 487.64487 525.04205
508.0 0.001969 487.64639 524.38434
488.0 0.002049 487.64795 523.76666
498.0 0.002008 487.64932 523.18549
495.0 0.002020 487.65076 522.63751
479.0 0.002088 487.65219 522.12018
486.0 0.002058 487.65353 521.63123
486.0 0.002058 487.65497 521.16840
505.0 0.001980 487.65628 520.72974
519.0 0.001927 487.65756 520.31372
514.0 0.001946 487.65881 519.91864
519.0 0.001927 487.66010 519.54333
512.0 0.001953 487.66116 519.18640
505.0 0.001980 487.66241 518.84674
508.0 0.001969 487.66354 518.52344
522.0 0.001916 487.66470 518.21558
507.0 0.001972 487.66568 517.92249
525.0 0.001905 487.66666 517.64343
529.0 0.001890 487.66776 517.37750
518.0 0.001931 487.66864 517.12421
529.0 0.001890 487.66962 516.88300
540.0 0.001852 487.67047 516.65332
540.0 0.001852 487.67123 516.43481
540.0 0.001852 487.67218 516.22687
533.0 0.001876 487.67297 516.02924
522.0 0.001916 487.67374 515.84131
550.0 0.001818 487.67453 515.66272
553.0 0.001808 487.67520 515.30035
539.0 0.001855 487.67575 515.14075
542.0 0.001845 487.67645 514.98944
525.0 0.001905 487.67712 514.84637
540.0 0.001852 487.67767 514.71130
541.0 0.001848 487.67822 514.58405
536.0 0.001866 487.67874 514.46417
569.0 0.001757 487.67917 514.35138
557.0 0.001795 487.67975 514.24585
546.0 0.001832 487.68011 514.14703
548.0 0.001825 487.68048 514.05481
542.0 0.001845 487.68097 513.96906
536.0 0.001866 487.68115 513.88977
532.0 0.001880 487.68146 513.81665
536.0 0.001866 487.68176 513.74933
535.0 0.001869 487.68198 513.68811
541.0 0.001848 487.68216 513.63245
524.0 0.001908 487.68228 513.58234
526.0 0.001901 487.68246 513.53790
533.0 0.001876 487.68256 513.49872
535.0 0.001869 487.68253 513.46484
561.0 0.001783 487.68253 513.43610
573.0 0.001745 487.68256 513.41248
537.0 0.001862 487.68259 513.39398
527.0 0.001898 487.68253 513.38019
532.0 0.001880 487.68240 513.54175
529.0 0.001890 487.68219 513.53851
525.0 0.001905 487.68213 513.53998
524.0 0.001908 487.68188 513.54614
533.0 0.001876 487.68170 513.55695
520.0 0.001923 487.68140 513.57214
528.0 0.001894 487.68109 513.59192
515.0 0.001942 487.68088 513.61633
505.0 0.001980 487.68054 513.64490
502.0 0.001992 487.68011 513.67798
518.0 0.001931 487.67966 513.71539
504.0 0.001984 487.67932 513.75696
495.0 0.002020 487.67880 513.80310
494.0 0.002024 487.67825 513.85333
490.0 0.002041 487.67761 513.90778
501.0 0.001996 487.67712 513.96655
510.0 0.001961 487.67661 514.02954
484.0 0.002066 487.67593 514.09674
484.0 0.002066 487.67526 514.16815
472.0 0.002119 487.67444 514.24371
465.0 0.002151 487.67371 514.32361
479.0 0.002088 487.67282 514.40765
483.0 0.002070 487.67206 514.49585
509.0 0.001965 487.67123 514.58838
492.0 0.002033 487.67044 514.68512
506.0 0.001976 487.66959 514.78601
487.0 0.002053 487.66858 514.89136
469.0 0.002132 487.66763 515.00085
479.0 0.002088 487.66669 515.11469
484.0 0.002066 487.66559 515.23297
497.0 0.002012 487.66452 515.35553
485.0 0.002062 487.66351 515.48260
482.0 0.002075 487.66241 515.41266
506.0 0.001976 487.66113 515.54968
488.0 0.002049 487.66006 515.69141
475.0 0.002105 487.65881 515.83752
488.0 0.002049 487.65753 515.98840
502.0 0.001992 487.65622 516.14374
515.0 0.001942 487.65488 513.12195
480.0 0.002083 487.65353 513.30597
481.0 0.002079 487.65228 513.49438
478.0 0.002092 487.65082 513.68787
486.0 0.002058 487.64938 513.88599
485.0 0.002062 487.64786 514.08887
472.0 0.002119 487.64633 514.29675
464.0 0.002155 487.64478 514.50977
478.0 0.002092 487.64325 514.72772
476.0 0.002101 487.64163 514.95074
523.0 0.001912 487.63989 515.17926
523.0 0.001912 487.63824 515.41296
499.0 0.002004 487.63666 515.65228
499.0 0.002004 487.63483 515.89716
495.0 0.002020 487.63306 516.14752
500.0 0.002000 487.63126 516.40387
487.0 0.002053 487.62949 516.66614
497.0 0.002012 487.62753 516.93402
497.0 0.002012 487.62573 517.20844
498.0 0.002008 487.62366 517.48914
499.0 0.002004 487.62183 517.77606
476.0 0.002101 487.61981 518.06964
466.0 0.002146 487.61777 518.36987
462.0 0.002165 487.61560 518.67700
475.0 0.002105 487.61377 518.99121
515.0 0.001942 487.61142 519.31244
487.0 0.002053 487.60931 519.64117
501.0 0.001996 487.60721 519.97736
484.0 0.002066 487.60486 520.32135
462.0 0.002165 487.60260 520.67328
478.0 0.002092 487.60040 521.03320
490.0 0.002041 487.59808 521.40173
497.0 0.002012 487.59567 521.77863
510.0 0.001961 487.59326 522.16431
504.0 0.001984 487.59091 522.55908
492.0 0.002033 487.58847 522.96326
523.0 0.001912 487.58600 523.37689
497.0 0.002012 487.58347 523.80029
500.0 0.002000 487.58087 524.23401
509.0 0.001965 487.57840 524.67792
504.0 0.001984 487.57571 525.13281
507.0 0.001972 487.57303 525.59882
516.0 0.001938 487.57043 526.07617
534.0 0.001873 487.56772 526.56531
537.0 0.001862 487.56482 527.06659
524.0 0.001908 487.56219 527.58063
500.0 0.002000 487.55939 528.10773
494.0 0.002024 487.55652 528.64825
490.0 0.002041 487.55374 529.20282
490.0 0.002041 487.55078 529.77185
504.0 0.001984 487.54776 530.35590
520.0 0.001923 487.54486 530.95581
510.0 0.001961 487.54187 531.57190
546.0 0.001832 487.53882 532.20508
532.0 0.001880 487.53574 534.79773
534.0 0.001873 487.53265 535.47742
529.0 0.001890 487.52951 536.17664
525.0 0.001905 487.52640 536.89630
535.0 0.001869 487.52319 537.63776
525.0 0.001905 487.51996 538.40222
535.0 0.001869 487.51669 539.19098
515.0 0.001942 487.51346 540.00562
536.0 0.001866 487.51010 540.84790
531.0 0.001883 487.50677 541.71954
523.0 0.001912 487.50339 542.62292
536.0 0.001866 487.50000 543.56024
553.0 0.001808 487.49661 544.53412
534.0 0.001873 487.49310 545.54810
546.0 0.001832 487.48959 546.60498
541.0 0.001848 487.48593 547.70898
553.0 0.001808 487.48239 548.86407
560.0 0.001786 487.47870 550.07532
556.0 0.001799 487.47501 551.34778
559.0 0.001789 487.47147 552.68726
573.0 0.001745 487.46771 554.10022
568.0 0.001761 487.46399 555.59381
562.0 0.001779 487.46027 557.17584
548.0 0.001825 487.45642 558.85468
565.0 0.001770 487.45258 560.63916
575.0 0.001739 487.44864 562.53949
575.0 0.001739 487.44479 564.56592
592.0 0.001689 487.44086 566.72968
599.0 0.001669 487.43692 569.04242
608.0 0.001645 487.43289 571.51624
615.0 0.001626 487.42892 574.16412
640.0 0.001563 487.42474 576.99866
628.0 0.001592 487.42065 580.62683
679.0 0.001473 487.41656 583.87854
693.0 0.001443 487.41238 587.35669
654.0 0.001529 487.40811 591.07404
671.0 0.001490 487.40399 595.04303
666.0 0.001502 487.39969 599.27472
647.0 0.001546 487.39542 603.77954
697.0 0.001435 487.39108 608.56665
681.0 0.001468 487.38672 613.64307
701.0 0.001427 487.38229 619.01434
720.0 0.001389 487.37787 624.68341
701.0 0.001427 487.37347 630.65076
696.0 0.001437 487.36896 636.91333
687.0 0.001456 487.36435 643.46558
721.0 0.001387 487.35986 650.29724
719.0 0.001391 487.35535 657.39459
723.0 0.001383 487.35062 664.73871
709.0 0.001410 487.34601 672.30609
708.0 0.001412 487.34125 680.06763
724.0 0.001381 487.33658 687.98859
783.0 0.001277 487.33179 696.02814
852.0 0.001174 487.32712 704.13953
850.0 0.001176 487.32224 712.26892
777.0 0.001287 487.31747 720.35773
807.0 0.001239 487.31247 728.34064
796.0 0.001256 487.30765 736.14801
780.0 0.001282 487.30267 743.70642
788.0 0.001269 487.29767 750.93903
769.0 0.001300 487.29272 757.76929
779.0 0.001284 487.28760 764.12158
787.0 0.001271 487.28256 769.92462
796.0 0.001256 487.27750 775.11359
802.0 0.001247 487.27228 779.63513
809.0 0.001236 487.26721 783.22540
810.0 0.001235 487.26193 786.30835
799.0 0.001252 487.25665 788.65466
772.0 0.001295 487.25146 790.27911
798.0 0.001253 487.24606 791.21692
803.0 0.001245 487.24084 791.52155
810.0 0.001235 487.23538 791.26276
822.0 0.001217 487.23004 790.52264
807.0 0.001239 487.22458 789.39233
791.0 0.001264 487.21909 787.96802
799.0 0.001252 487.21362 786.34717
805.0 0.001242 487.20813 784.62646
846.0 0.001182 487.20267 782.89844
842.0 0.001188 487.19690 781.25165
827.0 0.001209 487.19138 779.76855
803.0 0.001245 487.18570 778.52643
797.0 0.001255 487.17996 777.59711
792.0 0.001263 487.17422 777.04718
782.0 0.001279 487.16846 776.93988
775.0 0.001290 487.16275 777.33472
758.0 0.001319 487.15689 778.28912
748.0 0.001337 487.15103 779.85913
759.0 0.001318 487.14517 782.10052
768.0 0.001302 487.13916 785.06940
802.0 0.001247 487.13324 788.82404
781.0 0.001280 487.12732 793.42444
764.0 0.001309 487.12122 798.93469
770.0 0.001299 487.11514 805.42328
760.0 0.001316 487.10898 812.96387
784.0 0.001276 487.10300 821.63684
782.0 0.001279 487.09680 831.52960
852.0 0.001174 487.09064 842.73767
878.0 0.001139 487.08441 855.36584
853.0 0.001172 487.07813 869.52795
859.0 0.001164 487.07181 885.34827
872.0 0.001147 487.06546 902.96167
927.0 0.001079 487.05917 922.51367
978.0 0.001022 487.05286 944.16101
973.0 0.001028 487.04639 968.07025
1002.0 0.000998 487.03998 994.41907
1025.0 0.000976 487.03357 1023.39435
1058.0 0.000945 487.02701 1055.19092
1109.0 0.000902 487.02042 1090.01160
1163.0 0.000860 487.01385 1128.06384
1182.0 0.000846 487.00726 1169.55872
1181.0 0.000847 487.00055 1214.70898
1226.0 0.000816 486.99396 1263.72461
1240.0 0.000806 486.98727 1316.81152
1274.0 0.000785 486.98056 1374.16687
1339.0 0.000747 486.97372 1435.97656
1406.0 0.000711 486.96698 1502.41003
1484.0 0.000674 486.96008 1573.61658
1556.0 0.000643 486.95319 1649.72046
1559.0 0.000641 486.94632 1730.81519
1686.0 0.000593 486.93942 1816.96033
1891.0 0.000529 486.93250 1908.17432
1982.0 0.000505 486.92532 2004.42847
2053.0 0.000487 486.91840 2105.64209
2133.0 0.000469 486.91135 2211.67261
2246.0 0.000445 486.90427 2322.31299
2353.0 0.000425 486.89703 2437.28223
2445.0 0.000409 486.88989 2556.21680
2644.0 0.000378 486.88269 2678.66187
2856.0 0.0003501 486.87549 2804.06616
2936.0 0.0003406 486.86826 2931.77246
3025.0 0.0003306 486.86099 3060.39185
3111.0 0.0003214 486.85358 3190.27759
3256.0 0.0003071 486.84619 3319.79785
3442.0 0.0002905 486.83887 3447.82300
3575.0 0.0002797 486.83145 3573.10400
3741.0 0.0002673 486.82391 3694.28613
3955.0 0.0002528 486.81656 3809.92310
4094.0 0.0002443 486.80884 3918.49463
4185.0 0.0002389 486.80145 4018.44214
4186.0 0.0002389 486.79382 4108.20215
4306.0 0.0002322 486.78613 4186.25293
4355.0 0.0002296 486.77856 4251.16699
4438.0 0.0002253 486.77084 4301.66797
4590.0 0.0002179 486.76315 4336.68994
4599.0 0.0002174 486.75531 4355.43701
4479.0 0.0002233 486.74756 4357.42822
4507.0 0.0002219 486.73975 4342.53418
4496.0 0.0002224 486.73193 4310.99121
4494.0 0.0002225 486.72397 4263.40088
4374.0 0.0002286 486.71613 4200.69092
4223.0 0.0002368 486.70816 4124.07568
4055.0 0.0002466 486.70020 4034.99194
3916.0 0.0002554 486.69211 3935.02832
3781.0 0.0002645 486.68417 3825.85571
3615.0 0.0002766 486.67599 3709.16211
3448.0 0.0002900 486.66791 3586.60010
3318.0 0.0003014 486.65973 3459.73975
3110.0 0.0003215 486.65161 3330.04028
3044.0 0.0003285 486.64340 3198.83032
2881.0 0.0003471 486.63522 3067.29932
2756.0 0.000363 486.62686 2936.49292
2566.0 0.000390 486.61853 2807.32153
2413.0 0.000414 486.61017 2680.56201
2366.0 0.000423 486.60178 2556.87134
2211.0 0.000452 486.59344 2436.79565
2080.0 0.000481 486.58496 2320.77954
1954.0 0.000512 486.57651 2209.17603
1833.0 0.000546 486.56796 2102.25659
1719.0 0.000582 486.55948 2000.21912
1639.0 0.000610 486.55093 1903.19592
1560.0 0.000641 486.54227 1811.26013
1555.0 0.000643 486.53357 1724.43225
1491.0 0.000671 486.52499 1642.68713
1455.0 0.000687 486.51627 1565.95935
1380.0 0.000725 486.50751 1494.14636
1354.0 0.000739 486.49875 1427.11768
1319.0 0.000758 486.48993 1364.71533
1243.0 0.000805 486.48102 1306.76160
1191.0 0.000840 486.47226 1253.06140
1145.0 0.000873 486.46326 1203.40698
1149.0 0.000870 486.45444 1157.58203
1117.0 0.000895 486.44534 1115.36389
1087.0 0.000920 486.43634 1076.52869
1049.0 0.000953 486.42734 1040.85144
1054.0 0.000949 486.41821 1008.11084
991.0 0.001009 486.40912 978.09027
979.0 0.001021 486.40005 950.57971
1016.0 0.000984 486.39084 925.37756
989.0 0.001011 486.38171 902.29144
960.0 0.001042 486.37247 881.13910
927.0 0.001079 486.36319 861.74927
928.0 0.001078 486.35388 843.96198
942.0 0.001062 486.34445 827.62811
911.0 0.001098 486.33524 812.61041
933.0 0.001072 486.32587 798.78241
945.0 0.001058 486.31638 786.02850
934.0 0.001071 486.30698 774.24359
935.0 0.001070 486.29742 763.33209
932.0 0.001073 486.28790 753.20801
892.0 0.001121 486.27826 743.79413
890.0 0.001124 486.26877 735.02045
920.0 0.001087 486.25912 726.82532
940.0 0.001064 486.24939 719.15302
904.0 0.001106 486.23972 711.95453
897.0 0.001115 486.23001 705.18640
900.0 0.001111 486.22025 698.80920
896.0 0.001116 486.21048 692.78925
878.0 0.001139 486.20053 687.09576
933.0 0.001072 486.19080 681.70184
936.0 0.001068 486.18082 676.58386
879.0 0.001138 486.17099 671.72058
873.0 0.001145 486.16107 667.09320
850.0 0.001176 486.15100 662.68506
856.0 0.001168 486.14096 658.48138
867.0 0.001153 486.13098 654.46875
826.0 0.001211 486.12085 650.63544
835.0 0.001198 486.11072 646.97076
830.0 0.001205 486.10056 643.46497
828.0 0.001208 486.09045 640.10925
835.0 0.001198 486.08020 636.89587
820.0 0.001220 486.06982 633.81775
815.0 0.001227 486.05972 630.86798
806.0 0.001241 486.04926 628.04059
808.0 0.001238 486.03897 625.33044
834.0 0.001199 486.02856 622.73206
801.0 0.001248 486.01813 620.24078
762.0 0.001312 486.00766 617.85248
766.0 0.001305 485.99719 615.56299
732.0 0.001366 485.98666 613.36859
744.0 0.001344 485.97607 611.26611
776.0 0.001289 485.96552 609.25220
767.0 0.001304 485.95483 607.32410
708.0 0.001412 485.94434 605.47900
687.0 0.001456 485.93356 603.71454
686.0 0.001458 485.92270 602.02881
664.0 0.001506 485.91211 600.41968
679.0 0.001473 485.90128 598.88525
670.0 0.001493 485.89056 597.42413
686.0 0.001458 485.87970 596.03522
695.0 0.001439 485.86880 594.71722
677.0 0.001477 485.85785 593.46930
671.0 0.001490 485.84686 592.29114
657.0 0.001522 485.83603 591.18219
664.0 0.001506 485.82495 590.14233
637.0 0.001570 485.81390 589.17188
619.0 0.001616 485.80283 588.27094
615.0 0.001626 485.79172 587.44037
605.0 0.001653 485.78061 586.68121
574.0 0.001742 485.76929 585.99432
564.0 0.001773 485.75821 585.38190
580.0 0.001724 485.74692 584.84509
586.0 0.001706 485.73575 584.38629
585.0 0.001709 485.72430 584.00763
577.0 0.001733 485.71304 583.71204
577.0 0.001733 485.70163 583.50232
592.0 0.001689 485.69016 583.38153
598.0 0.001672 485.67877 583.35352
557.0 0.001795 485.66718 583.42151
556.0 0.001799 485.65576 583.58972
567.0 0.001764 485.64426 589.20453
557.0 0.001795 485.63269 589.61749
571.0 0.001751 485.62106 590.14349
579.0 0.001727 485.60938 590.78662
565.0 0.001770 485.59769 591.55139
606.0 0.001650 485.58603 592.44208
578.0 0.001730 485.57425 593.46289
558.0 0.001792 485.56253 594.61816
564.0 0.001773 485.55078 595.91095
568.0 0.001761 485.53888 597.34503
565.0 0.001770 485.52698 598.92383
563.0 0.001776 485.51517 600.64893
595.0 0.001681 485.50308 602.52277
606.0 0.001650 485.49118 604.54620
592.0 0.001689 485.47922 606.71979
590.0 0.001695 485.46707 609.04266
600.0 0.001667 485.45511 611.51312
596.0 0.001678 485.44290 614.12823
620.0 0.001613 485.43082 616.88361
601.0 0.001664 485.41873 619.77350
616.0 0.001623 485.40643 622.78992
640.0 0.001563 485.39426 625.92401
670.0 0.001493 485.38199 629.16376
674.0 0.001484 485.36960 632.49524
662.0 0.001511 485.35727 635.90234
649.0 0.001541 485.34497 639.36597
672.0 0.001488 485.33252 642.86456
670.0 0.001493 485.32016 646.37366
691.0 0.001447 485.30765 649.86633
669.0 0.001495 485.29514 653.31195
652.0 0.001534 485.28259 656.67914
647.0 0.001546 485.27005 659.93323
681.0 0.001468 485.25748 663.03851
674.0 0.001484 485.24475 665.95935
667.0 0.001499 485.23203 668.65936
679.0 0.001473 485.21948 671.10406
685.0 0.001460 485.20673 673.26172
741.0 0.001350 485.19391 675.10406
729.0 0.001372 485.18103 676.60883
734.0 0.001362 485.16840 677.75964
718.0 0.001393 485.15536 678.54785
702.0 0.001425 485.14252 678.97327
704.0 0.001420 485.12964 679.04401
696.0 0.001437 485.11658 678.77673
673.0 0.001486 485.10361 678.19598
670.0 0.001493 485.09061 677.33289
676.0 0.001479 485.07748 676.22485
678.0 0.001475 485.06451 674.91290
689.0 0.001451 485.05136 673.44110
686.0 0.001458 485.03815 671.85474
687.0 0.001456 485.02493 670.19995
673.0 0.001486 485.01172 668.52130
660.0 0.001515 484.99850 666.86273
659.0 0.001517 484.98520 665.26556
659.0 0.001517 484.97186 663.76978
639.0 0.001565 484.95853 662.41309
622.0 0.001608 484.94513 661.23145
631.0 0.001585 484.93161 660.25873
654.0 0.001529 484.91830 659.52808
630.0 0.001587 484.90475 659.07025
638.0 0.001567 484.89120 658.91724
662.0 0.001511 484.87759 659.09869
669.0 0.001495 484.86401 659.64471
678.0 0.001475 484.85043 660.58588
656.0 0.001524 484.83676 661.95251
666.0 0.001502 484.82303 663.77539
655.0 0.001527 484.80933 666.08600
633.0 0.001580 484.79556 668.91626
635.0 0.001575 484.78174 672.29858
648.0 0.001543 484.76794 676.26593
657.0 0.001522 484.75415 680.85211
668.0 0.001497 484.74020 686.09070
685.0 0.001460 484.72635 692.01575
693.0 0.001443 484.71240 698.66144
683.0 0.001464 484.69836 706.06122
712.0 0.001404 484.68436 714.24786
708.0 0.001412 484.67035 723.25372
706.0 0.001416 484.65625 733.10907
725.0 0.001379 484.64203 743.84302
706.0 0.001416 484.62799 755.48169
747.0 0.001339 484.61377 768.04907
768.0 0.001302 484.59958 781.56543
749.0 0.001335 484.58530 796.04706
794.0 0.001259 484.57095 811.50610
769.0 0.001300 484.55664 827.94836
769.0 0.001300 484.54236 845.37463
770.0 0.001299 484.52792 863.77832
774.0 0.001292 484.51346 883.14465
843.0 0.001186 484.49911 903.45068
821.0 0.001218 484.48450 924.66351
888.0 0.001126 484.47003 946.73981
908.0 0.001101 484.45547 969.62476
887.0 0.001127 484.44095 993.25183
910.0 0.001099 484.42636 1017.54272
892.0 0.001121 484.41162 1042.40698
908.0 0.001101 484.39700 1067.74353
957.0 0.001045 484.38229 1093.44080
976.0 0.001025 484.36749 1119.38049
999.0 0.001001 484.35278 1145.43970
1038.0 0.000963 484.33798 1171.49463
1079.0 0.000927 484.32318 1197.42517
1079.0 0.000927 484.30820 1223.12122
1108.0 0.000903 484.29333 1248.48743
1107.0 0.000903 484.27841 1273.44934
1127.0 0.000887 484.26340 1297.95886
1157.0 0.000864 484.24829 1321.99792
1152.0 0.000868 484.23334 1345.57971
1191.0 0.000840 484.21832 1368.74854
1235.0 0.000810 484.20316 1391.57605
1255.0 0.000797 484.18796 1414.15442
1316.0 0.000760 484.17285 1436.58899
1371.0 0.000729 484.15759 1458.98779
1382.0 0.000724 484.14240 1481.45215
1374.0 0.000728 484.12711 1504.06689
1389.0 0.000720 484.11185 1526.89111
1465.0 0.000683 484.09637 1549.95154
1497.0 0.000668 484.08115 1573.23560
1530.0 0.000654 484.06570 1596.68835
1626.0 0.000615 484.05026 1620.20862
1669.0 0.000599 484.03482 1643.64819
1723.0 0.000580 484.01926 1666.81128
1738.0 0.000575 484.00378 1689.45703
1855.0 0.000539 483.98825 1711.30176
1835.0 0.000545 483.97263 1732.02417
1931.0 0.000518 483.95691 1751.27209
2094.0 0.000478 483.94125 1768.67078
2094.0 0.000478 483.92563 1783.83386
2120.0 0.000472 483.90976 1796.37537
2157.0 0.000464 483.89410 1805.92407
2216.0 0.000451 483.87830 1812.13818
2172.0 0.000460 483.86243 1814.72180
2184.0 0.000458 483.84659 1813.43823
2207.0 0.000453 483.83069 1808.12463
2210.0 0.000452 483.81464 1798.69971
2156.0 0.000464 483.79874 1785.17151
2081.0 0.000481 483.78281 1767.63684
1986.0 0.000504 483.76678 1746.27710
1941.0 0.000515 483.75076 1721.34961
1919.0 0.000521 483.73465 1692.91785
1840.0 0.000543 483.71844 1661.86426
1812.0 0.000552 483.70236 1628.32996
1768.0 0.000566 483.68613 1592.72974
1711.0 0.000584 483.66989 1555.47827
1670.0 0.000599 483.65363 1516.97961
1578.0 0.000634 483.63733 1477.61597
1514.0 0.000661 483.62109 1437.74219
1464.0 0.000683 483.60464 1397.68091
1388.0 0.000720 483.58835 1357.72034
1338.0 0.000747 483.57190 1318.11426
1244.0 0.000804 483.55557 1279.08276
1192.0 0.000839 483.53891 1240.81458
1100.0 0.000909 483.52252 1203.46838
1045.0 0.000957 483.50583 1167.17639
1028.0 0.000973 483.48929 1132.04590
1021.0 0.000979 483.47256 1098.16272
978.0 0.001022 483.45596 1065.59290
929.0 0.001076 483.43936 1034.38477
896.0 0.001116 483.42261 1004.57166
889.0 0.001125 483.40579 976.17242
856.0 0.001168 483.38901 949.19348
801.0 0.001248 483.37228 923.63116
805.0 0.001242 483.35538 899.47119
785.0 0.001274 483.33850 876.69171
737.0 0.001357 483.32159 855.26300
714.0 0.001401 483.30469 835.14899
725.0 0.001379 483.28781 816.30841
717.0 0.001395 483.27072 798.69562
697.0 0.001435 483.25363 782.26105
704.0 0.001420 483.23657 766.95294
702.0 0.001425 483.21951 752.71674
693.0 0.001443 483.20236 739.49738
684.0 0.001462 483.18527 727.23865
679.0 0.001473 483.16800 715.88409
658.0 0.001520 483.15073 705.37817
642.0 0.001558 483.13351 695.66571
628.0 0.001592 483.11621 686.69360
610.0 0.001639 483.09891 678.40955
617.0 0.001621 483.08148 670.76373
628.0 0.001592 483.06418 663.70850
679.0 0.001473 483.04660 657.19824
661.0 0.001513 483.02914 651.18982
634.0 0.001577 483.01169 645.64331
657.0 0.001522 482.99420 640.52039
629.0 0.001590 482.97662 635.78601
610.0 0.001639 482.95895 631.40765
597.0 0.001675 482.94144 627.35516
596.0 0.001678 482.92371 623.60059
588.0 0.001701 482.90604 620.11865
593.0 0.001686 482.88828 616.88635
595.0 0.001681 482.87051 613.88220
580.0 0.001724 482.85278 611.08740
571.0 0.001751 482.83493 608.48438
614.0 0.001629 482.81717 606.05792
605.0 0.001653 482.79929 603.79358
598.0 0.001672 482.78143 601.67889
604.0 0.001656 482.76337 599.70270
608.0 0.001645 482.74536 597.85468
579.0 0.001727 482.72742 596.12585
601.0 0.001664 482.70935 594.50836
595.0 0.001681 482.69122 592.99445
571.0 0.001751 482.67313 591.57800
577.0 0.001733 482.65500 590.25348
566.0 0.001767 482.63678 589.01556
567.0 0.001764 482.61871 587.85968
585.0 0.001709 482.60031 586.78186
598.0 0.001672 482.58215 585.77795
612.0 0.001634 482.56369 584.84552
606.0 0.001650 482.54550 583.98120
571.0 0.001751 482.52707 583.18250
569.0 0.001757 482.50873 582.71466
589.0 0.001698 482.49023 582.04193
584.0 0.001712 482.47189 581.42865
575.0 0.001739 482.45334 580.87299
556.0 0.001799 482.43484 580.37347
548.0 0.001825 482.41626 579.92877
542.0 0.001845 482.39777 579.53790
540.0 0.001852 482.37900 579.19983
552.0 0.001812 482.36044 571.81830
568.0 0.001761 482.34164 571.62555
558.0 0.001792 482.32306 571.48267
545.0 0.001835 482.30420 571.38934
545.0 0.001835 482.28543 571.34491
546.0 0.001832 482.26657 571.34924
553.0 0.001808 482.24774 571.40198
551.0 0.001815 482.22891 571.50287
543.0 0.001842 482.20993 571.65204
541.0 0.001848 482.19104 571.84912
544.0 0.001838 482.17200 572.09460
556.0 0.001799 482.15308 572.38861
540.0 0.001852 482.13403 572.73132
532.0 0.001880 482.11490 573.12292
537.0 0.001862 482.09592 573.56415
530.0 0.001887 482.07672 574.05542
540.0 0.001852 482.05759 574.59717
547.0 0.001828 482.03839 575.19049
546.0 0.001832 482.01910 575.83594
534.0 0.001873 481.99979 576.53424
548.0 0.001825 481.98062 577.28680
593.0 0.001686 481.96127 578.09436
560.0 0.001786 481.94193 578.95825
569.0 0.001757 481.92258 581.14655
561.0 0.001783 481.90314 582.13477
570.0 0.001754 481.88367 583.18378
539.0 0.001855 481.86417 584.29517
535.0 0.001869 481.84470 585.47052
532.0 0.001880 481.82504 586.71210
526.0 0.001901 481.80554 588.02167
538.0 0.001859 481.78583 589.40167
539.0 0.001855 481.76627 590.85461
543.0 0.001842 481.74655 592.38287
552.0 0.001812 481.72690 593.98932
562.0 0.001779 481.70715 595.67712
565.0 0.001770 481.68735 597.44928
565.0 0.001770 481.66754 599.30963
594.0 0.001684 481.64780 601.26178
608.0 0.001645 481.62796 603.30988
579.0 0.001727 481.60803 605.45850
589.0 0.001698 481.58813 607.71252
601.0 0.001664 481.56821 610.07751
619.0 0.001616 481.54819 612.55920
637.0 0.001570 481.52817 615.16455
623.0 0.001605 481.50812 617.90045
612.0 0.001634 481.48801 620.77509
615.0 0.001626 481.46796 623.79767
628.0 0.001592 481.44775 626.97821
631.0 0.001585 481.42755 630.32825
618.0 0.001618 481.40735 633.86047
636.0 0.001572 481.38721 637.58984
669.0 0.001495 481.36691 641.53241
683.0 0.001464 481.34656 645.70703
676.0 0.001479 481.32620 650.13550
663.0 0.001508 481.30597 654.84161
667.0 0.001499 481.28543 659.85352
656.0 0.001524 481.26505 665.20239
701.0 0.001427 481.24466 670.92419
739.0 0.001353 481.22415 677.05969
703.0 0.001422 481.20358 683.65503
696.0 0.001437 481.18298 690.76251
726.0 0.001377 481.16254 698.44135
740.0 0.001351 481.14188 706.75763
772.0 0.001295 481.12131 715.78613
773.0 0.001294 481.10056 725.61023
776.0 0.001289 481.07990 736.32227
813.0 0.001230 481.05905 748.02545
841.0 0.001189 481.03836 760.83270
886.0 0.001129 481.01767 774.86865
868.0 0.001152 480.99680 790.26929
892.0 0.001121 480.97592 807.18182
929.0 0.001076 480.95505 825.76544
930.0 0.001075 480.93408 846.19073
982.0 0.001018 480.91312 868.63922
1017.0 0.000983 480.89212 893.30310
1045.0 0.000957 480.87122 920.38354
1031.0 0.000970 480.85016 950.09009
1095.0 0.000913 480.82898 982.63843
1123.0 0.000890 480.80792 1018.24866
1207.0 0.000829 480.78680 1057.14294
1288.0 0.000776 480.76563 1099.54236
1353.0 0.000739 480.74451 1145.66394
1378.0 0.000726 480.72327 1195.71716
1428.0 0.000700 480.70203 1249.90002
1420.0 0.000704 480.68066 1308.39465
1446.0 0.000692 480.65936 1371.36292
1584.0 0.000631 480.63806 1438.94153
1613.0 0.000620 480.61667 1511.23718
1752.0 0.000571 480.59521 1588.32056
1810.0 0.000552 480.57379 1670.22205
1822.0 0.000549 480.55237 1756.92468
1927.0 0.000519 480.53082 1848.35864
1980.0 0.000505 480.50934 1944.39612
2043.0 0.000489 480.48779 2044.84302
2091.0 0.000478 480.46622 2149.43335
2129.0 0.000470 480.44461 2257.82349
2198.0 0.000455 480.42291 2369.58203
2278.0 0.000439 480.40125 2484.18677
2380.0 0.000420 480.37949 2601.01367
2467.0 0.000405 480.35773 2719.33423
2562.0 0.000390 480.33603 2838.30859
2641.0 0.000379 480.31406 2956.98242
2782.0 0.000359 480.29236 3074.28906
2756.0 0.000363 480.27045 3189.04883
2858.0 0.0003499 480.24860 3299.98267
2971.0 0.0003366 480.22668 3405.72217
2986.0 0.0003349 480.20468 3504.83472
3013.0 0.0003319 480.18274 3595.85059
2950.0 0.0003390 480.16080 3677.29907
2952.0 0.0003388 480.13876 3747.75659
3064.0 0.0003264 480.11664 3805.89502
2996.0 0.0003338 480.09451 3850.54077
3085.0 0.0003241 480.07242 3880.72925
3086.0 0.0003240 480.05023 3895.76074
3042.0 0.0003287 480.02811 3895.24292
3018.0 0.0003313 480.00589 3879.12207
3091.0 0.0003235 479.98361 3847.69116
3022.0 0.0003309 479.96130 3801.57739
2975.0 0.0003361 479.93896 3741.71265
3039.0 0.0003291 479.91669 3669.28174
2982.0 0.0003353 479.89420 3585.65967
2809.0 0.000356 479.87192 3492.34644
2773.0 0.000361 479.84952 3390.90186
2819.0 0.000355 479.82690 3282.88794
2759.0 0.000362 479.80453 3169.81934
2677.0 0.000374 479.78195 3053.12793
2601.0 0.000384 479.75943 2934.13916
2551.0 0.000392 479.73679 2814.05566
2504.0 0.000399 479.71432 2693.95313
2392.0 0.000418 479.69165 2574.77808
2330.0 0.000429 479.66898 2457.35498
2217.0 0.000451 479.64633 2342.38965
2184.0 0.000458 479.62357 2230.47998
2075.0 0.000482 479.60092 2122.12109
1953.0 0.000512 479.57800 2017.71838
1853.0 0.000540 479.55524 1917.59204
1728.0 0.000579 479.53238 1821.98462
1670.0 0.000599 479.50952 1731.06995
1650.0 0.000606 479.48657 1644.95862
1576.0 0.000635 479.46368 1563.70471
1482.0 0.000675 479.44077 1487.31030
1397.0 0.000716 479.41779 1415.73389
1340.0 0.000746 479.39468 1348.89282
1278.0 0.000782 479.37183 1286.67102
1184.0 0.000845 479.34869 1228.92346
1168.0 0.000856 479.32550 1175.48010
1143.0 0.000875 479.30240 1126.15234
1090.0 0.000917 479.27921 1080.73584
1066.0 0.000938 479.25601 1039.01648
1033.0 0.000968 479.23276 1000.77179
961.0 0.001041 479.20966 965.77777
910.0 0.001099 479.18625 933.80896
882.0 0.001134 479.16312 904.64276
877.0 0.001140 479.13968 878.06152
839.0 0.001192 479.11636 853.85492
814.0 0.001229 479.09296 831.82062
796.0 0.001256 479.06961 811.76654
787.0 0.001271 479.04614 793.51141
808.0 0.001238 479.02264 776.88538
790.0 0.001266 478.99915 761.73035
762.0 0.001312 478.97568 747.90015
751.0 0.001332 478.95209 735.26074
725.0 0.001379 478.92850 723.68915
729.0 0.001372 478.90488 713.07440
691.0 0.001447 478.88129 703.31525
678.0 0.001475 478.85754 694.32129
694.0 0.001441 478.83389 686.01099
659.0 0.001517 478.81012 678.31201
632.0 0.001582 478.78644 671.16003
645.0 0.001550 478.76251 666.65540
637.0 0.001570 478.73880 660.44519
630.0 0.001587 478.71497 654.62958
619.0 0.001616 478.69101 649.16943
606.0 0.001650 478.66711 644.03052
600.0 0.001667 478.64322 639.18231
601.0 0.001664 478.61932 634.59833
615.0 0.001626 478.59534 630.25549
611.0 0.001637 478.57132 626.13318
591.0 0.001692 478.54733 622.21338
571.0 0.001751 478.52322 618.48035
559.0 0.001789 478.49905 614.91998
595.0 0.001681 478.47504 611.52002
568.0 0.001761 478.45084 608.26947
568.0 0.001761 478.42670 605.15863
575.0 0.001739 478.40250 602.17816
558.0 0.001792 478.37836 599.32074
565.0 0.001770 478.35397 596.57904
550.0 0.001818 478.32971 593.94653
551.0 0.001815 478.30539 591.41730
570.0 0.001754 478.28113 588.98602
563.0 0.001776 478.25674 586.64783
557.0 0.001795 478.23236 584.39795
542.0 0.001845 478.20782 582.23218
551.0 0.001815 478.18338 580.14685
587.0 0.001704 478.15897 578.13788
558.0 0.001792 478.13452 576.20227
570.0 0.001754 478.11005 574.60590
551.0 0.001815 478.08542 572.80847
562.0 0.001779 478.06076 571.07532
559.0 0.001789 478.03622 569.40363
543.0 0.001842 478.01160 567.79089
541.0 0.001848 477.98691 566.23492
539.0 0.001855 477.96219 564.73340
532.0 0.001880 477.93756 563.36920
551.0 0.001815 477.91269 561.97101
550.0 0.001818 477.88800 560.62109
519.0 0.001927 477.86322 559.31805
517.0 0.001934 477.83838 558.06006
533.0 0.001876 477.81357 556.84552
540.0 0.001852 477.78867 555.67279
539.0 0.001855 477.76379 554.54083
538.0 0.001859 477.73886 553.44794
514.0 0.001946 477.71381 552.39288
509.0 0.001965 477.68887 551.20398
510.0 0.001961 477.66385 550.22198
509.0 0.001965 477.63879 549.27435
519.0 0.001927 477.61374 548.36017
504.0 0.001984 477.58862 547.47839
500.0 0.002000 477.56345 546.62817
502.0 0.001992 477.53836 545.80835
506.0 0.001976 477.51321 545.01837
515.0 0.001942 477.48807 544.25739
507.0 0.001972 477.46280 543.52460
546.0 0.001832 477.43762 542.81952
552.0 0.001812 477.41235 542.14117
525.0 0.001905 477.38702 541.48901
520.0 0.001923 477.36169 540.86285
511.0 0.001957 477.33630 540.26178
497.0 0.002012 477.31100 539.68518
485.0 0.002062 477.28561 539.13287
516.0 0.001938 477.26007 538.60425
516.0 0.001938 477.23465 538.09894
520.0 0.001923 477.20920 537.61670
525.0 0.001905 477.18372 537.15692
530.0 0.001887 477.15817 536.71948
535.0 0.001869 477.13260 536.30408
539.0 0.001855 477.10709 535.91052
531.0 0.001883 477.08139 535.53839
562.0 0.001779 477.05576 535.18762
551.0 0.001815 477.03006 534.85803
562.0 0.001779 477.00439 534.54950
569.0 0.001757 476.97873 534.26190
552.0 0.001812 476.95288 533.99524
548.0 0.001825 476.92722 533.74939
535.0 0.001869 476.90140 533.52411
557.0 0.001795 476.87567 533.32001
551.0 0.001815 476.84982 533.13672
555.0 0.001802 476.82401 532.97412
560.0 0.001786 476.79807 532.83295
563.0 0.001776 476.77209 532.71307
559.0 0.001789 476.74631 532.61475
557.0 0.001795 476.72028 532.53802
547.0 0.001828 476.69431 532.48358
562.0 0.001779 476.66824 532.45166
575.0 0.001739 476.64227 532.44275
576.0 0.001736 476.61609 532.45715
574.0 0.001742 476.59012 532.49548
600.0 0.001667 476.56403 532.55890
587.0 0.001704 476.53796 532.64746
585.0 0.001709 476.51172 532.76239
585.0 0.001709 476.48557 532.90466
620.0 0.001613 476.45935 533.07550
603.0 0.001658 476.43301 533.27588
593.0 0.001686 476.40680 533.50732
598.0 0.001672 476.38058 533.77136
614.0 0.001629 476.35419 534.06989
618.0 0.001618 476.32785 534.40472
601.0 0.001664 476.30157 534.77814
601.0 0.001664 476.27521 535.19250
610.0 0.001639 476.24872 535.65063
636.0 0.001572 476.22235 536.15546
658.0 0.001520 476.19589 536.71027
642.0 0.001558 476.16940 537.31891
640.0 0.001563 476.14291 537.98523
623.0 0.001605 476.11652 538.71368
622.0 0.001608 476.08994 539.50873
624.0 0.001603 476.06335 540.37610
617.0 0.001621 476.03671 541.32086
612.0 0.001634 476.01010 542.34943
621.0 0.001610 475.98358 543.46851
634.0 0.001577 475.95685 544.68463
607.0 0.001647 475.93015 546.00525
607.0 0.001647 475.90344 547.43835
611.0 0.001637 475.87683 548.99219
611.0 0.001637 475.84995 550.67548
615.0 0.001626 475.82321 552.49719
596.0 0.001678 475.79648 554.46692
598.0 0.001672 475.76956 556.59436
612.0 0.001634 475.74268 558.88953
591.0 0.001692 475.71579 561.36279
628.0 0.001592 475.68896 564.02472
638.0 0.001567 475.66202 566.88593
624.0 0.001603 475.63519 569.95709
588.0 0.001701 475.60822 573.24890
596.0 0.001678 475.58118 576.77209
613.0 0.001631 475.55417 580.53760
617.0 0.001621 475.52719 584.55554
631.0 0.001585 475.50003 588.83630
627.0 0.001595 475.47305 593.38971
610.0 0.001639 475.44598 598.22540
621.0 0.001610 475.41876 603.35199
617.0 0.001621 475.39166 608.77820
622.0 0.001608 475.36459 614.51172
605.0 0.001653 475.33740 620.55908
591.0 0.001692 475.31018 626.92651
603.0 0.001658 475.28305 633.61829
611.0 0.001637 475.25568 638.32623
628.0 0.001592 475.22842 645.68671
647.0 0.001546 475.20105 653.37579
648.0 0.001543 475.17377 661.39166
664.0 0.001506 475.14642 669.72919
681.0 0.001468 475.11902 678.38123
650.0 0.001538 475.09171 687.33838
658.0 0.001520 475.06430 696.58832
652.0 0.001534 475.03683 706.11664
660.0 0.001515 475.00946 715.90668
684.0 0.001462 474.98196 725.94098
706.0 0.001416 474.95453 736.20093
726.0 0.001377 474.92688 746.66870
743.0 0.001346 474.89944 757.32794
741.0 0.001350 474.87198 768.16583
712.0 0.001404 474.84439 779.17322
753.0 0.001328 474.81677 790.34766
783.0 0.001277 474.78922 801.69226
820.0 0.001220 474.76151 813.21869
811.0 0.001233 474.73386 824.94586
835.0 0.001198 474.70621 836.89966
835.0 0.001198 474.67850 849.11169
852.0 0.001174 474.65067 861.61774
851.0 0.001175 474.62308 874.45502
862.0 0.001160 474.59525 887.65924
862.0 0.001160 474.56741 901.26221
887.0 0.001127 474.53967 915.28790
912.0 0.001096 474.51181 929.75037
942.0 0.001062 474.48401 944.65100
973.0 0.001028 474.45615 959.97546
966.0 0.001035 474.42816 975.69244
1003.0 0.000997 474.40033 991.75201
1036.0 0.000965 474.37241 1008.08295
1033.0 0.000968 474.34442 1024.59351
1055.0 0.000948 474.31653 1041.16907
1104.0 0.000906 474.28851 1057.67310
1122.0 0.000891 474.26056 1073.94641
1155.0 0.000866 474.23257 1089.80920
1141.0 0.000876 474.20447 1105.06274
1189.0 0.000841 474.17639 1119.49121
1208.0 0.000828 474.14828 1132.86755
1213.0 0.000824 474.12018 1144.95728
1238.0 0.000808 474.09207 1155.52551
1275.0 0.000784 474.06390 1164.34546
1266.0 0.000790 474.03574 1171.20569
1283.0 0.000779 474.00763 1175.91980
1317.0 0.000759 473.97925 1178.33508
1305.0 0.000766 473.95108 1178.34082
1317.0 0.000759 473.92285 1175.87415
1301.0 0.000769 473.89462 1170.92468
1295.0 0.000772 473.86627 1163.53528
1255.0 0.000797 473.83810 1153.80066
1237.0 0.000808 473.80972 1141.86133
1265.0 0.000791 473.78143 1127.89893
1254.0 0.000797 473.75302 1112.12439
1230.0 0.000813 473.72464 1094.77026
1155.0 0.000866 473.69635 1076.07996
1145.0 0.000873 473.66782 1056.29956
1111.0 0.000900 473.63937 1035.66992
1054.0 0.000949 473.61099 1014.42065
1058.0 0.000945 473.58252 992.76624
986.0 0.001014 473.55389 970.90259
944.0 0.001059 473.52554 949.00671
937.0 0.001067 473.49704 927.23486
902.0 0.001109 473.46844 905.72473
881.0 0.001135 473.43994 884.59454
835.0 0.001198 473.41135 863.94580
820.0 0.001220 473.38269 843.86353
801.0 0.001248 473.35400 824.41785
763.0 0.001311 473.32559 805.66620
758.0 0.001319 473.29684 787.65350
752.0 0.001330 473.26810 770.41357
706.0 0.001416 473.23944 753.97089
667.0 0.001499 473.21091 738.34088
672.0 0.001488 473.18204 723.53076
654.0 0.001529 473.15329 709.54095
616.0 0.001623 473.12448 696.36523
618.0 0.001618 473.09576 683.99200
627.0 0.001595 473.06696 672.40509
631.0 0.001585 473.03815 661.58307
620.0 0.001613 473.00934 651.50244
605.0 0.001653 472.98044 642.13544
612.0 0.001634 472.95160 633.45245
580.0 0.001724 472.92285 625.42218
567.0 0.001764 472.89389 618.01196
593.0 0.001686 472.86493 611.18817
601.0 0.001664 472.83606 604.91687
577.0 0.001733 472.80701 599.16406
583.0 0.001715 472.77817 593.89624
561.0 0.001783 472.74924 589.85577
547.0 0.001828 472.72006 585.46429
561.0 0.001783 472.69110 581.46222
553.0 0.001808 472.66211 577.82007
549.0 0.001821 472.63306 574.50970
540.0 0.001852 472.60400 571.50519
537.0 0.001862 472.57492 568.78107
557.0 0.001795 472.54578 566.31488
555.0 0.001802 472.51666 564.08466
531.0 0.001883 472.48761 562.07111
545.0 0.001835 472.45853 560.25580
541.0 0.001848 472.42932 558.62244
519.0 0.001927 472.40012 557.15582
520.0 0.001923 472.37088 555.84259
524.0 0.001908 472.34167 554.67047
535.0 0.001869 472.31244 553.62872
529.0 0.001890 472.28326 552.70752
513.0 0.001949 472.25406 551.89850
521.0 0.001919 472.22476 551.19391
529.0 0.001890 472.19547 550.58728
538.0 0.001859 472.16623 550.07306
526.0 0.001901 472.13687 549.64600
532.0 0.001880 472.10748 549.30206
528.0 0.001894 472.07825 549.03766
507.0 0.001972 472.04883 548.84979
537.0 0.001862 472.01956 548.73621
535.0 0.001869 471.99008 548.69482
539.0 0.001855 471.96066 548.72437
524.0 0.001908 471.93127 548.82373
506.0 0.001976 471.90189 548.99213
504.0 0.001984 471.87244 549.22980
527.0 0.001898 471.84299 549.53687
537.0 0.001862 471.81342 549.91364
538.0 0.001859 471.78391 550.36145
541.0 0.001848 471.75436 550.88159
557.0 0.001795 471.72488 551.47589
552.0 0.001812 471.69550 552.14667
538.0 0.001859 471.66586 552.89673
557.0 0.001795 471.63623 553.72955
531.0 0.001883 471.60669 554.64886
524.0 0.001908 471.57718 555.65979
541.0 0.001848 471.54758 556.76746
544.0 0.001838 471.51791 557.97852
552.0 0.001812 471.48834 559.30017
548.0 0.001825 471.45865 560.74103
540.0 0.001852 471.42899 562.31067
568.0 0.001761 471.39935 564.02063
562.0 0.001779 471.36960 565.88361
559.0 0.001789 471.34003 567.91437
566.0 0.001767 471.31027 564.79480
583.0 0.001715 471.28055 567.24518
593.0 0.001686 471.25070 569.91962
594.0 0.001684 471.22104 572.84283
630.0 0.001587 471.19125 576.04114
628.0 0.001592 471.16147 579.54498
624.0 0.001603 471.13174 583.38824
614.0 0.001629 471.10187 587.60712
614.0 0.001629 471.07217 592.24347
598.0 0.001672 471.04221 597.34174
609.0 0.001642 471.01236 602.95093
613.0 0.001631 470.98267 609.12433
629.0 0.001590 470.95276 615.91913
646.0 0.001548 470.92282 623.39697
675.0 0.001481 470.89294 631.62335
683.0 0.001464 470.86301 640.66718
686.0 0.001458 470.83322 650.60132
739.0 0.001353 470.80319 661.50134
779.0 0.001284 470.77328 673.44519
775.0 0.001290 470.74335 686.51276
764.0 0.001309 470.71338 700.78491
829.0 0.001206 470.68344 716.34210
850.0 0.001176 470.65350 733.26422
851.0 0.001175 470.62341 751.62854
855.0 0.001170 470.59341 771.50879
851.0 0.001175 470.56348 792.97388
838.0 0.001193 470.53342 816.08594
855.0 0.001170 470.50339 840.89880
917.0 0.001091 470.47324 867.45679
962.0 0.001040 470.44315 895.79236
977.0 0.001024 470.41309 925.92413
978.0 0.001022 470.38309 957.85596
988.0 0.001012 470.35294 991.57343
1058.0 0.000945 470.32285 1027.04309
1072.0 0.000933 470.29266 1064.21021
1118.0 0.000894 470.26270 1102.99548
1168.0 0.000856 470.23251 1143.29395
1202.0 0.000832 470.20233 1184.97217
1219.0 0.000820 470.17224 1227.86523
1246.0 0.000803 470.14212 1271.77563
1284.0 0.000779 470.11185 1316.46887
1328.0 0.000753 470.08167 1362.44641
1341.0 0.000746 470.05154 1407.85461
1313.0 0.000762 470.02118 1453.10840
1373.0 0.000728 469.99109 1497.81323
1480.0 0.000676 469.96085 1541.53479
1462.0 0.000684 469.93057 1583.80029
1415.0 0.000707 469.90039 1624.10693
1442.0 0.000693 469.87009 1661.92651
1472.0 0.000679 469.83972 1696.71851
1481.0 0.000675 469.80960 1727.94360
1499.0 0.000667 469.77930 1755.07910
1538.0 0.000650 469.74887 1777.64038
1558.0 0.000642 469.71863 1795.19873
1521.0 0.000657 469.68829 1807.40393
1548.0 0.000646 469.65802 1814.00183
1551.0 0.000645 469.62766 1814.85120
1500.0 0.000667 469.59738 1809.93115
1550.0 0.000645 469.56711 1799.34692
1516.0 0.000660 469.53662 1783.32361
1513.0 0.000661 469.50635 1762.19531
1471.0 0.000680 469.47583 1736.38745
1463.0 0.000684 469.44559 1706.39575
1451.0 0.000689 469.41519 1672.76196
1459.0 0.000685 469.38474 1636.05225
1413.0 0.000708 469.35437 1596.83472
1374.0 0.000728 469.32401 1555.66479
1363.0 0.000734 469.29349 1513.06921
1303.0 0.000767 469.26306 1469.53796
1296.0 0.000772 469.23270 1425.51892
1293.0 0.000773 469.20221 1381.41296
1269.0 0.000788 469.17172 1337.57654
1224.0 0.000817 469.14120 1294.31934
1200.0 0.000833 469.11087 1251.90918
1175.0 0.000851 469.08032 1210.57227
1146.0 0.000873 469.04990 1170.49744
1112.0 0.000899 469.01944 1131.83801
1051.0 0.000951 468.98883 1094.71558
1045.0 0.000957 468.95844 1059.22192
1024.0 0.000977 468.92798 1025.42126
963.0 0.001038 468.89734 993.35315
911.0 0.001098 468.86679 963.03485
869.0 0.001151 468.83630 934.46375
872.0 0.001147 468.80569 907.61884
864.0 0.001157 468.77518 882.46405
854.0 0.001171 468.74451 858.95038
827.0 0.001209 468.71402 837.01807
802.0 0.001247 468.68350 816.59900
765.0 0.001307 468.65292 797.61951
755.0 0.001325 468.62238 780.00238
771.0 0.001297 468.59177 763.66919
790.0 0.001266 468.56113 748.54181
766.0 0.001305 468.53058 734.54413
735.0 0.001361 468.50000 721.60370
697.0 0.001435 468.46927 709.65210
663.0 0.001508 468.43881 698.62549
653.0 0.001531 468.40814 688.46490
650.0 0.001538 468.37747 679.11670
640.0 0.001563 468.34689 670.53143
616.0 0.001623 468.31622 662.66382
593.0 0.001686 468.28555 655.47375
604.0 0.001656 468.25500 648.92303
602.0 0.001661 468.22433 642.97833
576.0 0.001736 468.19363 637.60864
576.0 0.001736 468.16306 632.78613
562.0 0.001779 468.13232 628.48529
561.0 0.001783 468.10159 624.68304
550.0 0.001818 468.07086 621.35876
554.0 0.001805 468.04022 618.49377
572.0 0.001748 468.00952 616.07080
576.0 0.001736 467.97891 614.07428
586.0 0.001706 467.94815 612.49036
596.0 0.001678 467.91751 611.30536
585.0 0.001709 467.88675 610.50720
571.0 0.001751 467.85605 610.08368
572.0 0.001748 467.82529 610.02313
574.0 0.001742 467.79453 610.31409
584.0 0.001712 467.76395 610.94366
592.0 0.001689 467.73309 611.89984
606.0 0.001650 467.70236 613.16864
586.0 0.001706 467.67175 614.73529
580.0 0.001724 467.64093 616.58337
599.0 0.001669 467.61023 618.69525
591.0 0.001692 467.57956 621.05072
604.0 0.001656 467.54874 623.62769
596.0 0.001678 467.51804 626.40125
616.0 0.001623 467.48727 629.34357
641.0 0.001560 467.45645 632.42401
663.0 0.001508 467.42578 635.60864
648.0 0.001543 467.39502 638.85956
668.0 0.001497 467.36417 642.13568
692.0 0.001445 467.33353 645.39240
694.0 0.001441 467.30273 648.58154
688.0 0.001453 467.27194 652.24701
708.0 0.001412 467.24121 655.15002
714.0 0.001401 467.21030 657.82690
734.0 0.001362 467.17950 660.22260
736.0 0.001359 467.14893 662.28357
735.0 0.001361 467.11795 663.95831
701.0 0.001427 467.08725 665.19965
697.0 0.001435 467.05646 665.96692
725.0 0.001379 467.02563 666.22656
710.0 0.001408 466.99478 665.95483
709.0 0.001410 466.96408 665.13727
705.0 0.001418 466.93317 663.77161
699.0 0.001431 466.90247 661.86578
701.0 0.001427 466.87164 659.43860
678.0 0.001475 466.84085 656.51898
636.0 0.001572 466.81009 653.14380
686.0 0.001458 466.77930 649.35614
660.0 0.001515 466.74850 645.20471
665.0 0.001504 466.71759 640.74042
677.0 0.001477 466.68689 636.01520
668.0 0.001497 466.65607 631.08032
664.0 0.001506 466.62524 625.98584
658.0 0.001520 466.59448 620.77826
633.0 0.001580 466.56363 615.50128
626.0 0.001597 466.53265 610.19427
616.0 0.001623 466.50208 604.89264
597.0 0.001675 466.47122 599.62817
606.0 0.001650 466.44034 594.42792
584.0 0.001712 466.40961 589.31580
606.0 0.001650 466.37872 584.31238
596.0 0.001678 466.34793 579.43451
602.0 0.001661 466.31720 574.69653
565.0 0.001770 466.28641 570.10986
549.0 0.001821 466.25546 565.68378
535.0 0.001869 466.22476 561.42554
548.0 0.001825 466.19388 557.33978
531.0 0.001883 466.16306 553.43030
516.0 0.001938 466.13229 549.69873
530.0 0.001887 466.10147 546.16534
542.0 0.001845 466.07071 542.78979
547.0 0.001828 466.03983 539.58966
555.0 0.001802 466.00909 536.56256
565.0 0.001770 465.97824 533.70435
562.0 0.001779 465.94748 531.01074
559.0 0.001789 465.91663 528.47662
570.0 0.001754 465.88586 526.09662
555.0 0.001802 465.85504 523.86444
545.0 0.001835 465.82434 521.77399
532.0 0.001880 465.79343 519.81860
526.0 0.001901 465.76257 517.99170
517.0 0.001934 465.73190 516.28662
518.0 0.001931 465.70111 514.69629
525.0 0.001905 465.67020 513.21423
533.0 0.001876 465.63965 511.83386
517.0 0.001934 465.60883 510.54868
517.0 0.001934 465.57791 509.35236
535.0 0.001869 465.54715 508.23904
513.0 0.001949 465.51642 507.20270
509.0 0.001965 465.48560 506.23804
515.0 0.001942 465.45490 505.33978
506.0 0.001976 465.42395 504.50299
511.0 0.001957 465.39328 503.72318
512.0 0.001953 465.36258 502.99597
504.0 0.001984 465.33185 502.31711
512.0 0.001953 465.30103 501.68335
523.0 0.001912 465.27029 501.09091
512.0 0.001953 465.23944 500.53674
504.0 0.001984 465.20883 500.01801
514.0 0.001946 465.17792 499.53223
526.0 0.001901 465.14731 499.07654
541.0 0.001848 465.11652 498.64911
536.0 0.001866 465.08575 498.24802
521.0 0.001919 465.05508 497.87137
536.0 0.001866 465.02432 497.51764
549.0 0.001821 464.99344 497.18524
532.0 0.001880 464.96286 496.87311
514.0 0.001946 464.93225 496.57986
514.0 0.001946 464.90155 496.03598
570.0 0.001754 464.87079 495.77939
548.0 0.001825 464.84003 495.53885
513.0 0.001949 464.80933 495.31396
510.0 0.001961 464.77866 495.10376
496.0 0.002016 464.74805 494.90778
514.0 0.001946 464.71722 494.72549
535.0 0.001869 464.68655 494.55627
526.0 0.001901 464.65591 494.40012
524.0 0.001908 464.62524 494.25641
538.0 0.001859 464.59454 494.12491
526.0 0.001901 464.56387 494.00510
522.0 0.001916 464.53326 493.89697
529.0 0.001890 464.50266 493.80063
553.0 0.001808 464.47198 493.71524
551.0 0.001815 464.44131 493.64096
525.0 0.001905 464.41071 493.57785
521.0 0.001919 464.38007 493.52533
514.0 0.001946 464.34943 493.48383
508.0 0.001969 464.31891 493.45306
532.0 0.001880 464.28818 493.43286
540.0 0.001852 464.25763 493.42325
567.0 0.001764 464.22702 493.42447
564.0 0.001773 464.19641 493.43622
556.0 0.001799 464.16595 493.45862
562.0 0.001779 464.13513 493.49179
536.0 0.001866 464.10464 493.53580
559.0 0.001789 464.07413 493.59058
583.0 0.001715 464.04358 493.65622
578.0 0.001730 464.01300 493.73291
583.0 0.001715 463.98251 493.82092
592.0 0.001689 463.95184 492.66266
604.0 0.001656 463.92136 492.78091
606.0 0.001650 463.89081 492.91055
597.0 0.001675 463.86023 493.05206
589.0 0.001698 463.82986 493.20563
571.0 0.001751 463.79929 493.37125
584.0 0.001712 463.76883 493.54926
568.0 0.001761 463.73831 493.74011
569.0 0.001757 463.70779 493.94397
573.0 0.001745 463.67740 494.16098
580.0 0.001724 463.64688 494.39178
588.0 0.001701 463.61646 494.63641
595.0 0.001681 463.58600 494.89563
617.0 0.001621 463.55560 495.16965
589.0 0.001698 463.52505 495.45880
580.0 0.001724 463.49466 495.76379
586.0 0.001706 463.46420 496.08508
588.0 0.001701 463.43384 496.42303
592.0 0.001689 463.40347 496.77859
586.0 0.001706 463.37296 497.15213
570.0 0.001754 463.34265 497.54440
552.0 0.001812 463.31226 497.95630
545.0 0.001835 463.28189 498.38855
554.0 0.001805 463.25150 498.84213
548.0 0.001825 463.22122 499.31787
546.0 0.001832 463.19086 499.81696
556.0 0.001799 463.16052 500.34064
556.0 0.001799 463.13019 500.89017
575.0 0.001739 463.09988 501.46689
578.0 0.001730 463.06958 502.07245
580.0 0.001724 463.03931 502.70862
557.0 0.001795 463.00903 503.37732
538.0 0.001859 462.97867 504.08084
547.0 0.001828 462.94833 504.82129
524.0 0.001908 462.91821 505.60138
531.0 0.001883 462.88797 506.42459
574.0 0.001742 462.85764 507.87103
569.0 0.001757 462.82748 508.79269
550.0 0.001818 462.79730 509.76843
541.0 0.001848 462.76709 510.80225
551.0 0.001815 462.73685 511.89966
545.0 0.001835 462.70667 513.06610
565.0 0.001770 462.67654 514.30792
551.0 0.001815 462.64636 515.63177
563.0 0.001776 462.61615 517.04541
552.0 0.001812 462.58606 518.55719
539.0 0.001855 462.55600 520.17621
552.0 0.001812 462.52585 521.91260
538.0 0.001859 462.49567 523.77710
526.0 0.001901 462.46552 525.78186
537.0 0.001862 462.43552 527.93933
518.0 0.001931 462.40540 530.26367
498.0 0.002008 462.37540 532.76978
536.0 0.001866 462.34531 536.62384
546.0 0.001832 462.31525 539.54919
575.0 0.001739 462.28519 542.70673
571.0 0.001751 462.25516 546.11603
563.0 0.001776 462.22519 549.79675
541.0 0.001848 462.19510 553.76904
548.0 0.001825 462.16522 558.05487
565.0 0.001770 462.13528 562.67596
540.0 0.001852 462.10522 567.65479
542.0 0.001845 462.07532 573.01428
551.0 0.001815 462.04547 578.77734
546.0 0.001832 462.01547 584.96661
570.0 0.001754 461.98553 591.60474
574.0 0.001742 461.95560 598.71356
581.0 0.001721 461.92578 606.31427
599.0 0.001669 461.89590 614.42700
607.0 0.001647 461.86597 623.07037
604.0 0.001656 461.83618 632.26123
622.0 0.001608 461.80630 642.01404
636.0 0.001572 461.77652 652.34143
639.0 0.001565 461.74658 663.25311
628.0 0.001592 461.71680 674.75537
646.0 0.001548 461.68707 686.85071
687.0 0.001456 461.65735 699.53809
735.0 0.001361 461.62753 712.81183
750.0 0.001333 461.59787 726.66107
763.0 0.001311 461.56812 741.06940
769.0 0.001300 461.53836 756.01447
765.0 0.001307 461.50873 771.46655
773.0 0.001294 461.47910 787.38922
788.0 0.001269 461.44931 803.73706
804.0 0.001244 461.41968 820.45593
840.0 0.001190 461.39001 837.48181
910.0 0.001099 461.36041 854.74048
904.0 0.001106 461.33084 872.14685
927.0 0.001079 461.30124 889.60480
925.0 0.001081 461.27164 907.00641
945.0 0.001058 461.24210 924.23419
949.0 0.001054 461.21243 941.16095
971.0 0.001030 461.18295 957.65161
1046.0 0.000956 461.15338 973.56683
1066.0 0.000938 461.12393 988.76501
1090.0 0.000917 461.09442 1003.10779
1104.0 0.000906 461.06488 1016.46362
1098.0 0.000911 461.03546 1028.71387
1097.0 0.000912 461.00592 1039.75830
1103.0 0.000907 460.97656 1049.51917
1121.0 0.000892 460.94717 1057.94653
1129.0 0.000886 460.91776 1065.02161
1262.0 0.000792 460.88834 1070.75720
1282.0 0.000780 460.85907 1075.19922
1250.0 0.000800 460.82965 1078.42358
1200.0 0.000833 460.80029 1080.53357
1203.0 0.000831 460.77100 1081.65295
1176.0 0.000850 460.74167 1081.92200
1179.0 0.000848 460.71231 1081.48950
1202.0 0.000832 460.68311 1080.50647
1157.0 0.000864 460.65381 1079.11963
1102.0 0.000907 460.62448 1077.46716
1090.0 0.000917 460.59531 1075.67236
1062.0 0.000942 460.56613 1073.84143
1048.0 0.000954 460.53693 1072.06006
1111.0 0.000900 460.50769 1070.39197
1092.0 0.000916 460.47855 1068.87744
1073.0 0.000932 460.44934 1067.53333
1053.0 0.000950 460.42026 1066.35242
1007.0 0.000993 460.39111 1065.30359
1009.0 0.000991 460.36206 1064.33386
1000.0 0.001000 460.33292 1063.36890
1023.0 0.000978 460.30389 1062.31445
1058.0 0.000945 460.27484 1061.06091
1019.0 0.000981 460.24585 1059.61597
1007.0 0.000993 460.21680 1057.58350
1008.0 0.000992 460.18777 1054.95825
991.0 0.001009 460.15887 1051.60315
962.0 0.001040 460.12988 1047.39075
975.0 0.001026 460.10092 1042.20557
980.0 0.001020 460.07202 1035.95203
969.0 0.001032 460.04315 1028.55981
965.0 0.001036 460.01431 1019.98724
936.0 0.001068 459.98538 1010.22406
918.0 0.001089 459.95654 999.29279
902.0 0.001109 459.92767 987.24603
903.0 0.001107 459.89880 974.16425
944.0 0.001059 459.87009 960.15167
891.0 0.001122 459.84134 945.32941
866.0 0.001155 459.81253 930.01917
854.0 0.001171 459.78381 913.98376
819.0 0.001221 459.75510 897.55029
829.0 0.001206 459.72635 880.85449
878.0 0.001139 459.69769 864.02539
865.0 0.001156 459.66895 847.18225
809.0 0.001236 459.64047 830.43317
786.0 0.001272 459.61182 811.73120
806.0 0.001241 459.58307 795.46246
783.0 0.001277 459.55463 779.54376
756.0 0.001323 459.52594 764.03778
718.0 0.001393 459.49741 748.99811
726.0 0.001377 459.46884 734.46796
700.0 0.001429 459.44040 720.48322
734.0 0.001362 459.41177 707.07141
689.0 0.001451 459.38345 694.25391
655.0 0.001527 459.35489 682.04535
658.0 0.001520 459.32648 670.45532
668.0 0.001497 459.29819 659.48816
695.0 0.001439 459.26974 649.14374
667.0 0.001499 459.24136 639.41840
658.0 0.001520 459.21307 630.30487
637.0 0.001570 459.18463 621.79266
616.0 0.001623 459.15628 613.86914
629.0 0.001590 459.12805 606.51971
621.0 0.001610 459.09988 599.72778
588.0 0.001701 459.07144 593.47546
589.0 0.001698 459.04321 587.74493
575.0 0.001739 459.01511 582.51666
562.0 0.001779 458.98685 577.77185
562.0 0.001779 458.95871 573.49164
560.0 0.001786 458.93066 569.65808
594.0 0.001684 458.90250 566.25366
570.0 0.001754 458.87442 563.26190
565.0 0.001770 458.84628 560.66858
550.0 0.001818 458.81830 558.45953
537.0 0.001862 458.79019 556.62335
530.0 0.001887 458.76215 555.15015
543.0 0.001842 458.73425 554.03180
568.0 0.001761 458.70618 553.26208
564.0 0.001773 458.67838 552.83679
549.0 0.001821 458.65024 552.75397
550.0 0.001818 458.62228 553.01257
553.0 0.001808 458.59451 553.61444
544.0 0.001838 458.56659 554.56213
549.0 0.001821 458.53885 555.86023
567.0 0.001764 458.51105 557.51447
569.0 0.001757 458.48322 559.53168
561.0 0.001783 458.45544 561.91937
565.0 0.001770 458.42764 564.68585
558.0 0.001792 458.39984 567.83954
574.0 0.001742 458.37216 571.38892
583.0 0.001715 458.34442 575.34186
543.0 0.001842 458.31674 579.70599
577.0 0.001733 458.28909 584.48749
584.0 0.001712 458.26163 589.69135
582.0 0.001718 458.23389 595.32037
597.0 0.001675 458.20630 601.37555
591.0 0.001692 458.17868 607.85529
590.0 0.001695 458.15128 614.75470
587.0 0.001704 458.12378 622.06543
598.0 0.001672 458.09616 629.77563
611.0 0.001637 458.06882 637.86877
605.0 0.001653 458.04138 646.39807
622.0 0.001608 458.01395 655.18890
638.0 0.001567 457.98648 664.28320
655.0 0.001527 457.95920 673.64185
631.0 0.001585 457.93192 683.21967
657.0 0.001522 457.90442 692.96411
672.0 0.001488 457.87720 702.81384
697.0 0.001435 457.84991 712.70020
735.0 0.001361 457.82269 722.54510
731.0 0.001368 457.79547 732.26227
734.0 0.001362 457.76822 741.75677
752.0 0.001330 457.74097 750.92615
731.0 0.001368 457.71390 759.66058
740.0 0.001351 457.68683 767.84564
731.0 0.001368 457.65958 775.36395
752.0 0.001330 457.63257 782.09875
763.0 0.001311 457.60544 787.93622
747.0 0.001339 457.57846 792.77087
753.0 0.001328 457.55151 796.50854
769.0 0.001300 457.52448 799.07153
754.0 0.001326 457.49750 800.40210
770.0 0.001299 457.47061 800.46600
763.0 0.001311 457.44366 799.25293
744.0 0.001344 457.41678 796.77985
750.0 0.001333 457.38992 793.08826
790.0 0.001266 457.36298 788.24286
771.0 0.001297 457.33627 782.32843
756.0 0.001323 457.30945 775.44525
749.0 0.001335 457.28271 767.70477
727.0 0.001376 457.25601 759.22540
724.0 0.001381 457.22919 750.12769
734.0 0.001362 457.20255 740.53040
709.0 0.001410 457.17584 730.54865
699.0 0.001431 457.14914 720.29041
687.0 0.001456 457.12262 709.85583
665.0 0.001504 457.09601 699.33606
656.0 0.001524 457.06949 688.81274
667.0 0.001499 457.04297 678.35852
675.0 0.001481 457.01630 668.03729
655.0 0.001527 456.98984 657.90381
614.0 0.001629 456.96350 648.00586
584.0 0.001712 456.93704 638.38318
584.0 0.001712 456.91064 629.06866
580.0 0.001724 456.88425 620.08997
555.0 0.001802 456.85791 611.46826
549.0 0.001821 456.83151 603.21997
544.0 0.001838 456.80533 595.35645
566.0 0.001767 456.77893 587.88550
550.0 0.001818 456.75269 580.81018
556.0 0.001799 456.72644 574.13098
579.0 0.001727 456.70038 567.84485
574.0 0.001742 456.67407 561.94586
580.0 0.001724 456.64798 556.42603
548.0 0.001825 456.62189 551.27509
528.0 0.001894 456.59573 546.48157
529.0 0.001890 456.56970 542.03125
525.0 0.001905 456.54370 537.91046
522.0 0.001916 456.51764 534.10358
491.0 0.002037 456.49179 530.59448
490.0 0.002041 456.46570 527.36694
498.0 0.002008 456.43982 524.40460
503.0 0.001988 456.41385 521.69098
507.0 0.001972 456.38797 519.20978
486.0 0.002058 456.36197 516.94525
474.0 0.002110 456.33630 514.88184
492.0 0.002033 456.31049 513.00513
510.0 0.001961 456.28476 511.30096
509.0 0.001965 456.25897 509.75589
502.0 0.001992 456.23331 508.35757
501.0 0.001996 456.20758 507.09460
491.0 0.002037 456.18192 505.95566
497.0 0.002012 456.15637 504.93094
513.0 0.001949 456.13071 504.01154
493.0 0.002028 456.10516 503.18887
480.0 0.002083 456.07953 502.45557
488.0 0.002049 456.05408 501.80499
495.0 0.002020 456.02863 501.23077
503.0 0.001988 456.00308 500.72772
492.0 0.002033 455.97760 500.29123
488.0 0.002049 455.95230 499.91684
502.0 0.001992 455.92688 499.60107
508.0 0.001969 455.90158 499.34073
507.0 0.001972 455.87625 499.13315
503.0 0.001988 455.85092 498.97577
489.0 0.002045 455.82562 498.86688
487.0 0.002053 455.80038 498.80457
483.0 0.002070 455.77512 498.78735
473.0 0.002114 455.74994 498.81427
460.0 0.002174 455.72476 498.88409
467.0 0.002141 455.69977 498.99603
499.0 0.002004 455.67459 498.83246
521.0 0.001919 455.64966 499.02817
494.0 0.002024 455.62451 499.26370
491.0 0.002037 455.59949 499.53864
490.0 0.002041 455.57462 499.85275
481.0 0.002079 455.54947 500.42371
483.0 0.002070 455.52466 500.81500
483.0 0.002070 455.49979 501.24359
459.0 0.002179 455.47488 501.70847
464.0 0.002155 455.45001 502.20938
495.0 0.002020 455.42517 502.74472
494.0 0.002024 455.40048 503.31406
493.0 0.002028 455.37570 503.91592
484.0 0.002066 455.35101 504.54910
482.0 0.002075 455.32629 505.21204
495.0 0.002020 455.30176 505.90302
493.0 0.002028 455.27713 506.62030
515.0 0.001942 455.25244 507.36151
515.0 0.001942 455.22781 508.12473
495.0 0.002020 455.20334 508.90753
512.0 0.001953 455.17880 509.70743
521.0 0.001919 455.15430 510.52197
512.0 0.001953 455.12991 511.34891
521.0 0.001919 455.10544 512.18597
538.0 0.001859 455.08096 513.03156
528.0 0.001894 455.05661 513.88416
516.0 0.001938 455.03232 514.74341
529.0 0.001890 455.00787 515.60944
530.0 0.001887 454.98370 516.48383
500.0 0.002000 454.95950 517.36871
504.0 0.001984 454.93530 518.26807
526.0 0.001901 454.91116 519.18738
523.0 0.001912 454.88687 520.13348
508.0 0.001969 454.86270 521.11401
517.0 0.001934 454.83865 522.13947
521.0 0.001919 454.81461 523.22058
524.0 0.001908 454.79068 524.37030
497.0 0.002012 454.76654 525.60254
503.0 0.001988 454.74258 526.93231
503.0 0.001988 454.71857 528.37634
503.0 0.001988 454.69476 529.95190
523.0 0.001912 454.67093 531.67792
527.0 0.001898 454.64700 533.57416
539.0 0.001855 454.62314 535.66180
540.0 0.001852 454.59933 537.96326
550.0 0.001818 454.57562 540.50153
544.0 0.001838 454.55191 543.30157
535.0 0.001869 454.52805 546.38934
546.0 0.001832 454.50455 549.79150
573.0 0.001745 454.48083 553.53619
585.0 0.001709 454.45718 557.65265
583.0 0.001715 454.43372 562.17108
561.0 0.001783 454.41019 567.12195
594.0 0.001684 454.38654 572.53674
595.0 0.001681 454.36316 578.44702
583.0 0.001715 454.33966 584.88477
581.0 0.001721 454.31622 591.88110
590.0 0.001695 454.29288 599.46704
600.0 0.001667 454.26953 607.67200
630.0 0.001587 454.24615 616.52441
649.0 0.001541 454.22287 626.05072
690.0 0.001449 454.19958 636.27466
689.0 0.001451 454.17630 647.21692
687.0 0.001456 454.15311 658.89508
715.0 0.001399 454.13000 671.32239
714.0 0.001401 454.10684 684.50726
711.0 0.001406 454.08368 698.45282
722.0 0.001385 454.06064 713.15674
723.0 0.001383 454.03763 728.60883
727.0 0.001376 454.01462 745.14978
740.0 0.001351 453.99158 762.04272
730.0 0.001370 453.96869 779.60913
749.0 0.001335 453.94571 797.80573
787.0 0.001271 453.92291 816.57861
808.0 0.001238 453.89990 835.86267
831.0 0.001203 453.87708 855.58032
812.0 0.001232 453.85446 875.64111
840.0 0.001190 453.83157 895.93927
870.0 0.001149 453.80884 916.35583
876.0 0.001142 453.78619 936.75513
903.0 0.001107 453.76343 956.98615
904.0 0.001106 453.74084 976.88324
920.0 0.001087 453.71823 996.26587
989.0 0.001011 453.69565 1014.94141
1025.0 0.000976 453.67313 1032.70825
1020.0 0.000980 453.65060 1049.35864
1007.0 0.000993 453.62811 1064.68579
1021.0 0.000979 453.60574 1078.48840
1036.0 0.000965 453.58328 1090.57874
1055.0 0.000948 453.56100 1100.79114
1074.0 0.000931 453.53860 1108.98792
1031.0 0.000970 453.51633 1115.06934
1065.0 0.000939 453.49396 1118.97607
1085.0 0.000922 453.47171 1120.69739
1068.0 0.000936 453.44946 1120.27002
1041.0 0.000961 453.42746 1117.77832
1001.0 0.000999 453.40512 1113.35107
1027.0 0.000974 453.38306 1107.15540
1028.0 0.000973 453.36096 1099.38928
1047.0 0.000955 453.33887 1090.27368
1050.0 0.000952 453.31689 1080.04358
1024.0 0.000977 453.29483 1068.93921
1002.0 0.000998 453.27295 1057.19861
1009.0 0.000991 453.25107 1045.05334
986.0 0.001014 453.22913 1032.72058
976.0 0.001025 453.20721 1020.40302
984.0 0.001016 453.18542 1008.28412
994.0 0.001006 453.16360 996.52820
1002.0 0.000998 453.14194 985.27942
976.0 0.001025 453.12021 974.66229
971.0 0.001030 453.09833 964.78149
954.0 0.001048 453.07678 955.72321
934.0 0.001071 453.05518 947.55444
884.0 0.001131 453.03357 940.32544
889.0 0.001125 453.01190 934.06897
872.0 0.001147 452.99042 928.80096
875.0 0.001143 452.96881 924.52100
902.0 0.001109 452.94736 921.21362
945.0 0.001058 452.92603 918.84607
945.0 0.001058 452.90460 917.37170
918.0 0.001089 452.88321 916.72711
923.0 0.001083 452.86188 916.83447
918.0 0.001089 452.84055 917.60040
933.0 0.001072 452.81937 918.91870
966.0 0.001035 452.79807 920.66809
951.0 0.001052 452.77689 922.71643
921.0 0.001086 452.75571 924.92065
945.0 0.001058 452.73456 927.13013
977.0 0.001024 452.71338 929.18890
965.0 0.001036 452.69235 930.94031
989.0 0.001011 452.67136 932.23047
993.0 0.001007 452.65030 932.91333
1013.0 0.000987 452.62927 932.85529
1020.0 0.000980 452.60837 931.94086
1061.0 0.000943 452.58746 930.07629
1026.0 0.000975 452.56659 927.19385
1036.0 0.000965 452.54568 923.25427
1049.0 0.000953 452.52493 918.24792
1021.0 0.000979 452.50412 912.19434
1032.0 0.000969 452.48343 905.14044
1008.0 0.000992 452.46280 897.15747
1014.0 0.000986 452.44202 888.33679
962.0 0.001040 452.42130 878.78503
927.0 0.001079 452.40079 868.61896
923.0 0.001083 452.38016 857.96069
892.0 0.001121 452.35956 846.93378
862.0 0.001160 452.33911 835.65924
889.0 0.001125 452.31860 824.25226
884.0 0.001131 452.29813 812.82092
864.0 0.001157 452.27771 801.46448
842.0 0.001188 452.25739 790.27197
835.0 0.001198 452.23703 779.32312
844.0 0.001185 452.21674 768.68695
838.0 0.001193 452.19650 758.42267
779.0 0.001284 452.17615 748.58026
773.0 0.001294 452.15594 739.20044
749.0 0.001335 452.13580 730.31580
724.0 0.001381 452.11560 721.94995
683.0 0.001464 452.09552 714.11920
692.0 0.001445 452.07547 706.83215
668.0 0.001497 452.05539 700.09100
674.0 0.001484 452.03531 693.89044
725.0 0.001379 452.01550 688.21844
674.0 0.001484 451.99542 683.05731
655.0 0.001527 451.97546 678.38269
649.0 0.001541 451.95563 674.16455
660.0 0.001515 451.93582 670.36688
660.0 0.001515 451.91592 666.94952
657.0 0.001522 451.89627 663.86646
674.0 0.001484 451.87650 661.06842
662.0 0.001511 451.85672 658.50256
657.0 0.001522 451.83725 656.11420
639.0 0.001565 451.81747 653.84760
608.0 0.001645 451.79788 651.64801
621.0 0.001610 451.77823 649.46191
615.0 0.001626 451.75873 647.24078
620.0 0.001613 451.73920 644.94110
626.0 0.001597 451.71976 642.52655
636.0 0.001572 451.70016 639.96948
637.0 0.001570 451.68085 637.25098
627.0 0.001595 451.66150 634.36243
648.0 0.001543 451.64212 631.30475
611.0 0.001637 451.62277 628.08752
594.0 0.001684 451.60345 624.72858
609.0 0.001642 451.58429 621.25220
629.0 0.001590 451.56512 617.68738
622.0 0.001608 451.54584 614.06653
625.0 0.001600 451.52673 610.42383
603.0 0.001658 451.50760 606.79376
606.0 0.001650 451.48846 603.21008
602.0 0.001661 451.46948 599.70453
589.0 0.001698 451.45047 596.30713
578.0 0.001730 451.43152 593.04510
574.0 0.001742 451.41260 589.94232
599.0 0.001669 451.39359 587.01984
615.0 0.001626 451.37479 584.29565
600.0 0.001667 451.35602 581.78473
588.0 0.001701 451.33707 579.49884
564.0 0.001773 451.31818 577.44702
587.0 0.001704 451.29956 574.20514
583.0 0.001715 451.28088 572.64423
573.0 0.001745 451.26218 571.32654
565.0 0.001770 451.24350 570.25000
595.0 0.001681 451.22491 569.40906
591.0 0.001692 451.20636 568.79572
561.0 0.001783 451.18768 568.39923
564.0 0.001773 451.16922 568.20563
584.0 0.001712 451.15073 568.19824
574.0 0.001742 451.13232 568.35785
581.0 0.001721 451.11395 568.66174
580.0 0.001724 451.09549 569.08502
562.0 0.001779 451.07715 569.59979
572.0 0.001748 451.05887 570.17572
573.0 0.001745 451.04065 570.79803
577.0 0.001733 451.02243 571.39722
580.0 0.001724 451.00418 571.95538
596.0 0.001678 450.98596 572.43652
595.0 0.001681 450.96771 572.80554
597.0 0.001675 450.94977 573.02783
600.0 0.001667 450.93155 573.07159
610.0 0.001639 450.91354 572.90887
605.0 0.001653 450.89557 572.51593
625.0 0.001600 450.87759 571.87378
613.0 0.001631 450.85962 570.97083
593.0 0.001686 450.84177 569.80115
563.0 0.001776 450.82376 568.36560
569.0 0.001757 450.80597 566.67133
575.0 0.001739 450.78809 564.73151
554.0 0.001805 450.77045 562.56403
589.0 0.001698 450.75266 560.19104
575.0 0.001739 450.73480 557.63708
578.0 0.001730 450.71729 554.92889
554.0 0.001805 450.69958 552.09393
554.0 0.001805 450.68195 549.15948
552.0 0.001812 450.66440 546.15173
543.0 0.001842 450.64682 543.09625
534.0 0.001873 450.62933 540.01630
538.0 0.001859 450.61176 536.93329
526.0 0.001901 450.59439 533.86664
525.0 0.001905 450.57690 530.83405
511.0 0.001957 450.55954 527.85059
522.0 0.001916 450.54218 524.92987
511.0 0.001957 450.52487 522.08368
506.0 0.001976 450.50754 519.32208
508.0 0.001969 450.49030 516.65350
504.0 0.001984 450.47308 514.08539
516.0 0.001938 450.45596 511.62381
496.0 0.002016 450.43869 509.27325
481.0 0.002079 450.42160 507.03802
476.0 0.002101 450.40445 504.92084
480.0 0.002083 450.38748 502.92371
507.0 0.001972 450.37042 501.04831
500.0 0.002000 450.35333 499.29514
494.0 0.002024 450.33658 497.66452
484.0 0.002066 450.31955 496.15598
494.0 0.002024 450.30264 494.76880
480.0 0.002083 450.28580 493.50168
474.0 0.002110 450.26898 492.35342
475.0 0.002105 450.25217 491.32220
490.0 0.002041 450.23541 490.40619
476.0 0.002101 450.21869 489.60291
484.0 0.002066 450.20190 488.91071
500.0 0.002000 450.18527 487.73450
510.0 0.001961 450.16861 487.26068
509.0 0.001965 450.15201 486.89066
498.0 0.002008 450.13547 486.62225
483.0 0.002070 450.11905 486.45291
479.0 0.002088 450.10239 486.38019
474.0 0.002110 450.08594 486.40201
479.0 0.002088 450.06940 486.51578
491.0 0.002037 450.05304 486.71896
492.0 0.002033 450.03665 487.00940
498.0 0.002008 450.02036 487.38422
486.0 0.002058 450.00400 487.84085
469.0 0.002132 449.98764 488.37656
463.0 0.002160 449.97141 488.98834
477.0 0.002096 449.95526 489.67294
468.0 0.002137 449.93900 490.42700
480.0 0.002083 449.92288 491.24652
477.0 0.002096 449.90677 492.12726
472.0 0.002119 449.89063 493.06485
463.0 0.002160 449.87466 494.05392
461.0 0.002169 449.85867 495.08871
480.0 0.002083 449.84262 496.16309
483.0 0.002070 449.82657 497.26956
484.0 0.002066 449.81070 498.40021
492.0 0.002033 449.79480 499.54651
506.0 0.001976 449.77893 500.69839
504.0 0.001984 449.76309 501.84518
490.0 0.002041 449.74731 502.97583
470.0 0.002128 449.73148 504.07687
497.0 0.002012 449.71573 505.13565
514.0 0.001946 449.70004 506.13809
503.0 0.001988 449.68439 507.06982
505.0 0.001980 449.66876 507.91617
504.0 0.001984 449.65302 508.66330
517.0 0.001934 449.63742 509.29758
508.0 0.001969 449.62183 509.80652
490.0 0.002041 449.60648 510.17969
506.0 0.001976 449.59088 510.40845
499.0 0.002004 449.57538 510.48630
507.0 0.001972 449.55997 510.41031
504.0 0.001984 449.54462 510.18002
511.0 0.001957 449.52917 509.79773
536.0 0.001866 449.51398 509.26917
524.0 0.001908 449.49854 508.60229
541.0 0.001848 449.48328 507.80759
502.0 0.001992 449.46814 506.89679
492.0 0.002033 449.45285 505.88339
499.0 0.002004 449.43768 504.78177
488.0 0.002049 449.42245 503.77322
487.0 0.002053 449.40747 502.53882
475.0 0.002105 449.39221 501.25864
480.0 0.002083 449.37726 499.94565
484.0 0.002066 449.36221 498.61240
499.0 0.002004 449.34726 497.26999
495.0 0.002020 449.33237 495.92865
513.0 0.001949 449.31732 494.59781
506.0 0.001976 449.30234 493.28558
491.0 0.002037 449.28751 491.99881
482.0 0.002075 449.27274 490.74442
482.0 0.002075 449.25787 489.52725
478.0 0.002092 449.24304 488.35226
479.0 0.002088 449.22836 487.22348
477.0 0.002096 449.21356 486.14435
468.0 0.002137 449.19879 485.11740
468.0 0.002137 449.18427 484.14505
488.0 0.002049 449.16962 483.22940
483.0 0.002070 449.15494 482.37152
473.0 0.002114 449.14041 481.57288
498.0 0.002008 449.12576 480.83414
501.0 0.001996 449.11127 480.15625
482.0 0.002075 449.09689 479.53928
483.0 0.002070 449.08231 478.98349
464.0 0.002155 449.06799 478.48941
464.0 0.002155 449.05353 478.05682
471.0 0.002123 449.03918 477.68597
471.0 0.002123 449.02472 477.37701
477.0 0.002096 449.01056 477.12982
495.0 0.002020 448.99628 476.94504
487.0 0.002053 448.98199 476.82300
495.0 0.002020 448.96774 476.76404
478.0 0.002092 448.95364 476.76910
478.0 0.002092 448.93945 476.83929
476.0 0.002101 448.92514 476.97556
459.0 0.002179 448.91119 477.17963
471.0 0.002123 448.89713 477.45325
463.0 0.002160 448.88293 477.79834
480.0 0.002083 448.86902 478.21756
496.0 0.002016 448.85495 478.71359
500.0 0.002000 448.84100 479.28937
490.0 0.002041 448.82721 479.94812
489.0 0.002045 448.81320 480.69357
486.0 0.002058 448.79935 481.52939
485.0 0.002062 448.78555 482.45981
475.0 0.002105 448.77173 483.48889
481.0 0.002079 448.75793 484.62143
468.0 0.002137 448.74414 485.86145
468.0 0.002137 448.73038 487.21371
478.0 0.002092 448.71671 488.68283
462.0 0.002165 448.70300 490.27313
462.0 0.002165 448.68939 491.98889
468.0 0.002137 448.67575 493.83450
486.0 0.002058 448.66208 495.81317
492.0 0.002033 448.64862 497.92883
491.0 0.002037 448.63507 500.18436
504.0 0.001984 448.62161 502.58160
491.0 0.002037 448.60806 505.12286
506.0 0.001976 448.59467 507.80850
523.0 0.001912 448.58115 510.63901
509.0 0.001965 448.56775 513.61298
518.0 0.001931 448.55457 516.72870
508.0 0.001969 448.54105 519.98260
515.0 0.001942 448.52777 523.37048
534.0 0.001873 448.51456 526.88568
538.0 0.001859 448.50122 530.52081
528.0 0.001894 448.48801 534.26624
517.0 0.001934 448.47482 538.11035
523.0 0.001912 448.46164 542.03912
563.0 0.001776 448.44849 546.03705
571.0 0.001751 448.43536 550.08539
577.0 0.001733 448.42227 554.16260
553.0 0.001808 448.40918 558.24493
567.0 0.001764 448.39624 562.30511
589.0 0.001698 448.38309 566.31342
590.0 0.001695 448.37012 570.23700
604.0 0.001656 448.35721 574.04047
620.0 0.001613 448.34433 577.68652
631.0 0.001585 448.33136 581.13574
636.0 0.001572 448.31845 584.34827
641.0 0.001560 448.30560 587.28418
647.0 0.001546 448.29272 589.90466
614.0 0.001629 448.28009 592.17413
618.0 0.001618 448.26718 594.06049
630.0 0.001587 448.25452 595.53735
655.0 0.001527 448.24182 596.58423
673.0 0.001486 448.22906 597.18933
662.0 0.001511 448.21643 597.34888
669.0 0.001495 448.20377 597.06769
680.0 0.001471 448.19107 596.35931
652.0 0.001534 448.17856 595.24567
670.0 0.001493 448.16595 593.75568
648.0 0.001543 448.15344 591.92480
643.0 0.001555 448.14102 589.79285
642.0 0.001558 448.12842 587.40295
611.0 0.001637 448.11591 584.80042
605.0 0.001653 448.10349 582.03088
595.0 0.001681 448.09116 579.13965
645.0 0.001550 448.07870 576.17084
641.0 0.001560 448.06641 573.16656
598.0 0.001672 448.05402 570.16614
591.0 0.001692 448.04181 567.20654
574.0 0.001742 448.02942 564.32202
568.0 0.001761 448.01721 561.54388
546.0 0.001832 448.00497 558.90063
544.0 0.001838 447.99277 556.41864
553.0 0.001808 447.98050 554.12103
542.0 0.001845 447.96844 552.02942
536.0 0.001866 447.95636 550.16296
567.0 0.001764 447.94406 548.53888
579.0 0.001727 447.93204 547.15240
557.0 0.001795 447.91998 546.05707
569.0 0.001757 447.90796 545.24481
565.0 0.001770 447.89590 544.72577
544.0 0.001838 447.88394 544.50854
539.0 0.001855 447.87198 544.60022
525.0 0.001905 447.86008 545.00604
529.0 0.001890 447.84811 545.72998
540.0 0.001852 447.83630 546.77460
534.0 0.001873 447.82428 548.14056
534.0 0.001873 447.81259 549.82697
551.0 0.001815 447.80078 551.83118
546.0 0.001832 447.78891 554.14911
533.0 0.001876 447.77716 556.77472
512.0 0.001953 447.76541 559.70013
525.0 0.001905 447.75354 562.91577
541.0 0.001848 447.74197 566.40930
543.0 0.001842 447.73029 570.16730
545.0 0.001835 447.71851 574.17285
561.0 0.001783 447.70703 578.40747
568.0 0.001761 447.69537 582.84937
559.0 0.001789 447.68372 587.47418
557.0 0.001795 447.67224 592.25409
600.0 0.001667 447.66071 597.15820
601.0 0.001664 447.64917 602.15192
601.0 0.001664 447.63763 607.19659
617.0 0.001621 447.62619 612.25024
644.0 0.001553 447.61475 617.26654
643.0 0.001555 447.60327 622.19519
685.0 0.001460 447.59183 626.98303
661.0 0.001513 447.58054 631.57355
681.0 0.001468 447.56906 635.90771
660.0 0.001515 447.55786 639.92554
657.0 0.001522 447.54639 643.56696
684.0 0.001462 447.53513 646.77356
679.0 0.001473 447.52390 649.48999
682.0 0.001466 447.51263 651.66632
712.0 0.001404 447.50131 653.25934
713.0 0.001403 447.49017 654.23480
711.0 0.001406 447.47897 654.56854
689.0 0.001451 447.46777 654.24799
710.0 0.001408 447.45670 653.27179
721.0 0.001387 447.44553 651.65137
712.0 0.001404 447.43448 649.40863
682.0 0.001466 447.42334 646.57678
715.0 0.001399 447.41229 643.19684
692.0 0.001445 447.40118 639.31744
666.0 0.001502 447.39020 634.99194
629.0 0.001590 447.37927 630.27710
638.0 0.001567 447.36819 625.23083
628.0 0.001592 447.35724 619.91064
646.0 0.001548 447.34625 614.77917
665.0 0.001504 447.33542 609.07770
654.0 0.001529 447.32443 603.26074
617.0 0.001621 447.31369 597.37402
615.0 0.001626 447.30267 591.45898
585.0 0.001709 447.29187 585.55267
584.0 0.001712 447.28113 579.68787
578.0 0.001730 447.27029 573.89404
547.0 0.001828 447.25949 568.19598
557.0 0.001795 447.24872 562.61523
534.0 0.001873 447.23798 557.17059
541.0 0.001848 447.22733 551.87708
576.0 0.001736 447.21655 546.74774
568.0 0.001761 447.20590 541.79248
543.0 0.001842 447.19528 537.01941
538.0 0.001859 447.18457 532.43500
523.0 0.001912 447.17398 528.04279
515.0 0.001942 447.16333 523.84540
517.0 0.001934 447.15271 519.84406
516.0 0.001938 447.14218 516.03821
497.0 0.002012 447.13174 512.42645
484.0 0.002066 447.12109 509.00589
479.0 0.002088 447.11063 505.77316
467.0 0.002141 447.10013 502.72375
468.0 0.002137 447.08963 499.85272
474.0 0.002110 447.07932 497.15405
478.0 0.002092 447.06873 494.62183
480.0 0.002083 447.05832 492.24908
474.0 0.002110 447.04797 490.02911
482.0 0.002075 447.03754 487.95483
496.0 0.002016 447.02716 486.01868
498.0 0.002008 447.01688 484.21362
481.0 0.002079 447.00653 482.53210
472.0 0.002119 446.99622 480.96686
467.0 0.002141 446.98584 479.51062
462.0 0.002165 446.97552 478.15683
462.0 0.002165 446.96536 476.89804
466.0 0.002146 446.95505 475.72821
488.0 0.002049 446.94485 474.64084
471.0 0.002123 446.93466 473.63007
459.0 0.002179 446.92447 472.68985
444.0 0.002252 446.91437 471.81525
439.0 0.002278 446.90411 471.00101
446.0 0.002242 446.89398 470.24222
457.0 0.002188 446.88385 469.53452
474.0 0.002110 446.87369 468.87411
453.0 0.002208 446.86365 468.25681
450.0 0.002222 446.85352 467.67920
447.0 0.002237 446.84341 467.13806
451.0 0.002217 446.83347 466.63055
456.0 0.002193 446.82343 466.15375
464.0 0.002155 446.81342 465.70532
474.0 0.002110 446.80344 465.49411
467.0 0.002141 446.79352 465.09683
460.0 0.002174 446.78342 464.72195
451.0 0.002217 446.77359 463.12070
465.0 0.002151 446.76361 462.79123
459.0 0.002179 446.75369 462.47968
452.0 0.002212 446.74380 462.18460
467.0 0.002141 446.73380 461.90482
465.0 0.002151 446.72397 461.63965
449.0 0.002227 446.71414 461.38782
460.0 0.002174 446.70422 461.14902
446.0 0.002242 446.69443 460.92224
451.0 0.002217 446.68463 460.70688
445.0 0.002247 446.67487 460.50256
444.0 0.002252 446.66510 460.30884
450.0 0.002222 446.65518 460.12509
443.0 0.002257 446.64551 459.95114
480.0 0.002083 446.63571 459.78668
474.0 0.002110 446.62598 459.63135
459.0 0.002179 446.61630 459.48502
456.0 0.002193 446.60666 459.34735
441.0 0.002268 446.59698 459.21841
444.0 0.002252 446.58734 459.09808
440.0 0.002273 446.57761 458.98615
442.0 0.002262 446.56799 458.88269
454.0 0.002203 446.55829 458.78751
446.0 0.002242 446.54868 458.70093
433.0 0.002309 446.53906 458.62271
448.0 0.002232 446.52954 458.55331
458.0 0.002183 446.51990 458.49237
474.0 0.002110 446.51038 458.44055
453.0 0.002208 446.50076 458.39755
440.0 0.002273 446.49124 458.36386
437.0 0.002288 446.48172 458.33975
425.0 0.002353 446.47217 458.32526
428.0 0.002336 446.46271 458.32062
445.0 0.002247 446.45328 458.32648
458.0 0.002183 446.44373 458.34274
453.0 0.002208 446.43423 458.37018
453.0 0.002208 446.42484 458.40875
470.0 0.002128 446.41534 458.45908
459.0 0.002179 446.40588 458.52139
456.0 0.002193 446.39642 458.59628
452.0 0.002212 446.38708 458.68417
451.0 0.002217 446.37762 458.78516
446.0 0.002242 446.36829 458.90005
449.0 0.002227 446.35895 459.02921
444.0 0.002252 446.34961 459.17294
457.0 0.002188 446.34012 459.33151
466.0 0.002146 446.33090 459.50598
465.0 0.002151 446.32153 459.69629
448.0 0.002232 446.31216 459.90298
445.0 0.002247 446.30289 460.12668
446.0 0.002242 446.29358 460.36771
446.0 0.002242 446.28421 460.62634
466.0 0.002146 446.27502 460.90338
461.0 0.002169 446.26581 461.19928
467.0 0.002141 446.25641 461.51401
478.0 0.002092 446.24731 461.84860
481.0 0.002079 446.23798 462.20337
476.0 0.002101 446.22879 462.57877
472.0 0.002119 446.21954 463.33530
460.0 0.002174 446.21033 463.75568
464.0 0.002155 446.20102 464.19809
478.0 0.002092 446.19189 464.66336
494.0 0.002024 446.18280 465.15161
490.0 0.002041 446.17358 465.66382
474.0 0.002110 446.16443 466.20029
468.0 0.002137 446.15530 466.76160
471.0 0.002123 446.14618 467.34845
469.0 0.002132 446.13702 467.96143
460.0 0.002174 446.12784 468.60144
447.0 0.002237 446.11880 469.26904
451.0 0.002217 446.10959 469.96515
453.0 0.002208 446.10062 470.69144
463.0 0.002160 446.09140 471.44867
477.0 0.002096 446.08246 472.23895
478.0 0.002092 446.07327 473.06436
481.0 0.002079 446.06424 473.92734
484.0 0.002066 446.05511 474.83066
478.0 0.002092 446.04608 475.77844
476.0 0.002101 446.03705 476.77414
481.0 0.002079 446.02802 477.82233
473.0 0.002114 446.01895 478.92807
467.0 0.002141 446.00995 480.09662
464.0 0.002155 446.00092 481.33331
453.0 0.002208 445.99188 482.64371
460.0 0.002174 445.98288 484.03326
474.0 0.002110 445.97388 485.50699
491.0 0.002037 445.96484 487.06982
487.0 0.002053 445.95599 488.48428
486.0 0.002058 445.94693 490.23730
475.0 0.002105 445.93799 492.08905
480.0 0.002083 445.92905 494.04031
500.0 0.002000 445.91992 496.09103
491.0 0.002037 445.91119 498.23990
498.0 0.002008 445.90222 500.48383
488.0 0.002049 445.89331 502.81808
485.0 0.002062 445.88434 505.23633
481.0 0.002079 445.87534 507.73056
487.0 0.002053 445.86646 510.29053
488.0 0.002049 445.85757 512.90369
501.0 0.001996 445.84866 515.55573
509.0 0.001965 445.83984 518.23004
498.0 0.002008 445.83081 520.90686
514.0 0.001946 445.82196 523.56506
508.0 0.001969 445.81296 526.18036
502.0 0.001992 445.80411 528.72620
511.0 0.001957 445.79529 531.17432
506.0 0.001976 445.78647 533.49426
507.0 0.001972 445.77756 535.65442
514.0 0.001946 445.76868 537.62274
492.0 0.002033 445.75989 539.36749
496.0 0.002016 445.75092 540.85767
488.0 0.002049 445.74203 542.06537
502.0 0.001992 445.73322 542.96600
519.0 0.001927 445.72440 543.53931
523.0 0.001912 445.71545 543.77094
530.0 0.001887 445.70673 543.65332
515.0 0.001942 445.69775 543.18518
520.0 0.001923 445.68893 542.37225
522.0 0.001916 445.68021 541.22742
497.0 0.002012 445.67142 539.76910
501.0 0.001996 445.66260 538.02075
498.0 0.002008 445.65372 536.01007
511.0 0.001957 445.64499 533.76721
508.0 0.001969 445.63608 532.54675
517.0 0.001934 445.62720 529.94238
509.0 0.001965 445.61859 527.20221
496.0 0.002016 445.60968 524.35693
500.0 0.002000 445.60092 521.43555
486.0 0.002058 445.59216 518.46503
476.0 0.002101 445.58328 515.46991
479.0 0.002088 445.57449 512.47235
481.0 0.002079 445.56573 509.49243
515.0 0.001942 445.55692 506.54739
494.0 0.002024 445.54819 503.65280
486.0 0.002058 445.53940 500.82178
515.0 0.001942 445.53061 498.06558
497.0 0.002012 445.52173 495.39377
488.0 0.002049 445.51300 492.81442
499.0 0.002004 445.50421 490.33368
504.0 0.001984 445.49545 487.95639
501.0 0.001996 445.48666 485.68643
495.0 0.002020 445.47787 483.52615
471.0 0.002123 445.46912 481.47675
492.0 0.002033 445.46033 479.53885
470.0 0.002128 445.45154 477.71158
471.0 0.002123 445.44275 475.99396
472.0 0.002119 445.43399 474.38385
474.0 0.002110 445.42520 472.87857
478.0 0.002092 445.41638 471.47504
461.0 0.002169 445.40762 470.16949
472.0 0.002119 445.39890 468.95819
467.0 0.002141 445.39011 467.83670
462.0 0.002165 445.38135 466.80069
490.0 0.002041 445.37259 465.84552
473.0 0.002114 445.36383 464.96646
475.0 0.002105 445.35495 464.15887
458.0 0.002183 445.34631 463.41821
458.0 0.002183 445.33749 462.73959
490.0 0.002041 445.32870 462.11868
490.0 0.002041 445.31982 461.55133
475.0 0.002105 445.31116 461.03323
485.0 0.002062 445.30237 460.56021
495.0 0.002020 445.29349 460.12881
517.0 0.001934 445.28473 459.73544
495.0 0.002020 445.27588 459.37668
505.0 0.001980 445.26709 458.97537
500.0 0.002000 445.25839 458.67749
488.0 0.002049 445.24960 458.40546
495.0 0.002020 445.24075 458.15723
494.0 0.002024 445.23203 457.93066
486.0 0.002058 445.22314 457.72324
485.0 0.002062 445.21445 457.53369
503.0 0.001988 445.20566 457.36026
538.0 0.001859 445.19675 457.20129
533.0 0.001876 445.18796 457.05563
523.0 0.001912 445.17917 456.92209
525.0 0.001905 445.17038 456.79944
518.0 0.001931 445.16156 457.03455
519.0 0.001927 445.15268 456.93323
547.0 0.001828 445.14392 456.84018
551.0 0.001815 445.13513 456.75522
532.0 0.001880 445.12622 456.67761
538.0 0.001859 445.11749 456.60669
532.0 0.001880 445.10858 456.54218
547.0 0.001828 445.09988 456.48367
566.0 0.001767 445.09091 456.43076
550.0 0.001818 445.08206 456.38315
556.0 0.001799 445.07315 456.34052
579.0 0.001727 445.06427 456.30298
561.0 0.001783 445.05557 456.26987
548.0 0.001825 445.04663 456.24115
540.0 0.001852 445.03781 456.21677
533.0 0.001876 445.02890 456.19647
523.0 0.001912 445.01999 456.18027
544.0 0.001838 445.01108 456.16779
593.0 0.001686 445.00229 456.15894
601.0 0.001664 444.99335 456.15399
563.0 0.001776 444.98441 456.15265
541.0 0.001848 444.97556 456.15469
521.0 0.001919 444.96667 456.16031
535.0 0.001869 444.95770 456.16928
545.0 0.001835 444.94885 456.18149
542.0 0.001845 444.93985 456.19714
526.0 0.001901 444.93100 456.21622
514.0 0.001946 444.92206 456.23825
525.0 0.001905 444.91312 456.26373
529.0 0.001890 444.90411 456.29227
549.0 0.001821 444.89523 456.32410
560.0 0.001786 444.88614 456.35904
554.0 0.001805 444.87729 456.39731
547.0 0.001828 444.86832 456.43863
524.0 0.001908 444.85941 456.48303
518.0 0.001931 444.85040 456.53070
516.0 0.001938 444.84140 456.58151
516.0 0.001938 444.83237 456.63562
533.0 0.001876 444.82339 456.69281
539.0 0.001855 444.81436 456.75348
533.0 0.001876 444.80536 456.81726
527.0 0.001898 444.79630 456.88437
526.0 0.001901 444.78735 456.95490
519.0 0.001927 444.77826 457.02875
512.0 0.001953 444.76923 457.10605
491.0 0.002037 444.76007 457.18686
503.0 0.001988 444.75110 457.27097
498.0 0.002008 444.74207 457.35883
494.0 0.002024 444.73288 457.45047
485.0 0.002062 444.72391 457.54562
472.0 0.002119 444.71475 457.64462
477.0 0.002096 444.70560 457.74741
496.0 0.002016 444.69662 457.85416
484.0 0.002066 444.68750 457.96500
483.0 0.002070 444.67828 458.07971
475.0 0.002105 444.66922 458.19879
470.0 0.002128 444.66003 458.32211
491.0 0.002037 444.65088 458.44986
474.0 0.002110 444.64178 458.58209
475.0 0.002105 444.63254 458.71884
474.0 0.002110 444.62338 458.86050
469.0 0.002132 444.61426 459.00696
468.0 0.002137 444.60501 459.15842
462.0 0.002165 444.59570 459.31516
464.0 0.002155 444.58652 459.47720
479.0 0.002088 444.57736 459.64465
482.0 0.002075 444.56802 459.81784
477.0 0.002096 444.55881 459.99692
491.0 0.002037 444.54965 460.18198
491.0 0.002037 444.54019 460.37323
471.0 0.002123 444.53098 460.57111
471.0 0.002123 444.52176 460.77563
469.0 0.002132 444.51239 460.98703
474.0 0.002110 444.50311 461.20596
508.0 0.001969 444.49380 461.43207
521.0 0.001919 444.48447 461.66620
500.0 0.002000 444.47516 461.90823
491.0 0.002037 444.46585 462.15912
488.0 0.002049 444.45645 462.41876
483.0 0.002070 444.44708 462.68781
482.0 0.002075 444.43771 462.96658
479.0 0.002088 444.42819 463.25574
466.0 0.002146 444.41882 463.55557
462.0 0.002165 444.40939 463.86694
447.0 0.002237 444.40015 463.97165
450.0 0.002222 444.39050 464.30911
460.0 0.002174 444.38113 464.66016
482.0 0.002075 444.37167 465.02573
492.0 0.002033 444.36221 465.40683
477.0 0.002096 444.35278 465.80453
476.0 0.002101 444.34326 466.22025
492.0 0.002033 444.33371 466.65506
485.0 0.002062 444.32422 467.11066
458.0 0.002183 444.31467 467.58862
468.0 0.002137 444.30508 468.09103
457.0 0.002188 444.29553 468.67227
462.0 0.002165 444.28604 469.22992
495.0 0.002020 444.27643 469.81903
491.0 0.002037 444.26675 470.44235
494.0 0.002024 444.25729 471.10300
488.0 0.002049 444.24762 471.80435
487.0 0.002053 444.23785 472.55060
487.0 0.002053 444.22824 473.34543
469.0 0.002132 444.21860 474.19382
453.0 0.002208 444.20892 475.10083
475.0 0.002105 444.19919 476.07172
466.0 0.002146 444.18954 477.11258
457.0 0.002188 444.17978 478.22952
488.0 0.002049 444.17004 479.42981
505.0 0.001980 444.16034 480.72046
479.0 0.002088 444.15060 482.10944
472.0 0.002119 444.14081 483.60516
473.0 0.002114 444.13101 485.21619
497.0 0.002012 444.12125 486.95178
490.0 0.002041 444.11148 488.82162
462.0 0.002165 444.10162 490.83566
481.0 0.002079 444.09180 493.00412
483.0 0.002070 444.08188 495.33752
498.0 0.002008 444.07199 497.84653
498.0 0.002008 444.06223 501.32303
494.0 0.002024 444.05222 504.22040
489.0 0.002045 444.04230 507.32535
503.0 0.001988 444.03241 510.64868
499.0 0.002004 444.02243 514.20020
499.0 0.002004 444.01251 517.98920
510.0 0.001961 444.00256 522.02484
518.0 0.001931 443.99246 526.31476
518.0 0.001931 443.98248 530.86652
506.0 0.001976 443.97247 535.68555
525.0 0.001905 443.96252 540.77661
534.0 0.001873 443.95239 546.14270
536.0 0.001866 443.94238 551.78516
540.0 0.001852 443.93225 557.70343
540.0 0.001852 443.92218 563.89502
547.0 0.001828 443.91202 570.35480
551.0 0.001815 443.90186 577.07526
550.0 0.001818 443.89172 584.04620
556.0 0.001799 443.88159 591.25439
560.0 0.001786 443.87134 598.68317
580.0 0.001724 443.86118 606.31238
616.0 0.001623 443.85095 614.11792
597.0 0.001675 443.84079 622.07153
606.0 0.001650 443.83054 630.14056
632.0 0.001582 443.82013 638.28717
631.0 0.001585 443.80994 646.46869
629.0 0.001590 443.79965 654.63745
739.0 0.001353 443.78934 662.73975
717.0 0.001395 443.77896 670.36017
699.0 0.001431 443.76871 678.15033
723.0 0.001383 443.75815 685.68365
698.0 0.001433 443.74792 692.88818
712.0 0.001404 443.73749 699.69025
723.0 0.001383 443.72708 706.01520
701.0 0.001427 443.71674 711.78992
707.0 0.001414 443.70618 716.94519
714.0 0.001401 443.69571 721.41815
726.0 0.001377 443.68533 725.15527
767.0 0.001304 443.67471 728.11456
753.0 0.001328 443.66425 730.26801
754.0 0.001326 443.65366 731.60333
750.0 0.001333 443.64313 732.12537
733.0 0.001364 443.63254 731.85553
720.0 0.001389 443.62198 730.83197
715.0 0.001399 443.61133 729.10828
730.0 0.001370 443.60068 726.75098
716.0 0.001397 443.59003 723.83746
733.0 0.001364 443.57938 720.45288
768.0 0.001302 443.56873 716.68811
766.0 0.001305 443.55795 712.63654
730.0 0.001370 443.54727 708.39154
737.0 0.001357 443.53650 704.04510
736.0 0.001359 443.52576 699.68616
708.0 0.001412 443.51486 695.39905
693.0 0.001443 443.50415 691.26263
689.0 0.001451 443.49338 687.35065
670.0 0.001493 443.48260 683.73004
649.0 0.001541 443.47156 680.46240
641.0 0.001560 443.46069 677.60284
662.0 0.001511 443.44989 675.20050
679.0 0.001473 443.43884 673.29803
680.0 0.001471 443.42798 671.93292
693.0 0.001443 443.41705 671.13641
653.0 0.001531 443.40604 670.93414
637.0 0.001570 443.39502 671.34607
654.0 0.001529 443.38394 672.38599
638.0 0.001567 443.37302 674.06244
635.0 0.001575 443.36191 676.37769
650.0 0.001538 443.35083 679.32806
643.0 0.001555 443.33975 682.90411
615.0 0.001626 443.32864 687.09015
637.0 0.001570 443.31750 691.86389
614.0 0.001629 443.30634 697.19653
616.0 0.001623 443.29523 703.05237
673.0 0.001486 443.28394 709.38898
671.0 0.001490 443.27274 716.15649
674.0 0.001484 443.26160 723.29736
684.0 0.001462 443.25031 730.74622
677.0 0.001477 443.23901 738.42975
683.0 0.001464 443.22769 746.26648
667.0 0.001499 443.21637 754.16626
687.0 0.001456 443.20505 762.03186
719.0 0.001391 443.19363 769.75812
699.0 0.001431 443.18231 777.23364
709.0 0.001410 443.17087 784.34174
721.0 0.001387 443.15942 790.96301
707.0 0.001414 443.14804 796.97754
758.0 0.001319 443.13651 802.26770
762.0 0.001312 443.12509 806.72211
787.0 0.001271 443.11356 810.23901
776.0 0.001289 443.10196 812.73029
742.0 0.001348 443.09058 814.12555
729.0 0.001372 443.07892 814.37402
736.0 0.001359 443.06732 813.44818
699.0 0.001431 443.05566 811.34381
727.0 0.001376 443.04407 808.08093
727.0 0.001376 443.03226 803.70148
734.0 0.001362 443.02069 798.26807
719.0 0.001391 443.00900 791.85999
724.0 0.001381 442.99728 784.56982
747.0 0.001339 442.98547 776.49902
731.0 0.001368 442.97379 767.75500
717.0 0.001395 442.96185 758.44635
692.0 0.001445 442.95013 748.68060
703.0 0.001422 442.93832 738.56128
719.0 0.001391 442.92636 728.18683
672.0 0.001488 442.91446 717.64832
679.0 0.001473 442.90265 707.02966
639.0 0.001565 442.89072 696.40680
642.0 0.001558 442.87869 685.84790
609.0 0.001642 442.86679 675.41321
608.0 0.001645 442.85483 665.15588
619.0 0.001616 442.84286 655.12225
618.0 0.001618 442.83072 645.35181
614.0 0.001629 442.81857 635.87854
601.0 0.001664 442.80655 626.73041
557.0 0.001795 442.79449 617.93018
548.0 0.001825 442.78226 609.49677
557.0 0.001795 442.77005 601.44336
560.0 0.001786 442.75803 593.78040
553.0 0.001808 442.74579 586.51367
540.0 0.001852 442.73358 579.64642
529.0 0.001890 442.72134 573.17798
538.0 0.001859 442.70908 567.10590
531.0 0.001883 442.69672 561.42456
522.0 0.001916 442.68448 556.12665
523.0 0.001912 442.67212 551.20251
516.0 0.001938 442.65973 546.64160
501.0 0.001996 442.64731 542.43140
503.0 0.001988 442.63486 538.55902
480.0 0.002083 442.62244 535.00995
486.0 0.002058 442.60995 531.76965
496.0 0.002016 442.59756 528.82349
487.0 0.002053 442.58502 526.15601
503.0 0.001988 442.57248 523.75256
490.0 0.002041 442.56003 521.59778
483.0 0.002070 442.54736 519.67719
492.0 0.002033 442.53476 517.97717
487.0 0.002053 442.52216 516.48407
512.0 0.001953 442.50958 515.18494
506.0 0.001976 442.49683 514.06818
476.0 0.002101 442.48416 513.12219
508.0 0.001969 442.47147 512.33728
493.0 0.002028 442.45868 511.70370
490.0 0.002041 442.44589 511.21307
500.0 0.002000 442.43301 510.85822
490.0 0.002041 442.42032 510.63254
522.0 0.001916 442.40738 510.53052
529.0 0.001890 442.39456 510.54797
515.0 0.001942 442.38174 510.68164
502.0 0.001992 442.36874 510.92874
490.0 0.002041 442.35590 511.28812
479.0 0.002088 442.34290 511.75967
465.0 0.002151 442.32990 512.34369
484.0 0.002066 442.31683 513.04211
501.0 0.001996 442.30377 513.85785
512.0 0.001953 442.29077 514.79449
500.0 0.002000 442.27768 515.85736
482.0 0.002075 442.26447 517.05243
480.0 0.002083 442.25143 518.38690
482.0 0.002075 442.23828 519.86908
499.0 0.002004 442.22504 521.50873
508.0 0.001969 442.21185 523.31647
506.0 0.001976 442.19855 525.30414
551.0 0.001815 442.18539 527.48517
569.0 0.001757 442.17206 529.87421
540.0 0.001852 442.15860 532.48669
543.0 0.001842 442.14545 535.33978
530.0 0.001887 442.13208 538.45166
514.0 0.001946 442.11868 541.84155
526.0 0.001901 442.10532 545.53009
529.0 0.001890 442.09186 549.53912
551.0 0.001815 442.07828 553.72717
506.0 0.001976 442.06503 558.44647
510.0 0.001961 442.05139 563.55658
568.0 0.001761 442.03787 569.08264
565.0 0.001770 442.02435 575.04944
555.0 0.001802 442.01077 581.48322
541.0 0.001848 441.99713 588.40955
539.0 0.001855 441.98349 595.85370
541.0 0.001848 441.96985 603.84064
566.0 0.001767 441.95612 612.39490
586.0 0.001706 441.94238 621.53937
622.0 0.001608 441.92874 631.29620
634.0 0.001577 441.91492 641.68494
614.0 0.001629 441.90115 652.72382
607.0 0.001647 441.88736 664.42804
632.0 0.001582 441.87344 676.81018
621.0 0.001610 441.85962 689.87909
606.0 0.001650 441.84576 703.64056
583.0 0.001715 441.83185 718.09521
622.0 0.001608 441.81793 733.23993
629.0 0.001590 441.80396 749.06580
676.0 0.001479 441.78995 765.55829
684.0 0.001462 441.77591 782.69678
682.0 0.001466 441.76193 800.45337
704.0 0.001420 441.74783 818.79340
727.0 0.001376 441.73364 837.67297
743.0 0.001346 441.71960 857.03998
790.0 0.001266 441.70551 876.83276
803.0 0.001245 441.69128 896.97803
838.0 0.001193 441.67700 917.39209
882.0 0.001134 441.66287 937.97845
900.0 0.001111 441.64868 958.62781
906.0 0.001104 441.63440 979.21741
920.0 0.001087 441.62000 999.61072
970.0 0.001031 441.60574 1019.65692
987.0 0.001013 441.59140 1039.19238
1037.0 0.000964 441.57706 1058.04150
1046.0 0.000956 441.56262 1076.01831
1040.0 0.000962 441.54816 1092.92969
1066.0 0.000938 441.53375 1108.57910
1116.0 0.000896 441.51935 1122.77185
1169.0 0.000855 441.50473 1135.31958
1216.0 0.000822 441.49023 1146.04700
1191.0 0.000840 441.47568 1154.79968
1159.0 0.000863 441.46109 1161.44727
1222.0 0.000818 441.44653 1165.89185
1255.0 0.000797 441.43185 1168.07227
1243.0 0.000805 441.41721 1167.96619
1236.0 0.000809 441.40256 1165.59277
1223.0 0.000818 441.38782 1161.01086
1195.0 0.000837 441.37305 1154.31714
1172.0 0.000853 441.35831 1145.64258
1125.0 0.000889 441.34360 1135.14563
1187.0 0.000842 441.32870 1123.00671
1178.0 0.000849 441.31384 1109.42151
1145.0 0.000873 441.29898 1094.59436
1117.0 0.000895 441.28415 1078.73242
1112.0 0.000899 441.26923 1062.03992
1105.0 0.000905 441.25433 1044.71472
1082.0 0.000924 441.23944 1026.94495
1024.0 0.000977 441.22430 1008.90582
991.0 0.001009 441.20935 990.75970
953.0 0.001049 441.19440 972.65417
963.0 0.001038 441.17926 954.72192
934.0 0.001071 441.16422 937.08203
896.0 0.001116 441.14905 919.83942
866.0 0.001155 441.13388 903.08594
869.0 0.001151 441.11871 886.90088
812.0 0.001232 441.10352 871.35297
790.0 0.001266 441.08832 856.49860
807.0 0.001239 441.07315 842.38538
759.0 0.001318 441.05792 829.05133
742.0 0.001348 441.04251 816.52521
713.0 0.001403 441.02725 804.82819
691.0 0.001447 441.01190 793.97345
722.0 0.001385 440.99640 783.96680
717.0 0.001395 440.98111 774.80774
701.0 0.001427 440.96558 766.48834
701.0 0.001427 440.95016 758.99524
682.0 0.001466 440.93469 752.30908
701.0 0.001427 440.91925 746.40460
713.0 0.001403 440.90372 741.25122
691.0 0.001447 440.88812 736.81329
765.0 0.001307 440.87256 733.04962
748.0 0.001337 440.85687 729.91510
718.0 0.001393 440.84134 727.35901
705.0 0.001418 440.82562 725.32666
695.0 0.001439 440.81009 723.75946
706.0 0.001416 440.79425 722.59460
718.0 0.001393 440.77853 721.76642
715.0 0.001399 440.76279 721.20679
738.0 0.001355 440.74692 720.84534
742.0 0.001348 440.73105 720.61121
752.0 0.001330 440.71539 720.43439
737.0 0.001357 440.69952 720.24585
772.0 0.001295 440.68359 719.98071
802.0 0.001247 440.66772 719.57916
800.0 0.001250 440.65182 718.98749
765.0 0.001307 440.63577 718.16107
771.0 0.001297 440.61978 717.06433
768.0 0.001302 440.60382 715.67242
754.0 0.001326 440.58777 713.97198
753.0 0.001328 440.57175 711.96136
761.0 0.001314 440.55560 709.64966
762.0 0.001312 440.53955 707.05682
755.0 0.001325 440.52341 704.21234
753.0 0.001328 440.50729 701.15326
741.0 0.001350 440.49103 697.92346
743.0 0.001346 440.47495 694.57159
727.0 0.001376 440.45865 691.14935
736.0 0.001359 440.44238 687.71027
727.0 0.001376 440.42609 684.30835
726.0 0.001377 440.40985 680.99719
709.0 0.001410 440.39352 677.82843
685.0 0.001460 440.37714 674.85229
699.0 0.001431 440.36066 672.11615
716.0 0.001397 440.34436 669.66461
706.0 0.001416 440.32788 667.53894
682.0 0.001466 440.31137 665.77802
659.0 0.001517 440.29495 664.41656
642.0 0.001558 440.27847 663.48682
650.0 0.001538 440.26196 663.01740
652.0 0.001534 440.24542 663.03363
658.0 0.001520 440.22888 663.55743
659.0 0.001517 440.21225 664.60706
650.0 0.001538 440.19565 666.19775
658.0 0.001520 440.17892 668.34094
664.0 0.001506 440.16232 671.04401
662.0 0.001511 440.14551 674.31165
658.0 0.001520 440.12888 678.14435
669.0 0.001495 440.11212 682.53918
659.0 0.001517 440.09543 687.49042
666.0 0.001502 440.07858 692.98822
647.0 0.001546 440.06174 699.02002
681.0 0.001468 440.04492 705.57025
651.0 0.001536 440.02805 712.61981
643.0 0.001555 440.01117 720.14648
667.0 0.001499 439.99432 728.12476
687.0 0.001456 439.97736 736.52496
681.0 0.001468 439.96030 745.31274
692.0 0.001445 439.94339 754.44879
686.0 0.001458 439.92636 763.88800
717.0 0.001395 439.90933 773.57831
740.0 0.001351 439.89230 783.46027
757.0 0.001321 439.87521 793.46606
755.0 0.001325 439.85800 803.51886
771.0 0.001297 439.84097 813.53235
787.0 0.001271 439.82388 823.41077
775.0 0.001290 439.80676 833.04840
775.0 0.001290 439.78955 842.33124
797.0 0.001255 439.77234 851.13721
819.0 0.001221 439.75500 859.33826
834.0 0.001199 439.73776 866.80322
861.0 0.001161 439.72055 873.40057
842.0 0.001188 439.70328 879.00262
813.0 0.001230 439.68594 883.48944
834.0 0.001199 439.66852 886.75433
856.0 0.001168 439.65112 888.70734
841.0 0.001189 439.63376 889.27985
881.0 0.001135 439.61636 888.42987
870.0 0.001149 439.59897 886.13776
830.0 0.001205 439.58142 882.41608
821.0 0.001218 439.56400 877.30377
825.0 0.001212 439.54648 870.86450
848.0 0.001179 439.52881 863.18445
812.0 0.001232 439.51141 854.36780
828.0 0.001208 439.49384 844.53180
843.0 0.001186 439.47614 833.80322
819.0 0.001221 439.45862 822.31232
854.0 0.001171 439.44098 810.18988
833.0 0.001200 439.42328 797.56403
811.0 0.001233 439.40564 784.55695
810.0 0.001235 439.38788 771.28326
781.0 0.001280 439.37012 757.84955
814.0 0.001229 439.35242 744.35272
763.0 0.001311 439.33472 730.88043
729.0 0.001372 439.31693 717.51074
748.0 0.001337 439.29913 704.31274
689.0 0.001451 439.28122 691.34680
694.0 0.001441 439.26340 678.66571
695.0 0.001439 439.24551 666.31403
687.0 0.001456 439.22763 654.33002
656.0 0.001524 439.20969 642.74451
643.0 0.001555 439.19171 631.58319
623.0 0.001605 439.17389 620.86554
627.0 0.001595 439.15591 610.60645
621.0 0.001610 439.13779 600.81555
611.0 0.001637 439.11975 591.49884
633.0 0.001580 439.10184 582.65771
633.0 0.001580 439.08371 574.29034
608.0 0.001645 439.06567 566.39160
588.0 0.001701 439.04755 558.95355
558.0 0.001792 439.02942 551.96558
535.0 0.001869 439.01126 545.41541
557.0 0.001795 438.99304 539.28802
549.0 0.001821 438.97495 533.56763
540.0 0.001852 438.95673 528.23712
540.0 0.001852 438.93851 523.27814
519.0 0.001927 438.92023 518.67194
514.0 0.001946 438.90201 514.39911
496.0 0.002016 438.88379 510.44031
479.0 0.002088 438.86548 506.77606
479.0 0.002088 438.84708 503.38724
477.0 0.002096 438.82883 500.25473
481.0 0.002079 438.81049 497.36069
486.0 0.002058 438.79208 494.68686
472.0 0.002119 438.77374 492.21664
468.0 0.002137 438.75528 489.93365
479.0 0.002088 438.73676 487.82254
473.0 0.002114 438.71835 485.86908
474.0 0.002110 438.69992 484.05936
482.0 0.002075 438.68152 482.38107
486.0 0.002058 438.66284 480.82233
468.0 0.002137 438.64450 479.37234
468.0 0.002137 438.62592 478.02112
483.0 0.002070 438.60730 476.75949
486.0 0.002058 438.58881 475.57925
469.0 0.002132 438.57013 474.47281
465.0 0.002151 438.55151 473.43314
493.0 0.002028 438.53296 472.45428
485.0 0.002062 438.51428 471.53030
471.0 0.002123 438.49557 470.65674
462.0 0.002165 438.47693 469.82855
477.0 0.002096 438.45816 469.04181
468.0 0.002137 438.43951 468.29294
470.0 0.002128 438.42078 467.57880
448.0 0.002232 438.40207 466.89658
448.0 0.002232 438.38324 466.24350
453.0 0.002208 438.36450 465.61728
460.0 0.002174 438.34570 465.01608
460.0 0.002174 438.32681 464.43802
485.0 0.002062 438.30807 463.88141
479.0 0.002088 438.28922 463.34473
464.0 0.002155 438.27023 462.82684
473.0 0.002114 438.25131 462.32666
453.0 0.002208 438.23245 461.84293
454.0 0.002203 438.21353 461.37463
448.0 0.002232 438.19464 460.92108
446.0 0.002242 438.17578 460.48138
462.0 0.002165 438.15677 460.05490
449.0 0.002227 438.13779 459.64108
452.0 0.002212 438.11884 459.23898
451.0 0.002217 438.09982 458.84839
469.0 0.002132 438.08069 458.46857
472.0 0.002119 438.06183 458.09927
471.0 0.002123 438.04260 457.73987
488.0 0.002049 438.02356 457.38992
486.0 0.002058 438.00461 457.04922
467.0 0.002141 437.98532 456.71722
463.0 0.002160 437.96637 456.39355
489.0 0.002045 437.94717 456.07819
469.0 0.002132 437.92810 455.81833
459.0 0.002179 437.90887 455.51834
451.0 0.002217 437.88977 455.22568
461.0 0.002169 437.87048 454.94016
482.0 0.002075 437.85132 454.66101
467.0 0.002141 437.83212 454.38861
466.0 0.002146 437.81296 454.12238
461.0 0.002169 437.79361 453.45453
450.0 0.002222 437.77438 453.20212
474.0 0.002110 437.75525 452.95554
469.0 0.002132 437.73584 452.71436
470.0 0.002128 437.71658 452.47830
464.0 0.002155 437.69739 452.24747
439.0 0.002278 437.67789 452.02155
450.0 0.002222 437.65863 451.80026
447.0 0.002237 437.63937 451.58362
452.0 0.002212 437.61996 451.37152
461.0 0.002169 437.60062 451.16364
458.0 0.002183 437.58118 450.95999
487.0 0.002053 437.56186 450.76044
486.0 0.002058 437.54251 450.56482
461.0 0.002169 437.52304 450.37286
459.0 0.002179 437.50360 450.18475
457.0 0.002188 437.48407 450.00015
461.0 0.002169 437.46472 449.81915
458.0 0.002183 437.44522 449.64145
459.0 0.002179 437.42584 449.46698
446.0 0.002242 437.40631 449.29575
440.0 0.002273 437.38690 449.12756
442.0 0.002262 437.36728 448.96249
439.0 0.002278 437.34781 448.80026
444.0 0.002252 437.32837 448.64093
439.0 0.002278 437.30878 448.48431
436.0 0.002294 437.28922 448.33047
449.0 0.002227 437.26974 448.17920
452.0 0.002212 437.25015 448.03043
476.0 0.002101 437.23065 447.88428
457.0 0.002188 437.21109 447.74030
450.0 0.002222 437.19138 447.59879
473.0 0.002114 437.17175 447.45944
451.0 0.002217 437.15216 447.32254
442.0 0.002262 437.13254 447.18777
458.0 0.002183 437.11301 447.05505
459.0 0.002179 437.09329 446.93970
474.0 0.002110 437.07370 446.81100
451.0 0.002217 437.05402 446.68448
443.0 0.002257 437.03427 446.55969
443.0 0.002257 437.01474 446.43695
428.0 0.002336 436.99509 446.31592
433.0 0.002309 436.97534 446.19675
443.0 0.002257 436.95569 446.07932
438.0 0.002283 436.93591 445.96338
445.0 0.002247 436.91626 445.84921
440.0 0.002273 436.89651 445.73663
456.0 0.002193 436.87686 445.62561
454.0 0.002203 436.85712 445.51620
463.0 0.002160 436.83740 445.40826
456.0 0.002193 436.81757 445.30185
462.0 0.002165 436.79785 445.19672
454.0 0.002203 436.77820 445.09311
473.0 0.002114 436.75836 444.52118
459.0 0.002179 436.73859 444.42273
466.0 0.002146 436.71890 444.32547
453.0 0.002208 436.69910 444.22940
444.0 0.002252 436.67932 444.13464
449.0 0.002227 436.65964 444.04117
443.0 0.002257 436.63980 443.94885
444.0 0.002252 436.62003 443.85751
461.0 0.002169 436.60019 443.76761
465.0 0.002151 436.58029 443.67850
444.0 0.002252 436.56046 443.59073
449.0 0.002227 436.54068 443.50388
439.0 0.002278 436.52094 443.41797
433.0 0.002309 436.50107 443.33328
443.0 0.002257 436.48123 443.24945
444.0 0.002252 436.46149 443.16675
440.0 0.002273 436.44168 443.08481
453.0 0.002208 436.42166 443.00394
447.0 0.002237 436.40189 442.92407
460.0 0.002174 436.38205 442.84488
457.0 0.002188 436.36218 442.76675
450.0 0.002222 436.34235 442.68948
460.0 0.002174 436.32245 442.61295
455.0 0.002198 436.30258 442.53732
463.0 0.002160 436.28271 442.46249
462.0 0.002165 436.26297 442.38852
455.0 0.002198 436.24304 442.31534
444.0 0.002252 436.22314 442.24295
458.0 0.002183 436.20337 442.17123
474.0 0.002110 436.18350 442.10019
472.0 0.002119 436.16360 442.03000
458.0 0.002183 436.14386 441.96057
438.0 0.002283 436.12390 441.89172
444.0 0.002252 436.10394 441.82379
435.0 0.002299 436.08420 441.75635
450.0 0.002222 436.06430 441.68954
445.0 0.002247 436.04440 441.62341
442.0 0.002262 436.02451 441.55798
439.0 0.002278 436.00473 441.49319
451.0 0.002217 435.98474 441.42902
458.0 0.002183 435.96494 441.36551
470.0 0.002128 435.94501 441.30246
456.0 0.002193 435.92526 441.24008
473.0 0.002114 435.90533 441.17834
455.0 0.002198 435.88547 441.11703
447.0 0.002237 435.86563 441.05640
462.0 0.002165 435.84576 440.99637
457.0 0.002188 435.82587 440.93680
446.0 0.002242 435.80600 440.87781
458.0 0.002183 435.78616 440.81943
460.0 0.002174 435.76630 440.76138
444.0 0.002252 435.74640 440.70401
452.0 0.002212 435.72662 440.96014
436.0 0.002294 435.70673 440.90540
454.0 0.002203 435.68695 440.85110
456.0 0.002193 435.66699 440.79733
445.0 0.002247 435.64725 440.74405
459.0 0.002179 435.62741 440.69119
464.0 0.002155 435.60757 440.63901
467.0 0.002141 435.58771 440.58713
454.0 0.002203 435.56796 440.53580
473.0 0.002114 435.54813 440.48486
473.0 0.002114 435.52835 440.43460
453.0 0.002208 435.50851 440.38461
432.0 0.002315 435.48865 440.33524
432.0 0.002315 435.46893 440.28632
436.0 0.002294 435.44919 440.23773
450.0 0.002222 435.42929 440.18964
449.0 0.002227 435.40952 440.14206
437.0 0.002288 435.38974 440.09476
438.0 0.002283 435.36996 440.04803
440.0 0.002273 435.35019 440.00177
439.0 0.002278 435.33044 439.95599
454.0 0.002203 435.31076 439.91071
444.0 0.002252 435.29099 439.86557
453.0 0.002208 435.27121 439.82123
451.0 0.002217 435.25140 439.77710
446.0 0.002242 435.23178 439.73337
450.0 0.002222 435.21201 439.69031
438.0 0.002283 435.19229 439.64743
434.0 0.002304 435.17261 439.60507
443.0 0.002257 435.15295 439.56326
445.0 0.002247 435.13333 439.52176
447.0 0.002237 435.11356 439.48077
439.0 0.002278 435.09396 439.44012
435.0 0.002299 435.07422 439.39996
444.0 0.002252 435.05466 439.36020
457.0 0.002188 435.03503 439.32095
457.0 0.002188 435.01538 439.28201
439.0 0.002278 434.99567 439.24332
444.0 0.002252 434.97607 439.20532
445.0 0.002247 434.95651 439.16760
424.0 0.002358 434.93695 439.13022
421.0 0.002375 434.91736 439.09338
431.0 0.002320 434.89777 439.05676
440.0 0.002273 434.87823 439.02054
434.0 0.002304 434.85870 438.98486
437.0 0.002288 434.83914 438.94919
438.0 0.002283 434.81961 438.91425
447.0 0.002237 434.80011 438.87936
450.0 0.002222 434.78061 438.84488
442.0 0.002262 434.76108 438.81061
433.0 0.002309 434.74164 438.77676
430.0 0.002326 434.72211 438.74304
427.0 0.002342 434.70273 438.70959
413.0 0.002421 434.68326 438.67639
425.0 0.002353 434.66382 438.64331
430.0 0.002326 434.64447 438.61038
426.0 0.002347 434.62503 438.57764
434.0 0.002304 434.60559 438.54507
432.0 0.002315 434.58627 438.51242
425.0 0.002353 434.56696 438.47989
415.0 0.002410 434.54752 438.44757
414.0 0.002415 434.52835 438.41522
427.0 0.002342 434.50894 438.38266
419.0 0.002387 434.48956 438.35034
427.0 0.002342 434.47037 438.31790
421.0 0.002375 434.45111 438.28540
429.0 0.002331 434.43179 438.25299
438.0 0.002283 434.41263 438.22055
439.0 0.002278 434.39334 438.18814
437.0 0.002288 434.37418 438.15579
430.0 0.002326 434.35495 438.44351
427.0 0.002342 434.33588 438.41284
445.0 0.002247 434.31662 438.38251
429.0 0.002331 434.29755 438.35199
425.0 0.002353 434.27844 437.09827
436.0 0.002294 434.25940 437.07440
436.0 0.002294 434.24026 437.05075
441.0 0.002268 434.22116 437.02740
433.0 0.002309 434.20215 437.00406
430.0 0.002326 434.18314 436.98108
433.0 0.002309 434.16409 436.95819
424.0 0.002358 434.14511 436.93567
424.0 0.002358 434.12613 436.91345
421.0 0.002375 434.10721 436.89142
435.0 0.002299 434.08835 436.86981
434.0 0.002304 434.06934 436.84842
439.0 0.002278 434.05035 436.82745
442.0 0.002262 434.03159 436.80661
451.0 0.002217 434.01279 436.78635
433.0 0.002309 433.99390 436.76642
423.0 0.002364 433.97507 436.74677
440.0 0.002273 433.95633 436.72736
439.0 0.002278 433.93753 436.70859
420.0 0.002381 433.91876 436.69009
424.0 0.002358 433.90009 436.67194
433.0 0.002309 433.88138 436.65421
438.0 0.002283 433.86276 436.63681
442.0 0.002262 433.84409 436.61978
420.0 0.002381 433.82541 436.60327
438.0 0.002283 433.80682 436.58704
438.0 0.002283 433.78818 436.57138
456.0 0.002193 433.76959 436.55588
448.0 0.002232 433.75113 436.54102
442.0 0.002262 433.73260 436.52640
468.0 0.002137 433.71414 436.51239
443.0 0.002257 433.69568 436.49872
430.0 0.002326 433.67719 436.48544
428.0 0.002336 433.65878 436.47247
411.0 0.002433 433.64032 436.46002
436.0 0.002294 433.62198 436.44815
436.0 0.002294 433.60370 436.43655
433.0 0.002309 433.58545 436.42554
438.0 0.002283 433.56708 436.41492
436.0 0.002294 433.54883 436.40491
447.0 0.002237 433.53061 436.39523
434.0 0.002304 433.51245 436.38602
429.0 0.002331 433.49411 436.37738
434.0 0.002304 433.47595 436.36914
423.0 0.002364 433.45792 436.36154
423.0 0.002364 433.43979 436.35440
424.0 0.002358 433.42172 436.34799
427.0 0.002342 433.40366 436.34195
432.0 0.002315 433.38562 436.33646
424.0 0.002358 433.36755 436.33176
427.0 0.002342 433.34979 436.32758
426.0 0.002347 433.33176 436.32410
446.0 0.002242 433.31384 436.32123
435.0 0.002299 433.29602 436.31903
437.0 0.002288 433.27811 435.14911
443.0 0.002257 433.26028 435.15509
440.0 0.002273 433.24258 435.16177
430.0 0.002326 433.22482 435.16925
430.0 0.002326 433.20703 435.17749
429.0 0.002331 433.18945 435.18665
437.0 0.002288 433.17181 435.19644
440.0 0.002273 433.15408 435.20731
439.0 0.002278 433.13657 435.21924
430.0 0.002326 433.11896 435.23212
417.0 0.002398 433.10141 435.24600
422.0 0.002370 433.08389 435.26114
429.0 0.002331 433.06650 435.27737
446.0 0.002242 433.04895 435.29483
458.0 0.002183 433.03159 435.31375
443.0 0.002257 433.01425 435.33408
446.0 0.002242 432.99701 435.35574
446.0 0.002242 432.97958 435.37912
463.0 0.002160 432.96234 435.40402
448.0 0.002232 432.94525 435.43085
428.0 0.002336 432.92786 435.45941
434.0 0.002304 432.91080 435.48990
431.0 0.002320 432.89368 435.52271
431.0 0.002320 432.87650 435.55765
425.0 0.002353 432.85950 435.59497
441.0 0.002268 432.84247 435.63489
470.0 0.002128 432.82547 435.67764
461.0 0.002169 432.80847 435.72318
463.0 0.002160 432.79163 435.77200
439.0 0.002278 432.77475 435.82425
433.0 0.002309 432.75790 435.88013
439.0 0.002278 432.74109 435.93991
426.0 0.002347 432.72440 436.00409
433.0 0.002309 432.70767 436.07288
442.0 0.002262 432.69095 436.14661
418.0 0.002392 432.67432 436.22574
432.0 0.002315 432.65771 436.31104
458.0 0.002183 432.64111 436.40240
443.0 0.002257 432.62469 436.50107
440.0 0.002273 432.60806 436.60706
434.0 0.002304 432.59174 436.72122
440.0 0.002273 432.57520 436.84442
459.0 0.002179 432.55878 436.97708
451.0 0.002217 432.54251 437.12012
449.0 0.002227 432.52618 437.27441
437.0 0.002288 432.50998 437.44070
445.0 0.002247 432.49377 437.62000
435.0 0.002299 432.47766 437.81326
435.0 0.002299 432.46149 438.02142
443.0 0.002257 432.44540 438.24536
439.0 0.002278 432.42935 438.48611
440.0 0.002273 432.41336 438.74493
455.0 0.002198 432.39737 439.02261
438.0 0.002283 432.38144 439.32025
446.0 0.002242 432.36560 439.63901
435.0 0.002299 432.34979 439.97961
449.0 0.002227 432.33408 440.34320
443.0 0.002257 432.31824 440.73087
432.0 0.002315 432.30255 441.14331
442.0 0.002262 432.28687 441.58121
440.0 0.002273 432.27121 442.04547
464.0 0.002155 432.25571 442.53644
455.0 0.002198 432.24020 443.05487
442.0 0.002262 432.22470 443.60098
439.0 0.002278 432.20929 444.17468
438.0 0.002283 432.19391 444.77615
464.0 0.002155 432.17868 445.40479
479.0 0.002088 432.16327 446.06015
452.0 0.002212 432.14804 446.74103
447.0 0.002237 432.13278 447.44614
446.0 0.002242 432.11765 448.17419
444.0 0.002252 432.10245 448.92276
445.0 0.002247 432.08752 449.68945
454.0 0.002203 432.07263 450.47125
460.0 0.002174 432.05753 451.26465
436.0 0.002294 432.04260 452.06573
445.0 0.002247 432.02777 452.86990
456.0 0.002193 432.01291 454.87704
437.0 0.002288 431.99826 455.67758
450.0 0.002222 431.98352 456.46442
448.0 0.002232 431.96881 457.23029
458.0 0.002183 431.95419 457.96786
453.0 0.002208 431.93970 458.66940
438.0 0.002283 431.92520 459.33563
458.0 0.002183 431.91064 459.94061
430.0 0.002326 431.89630 460.48514
446.0 0.002242 431.88196 460.96109
454.0 0.002203 431.86765 461.36090
436.0 0.002294 431.85342 461.67828
448.0 0.002232 431.83911 461.90768
445.0 0.002247 431.82501 462.04532
447.0 0.002237 431.81085 462.08862
444.0 0.002252 431.79684 462.03699
426.0 0.002347 431.78287 461.89124
442.0 0.002262 431.76886 461.65451
462.0 0.002165 431.75491 461.33087
454.0 0.002203 431.74109 460.92603
472.0 0.002119 431.72742 460.44672
462.0 0.002165 431.71368 459.90082
467.0 0.002141 431.69986 459.29611
453.0 0.002208 431.68628 458.64102
438.0 0.002283 431.67288 457.94424
455.0 0.002198 431.65924 457.21359
449.0 0.002227 431.64572 456.45679
471.0 0.002123 431.63245 455.68149
468.0 0.002137 431.61902 454.89450
456.0 0.002193 431.60574 454.10217
460.0 0.002174 431.59259 453.30988
460.0 0.002174 431.57944 452.52292
467.0 0.002141 431.56631 451.74591
459.0 0.002179 431.55325 450.98270
441.0 0.002268 431.54025 450.23703
448.0 0.002232 431.52731 449.51175
463.0 0.002160 431.51443 448.80960
458.0 0.002183 431.50162 448.13275
451.0 0.002217 431.48886 447.48279
447.0 0.002237 431.47626 446.86130
450.0 0.002222 431.46350 446.26953
437.0 0.002288 431.45090 445.70816
450.0 0.002222 431.43842 445.17758
444.0 0.002252 431.42593 444.67819
447.0 0.002237 431.41354 444.21005
434.0 0.002304 431.40121 443.77286
434.0 0.002304 431.38879 443.36618
429.0 0.002331 431.37668 442.98965
446.0 0.002242 431.36456 442.64233
441.0 0.002268 431.35245 442.32373
444.0 0.002252 431.34039 442.03275
442.0 0.002262 431.32840 441.76831
454.0 0.002203 431.31647 441.52966
454.0 0.002203 431.30472 441.31540
446.0 0.002242 431.29279 441.12457
448.0 0.002232 431.28110 440.95605
465.0 0.002151 431.26953 440.80875
469.0 0.002132 431.25784 440.68164
478.0 0.002092 431.24643 440.57346
482.0 0.002075 431.23489 440.48361
481.0 0.002079 431.22348 440.41061
483.0 0.002070 431.21213 440.35410
464.0 0.002155 431.20090 440.31302
465.0 0.002151 431.18964 440.28647
478.0 0.002092 431.17841 440.27402
454.0 0.002203 431.16745 440.27493
456.0 0.002193 431.15643 440.28888
465.0 0.002151 431.14545 440.31512
487.0 0.002053 431.13461 440.35342
499.0 0.002004 431.12378 440.40353
487.0 0.002053 431.11298 440.46500
470.0 0.002128 431.10233 440.53775
455.0 0.002198 431.09171 440.62183
440.0 0.002273 431.08130 440.71704
456.0 0.002193 431.07080 440.82339
437.0 0.002288 431.06027 440.94077
447.0 0.002237 431.04990 441.06946
452.0 0.002212 431.03973 441.20938
443.0 0.002257 431.02954 441.36078
449.0 0.002227 431.01935 441.52368
458.0 0.002183 431.00940 441.69833
482.0 0.002075 430.99936 441.88501
466.0 0.002146 430.98932 442.08371
452.0 0.002212 430.97964 442.29459
470.0 0.002128 430.96985 442.51788
462.0 0.002165 430.96008 442.75366
455.0 0.002198 430.95050 443.00201
459.0 0.002179 430.94089 443.26309
461.0 0.002169 430.93137 443.53687
465.0 0.002151 430.92197 443.82349
452.0 0.002212 430.91260 444.12238
451.0 0.002217 430.90335 444.43405
433.0 0.002309 430.89420 444.75778
453.0 0.002208 430.88510 445.09366
456.0 0.002193 430.87598 445.44107
463.0 0.002160 430.86697 445.79993
459.0 0.002179 430.85812 446.16931
462.0 0.002165 430.84933 446.54895
468.0 0.002137 430.84048 446.93781
480.0 0.002083 430.83182 447.33527
465.0 0.002151 430.82321 447.74030
459.0 0.002179 430.81467 448.15143
452.0 0.002212 430.80618 448.56772
446.0 0.002242 430.79788 448.98798
487.0 0.002053 430.78955 449.41013
458.0 0.002183 430.78122 449.83279
449.0 0.002227 430.77316 450.25412
441.0 0.002268 430.76505 450.67218
439.0 0.002278 430.75708 451.08517
457.0 0.002188 430.74915 451.49091
454.0 0.002203 430.74121 451.88757
447.0 0.002237 430.73349 452.27338
443.0 0.002257 430.72586 452.64670
450.0 0.002222 430.71817 453.00616
459.0 0.002179 430.71069 453.35086
463.0 0.002160 430.70331 453.68002
470.0 0.002128 430.69586 453.99408
458.0 0.002183 430.68857 454.29303
474.0 0.002110 430.68137 454.57828
474.0 0.002110 430.67413 454.85144
466.0 0.002146 430.66711 455.11505
478.0 0.002092 430.66019 455.37189
471.0 0.002123 430.65323 455.62515
486.0 0.002058 430.64645 455.87894
465.0 0.002151 430.63983 456.13754
460.0 0.002174 430.63312 456.40543
450.0 0.002222 430.62646 456.68741
450.0 0.002222 430.62009 456.98849
455.0 0.002198 430.61368 457.31396
462.0 0.002165 430.60724 457.66904
465.0 0.002151 430.60101 458.05920
464.0 0.002155 430.59488 458.48996
456.0 0.002193 430.58881 458.96683
453.0 0.002208 430.58279 459.49554
444.0 0.002252 430.57693 460.08160
451.0 0.002217 430.57111 460.73090
457.0 0.002188 430.56528 461.44940
451.0 0.002217 430.55975 462.24295
446.0 0.002242 430.55414 463.11758
452.0 0.002212 430.54858 464.07932
473.0 0.002114 430.54324 465.13409
486.0 0.002058 430.53796 466.28821
485.0 0.002062 430.53275 467.54770
468.0 0.002137 430.52765 468.91852
460.0 0.002174 430.52255 470.40668
464.0 0.002155 430.51752 472.01791
473.0 0.002114 430.51273 473.75821
475.0 0.002105 430.50787 475.63278
502.0 0.001992 430.50314 477.64685
507.0 0.001972 430.49841 479.80536
479.0 0.002088 430.49399 482.11295
477.0 0.002096 430.48953 484.57321
465.0 0.002151 430.48517 487.18985
464.0 0.002155 430.48096 489.96579
466.0 0.002146 430.47665 492.90302
471.0 0.002123 430.47260 496.00302
485.0 0.002062 430.46872 499.26654
486.0 0.002058 430.46466 502.69281
491.0 0.002037 430.46091 506.28052
495.0 0.002020 430.45724 510.02713
475.0 0.002105 430.45352 513.92902
483.0 0.002070 430.44989 517.98071
489.0 0.002045 430.44656 522.17578
510.0 0.001961 430.44312 526.50604
537.0 0.001862 430.43985 530.96143
516.0 0.001938 430.43668 535.53021
521.0 0.001919 430.43359 540.19849
543.0 0.001842 430.43060 544.95032
553.0 0.001808 430.42767 549.76740
561.0 0.001783 430.42484 554.62848
545.0 0.001835 430.42212 559.51025
555.0 0.001802 430.41956 564.38611
560.0 0.001786 430.41690 569.22681
589.0 0.001698 430.41449 574.00000
571.0 0.001751 430.41205 578.67047
583.0 0.001715 430.40988 583.20087
618.0 0.001618 430.40771 587.55096
607.0 0.001647 430.40567 591.67908
636.0 0.001572 430.40369 595.54218
646.0 0.001548 430.40167 599.09741
615.0 0.001626 430.39999 602.30280
649.0 0.001541 430.39825 605.11829
648.0 0.001543 430.39667 607.50763
666.0 0.001502 430.39517 609.43890
677.0 0.001477 430.39368 610.88696
676.0 0.001479 430.39252 611.83337
682.0 0.001466 430.39114 612.26788
667.0 0.001499 430.39014 612.18884
710.0 0.001408 430.38904 611.60364
707.0 0.001414 430.38815 610.52728
674.0 0.001484 430.38736 608.98352
657.0 0.001522 430.38675 607.00269
663.0 0.001508 430.38599 604.62073
644.0 0.001553 430.38553 601.87817
629.0 0.001590 430.38507 598.81897
602.0 0.001661 430.38464 595.48834
627.0 0.001595 430.38440 591.93225
622.0 0.001608 430.38425 588.19666
612.0 0.001634 430.38434 584.32593
599.0 0.001669 430.38440 580.36273
581.0 0.001721 430.38461 576.34772
616.0 0.001623 430.38477 572.31830
597.0 0.001675 430.38516 568.31024
561.0 0.001783 430.38565 564.35596
540.0 0.001852 430.38617 560.48523
535.0 0.001869 430.38687 556.72546
543.0 0.001842 430.38763 553.10168
534.0 0.001873 430.38855 549.63666
546.0 0.001832 430.38940 546.35095
543.0 0.001842 430.39047 543.26361
518.0 0.001931 430.39169 540.39154
496.0 0.002016 430.39301 537.74988
514.0 0.001946 430.39432 535.35242
511.0 0.001957 430.39581 533.21198
514.0 0.001946 430.39737 531.33899
518.0 0.001931 430.39908 529.74323
503.0 0.001988 430.40091 528.43329
503.0 0.001988 430.40280 527.41626
490.0 0.002041 430.40469 526.69794
505.0 0.001980 430.40686 526.28326
507.0 0.001972 430.40909 526.17578
502.0 0.001992 430.41138 526.37775
511.0 0.001957 430.41382 526.89075
497.0 0.002012 430.41638 527.71423
515.0 0.001942 430.41891 528.84760
528.0 0.001894 430.42163 530.28790
509.0 0.001965 430.42456 532.03156
525.0 0.001905 430.42749 534.07343
532.0 0.001880 430.43057 536.40704
528.0 0.001894 430.43365 539.02454
527.0 0.001898 430.43689 541.91650
517.0 0.001934 430.44037 545.07190
526.0 0.001901 430.44379 548.47821
510.0 0.001961 430.44730 552.12109
522.0 0.001916 430.45102 555.98383
528.0 0.001894 430.45483 560.04877
520.0 0.001923 430.45877 564.29480
552.0 0.001812 430.46274 568.69952
554.0 0.001805 430.46704 573.23767
581.0 0.001721 430.47119 577.88110
560.0 0.001786 430.47546 582.59906
608.0 0.001645 430.47992 587.35779
616.0 0.001623 430.48456 592.12018
592.0 0.001689 430.48914 596.84662
611.0 0.001637 430.49399 601.49390
635.0 0.001575 430.49881 606.01587
646.0 0.001548 430.50369 610.36456
646.0 0.001548 430.50888 614.48962
623.0 0.001605 430.51410 618.33948
631.0 0.001585 430.51941 621.86237
655.0 0.001527 430.52484 625.00830
668.0 0.001497 430.53040 627.72888
679.0 0.001473 430.53607 629.98035
668.0 0.001497 430.54190 631.72400
648.0 0.001543 430.54785 632.92834
638.0 0.001567 430.55374 633.57031
634.0 0.001577 430.55984 633.63593
653.0 0.001531 430.56610 633.12103
669.0 0.001495 430.57239 632.03168
680.0 0.001471 430.57886 630.38318
693.0 0.001443 430.58542 628.20050
667.0 0.001499 430.59210 625.51593
683.0 0.001464 430.59885 622.36804
674.0 0.001484 430.60577 618.80084
649.0 0.001541 430.61276 614.86127
648.0 0.001543 430.61987 610.59796
642.0 0.001558 430.62720 606.06049
644.0 0.001553 430.63452 601.29694
625.0 0.001600 430.64203 596.35474
638.0 0.001567 430.64951 591.27777
613.0 0.001631 430.65732 586.10773
603.0 0.001658 430.66510 580.88293
584.0 0.001712 430.67300 575.63867
562.0 0.001779 430.68103 570.40631
570.0 0.001754 430.68921 565.21417
562.0 0.001779 430.69739 560.08765
567.0 0.001764 430.70584 555.04907
561.0 0.001783 430.71442 550.11755
529.0 0.001890 430.72293 545.31006
519.0 0.001927 430.73175 540.64117
531.0 0.001883 430.74063 536.12250
526.0 0.001901 430.74954 531.76465
503.0 0.001988 430.75870 527.57581
499.0 0.002004 430.76791 523.56195
499.0 0.002004 430.77707 519.72809
508.0 0.001969 430.78671 516.07788
505.0 0.001980 430.79623 512.61285
496.0 0.002016 430.80582 509.33395
484.0 0.002066 430.81573 506.24072
498.0 0.002008 430.82559 503.33157
500.0 0.002000 430.83563 500.60471
499.0 0.002004 430.84583 498.05670
517.0 0.001934 430.85602 495.68356
485.0 0.002062 430.86639 493.48108
486.0 0.002058 430.87701 491.44458
511.0 0.001957 430.88757 489.56833
493.0 0.002028 430.89835 487.84698
500.0 0.002000 430.90921 486.27451
510.0 0.001961 430.92023 484.84506
501.0 0.001996 430.93130 483.55222
497.0 0.002012 430.94247 482.82117
471.0 0.002123 430.95383 481.78583
487.0 0.002053 430.96536 480.86899
472.0 0.002119 430.97693 480.06479
482.0 0.002075 430.98862 479.36789
478.0 0.002092 431.00046 478.77252
503.0 0.001988 431.01248 478.27383
496.0 0.002016 431.02466 477.86694
484.0 0.002066 431.03671 477.54718
475.0 0.002105 431.04901 477.31070
477.0 0.002096 431.06149 477.15359
475.0 0.002105 431.07407 477.07251
484.0 0.002066 431.08673 477.06430
470.0 0.002128 431.09946 477.12695
466.0 0.002146 431.11249 477.25797
486.0 0.002058 431.12549 477.45581
473.0 0.002114 431.13867 477.71954
477.0 0.002096 431.15201 478.04810
520.0 0.001923 431.16541 478.44153
528.0 0.001894 431.17902 478.90024
506.0 0.001976 431.19278 479.42477
477.0 0.002096 431.20654 480.01700
479.0 0.002088 431.22043 480.67877
475.0 0.002105 431.23450 481.41281
490.0 0.002041 431.24860 482.22260
480.0 0.002083 431.26285 483.11221
460.0 0.002174 431.27737 484.08649
491.0 0.002037 431.29181 485.15106
501.0 0.001996 431.30652 486.31287
506.0 0.001976 431.32144 487.57932
511.0 0.001957 431.33633 488.95901
515.0 0.001942 431.35132 490.46136
502.0 0.001992 431.36642 492.09772
505.0 0.001980 431.38174 493.87970
504.0 0.001984 431.39713 495.82071
514.0 0.001946 431.41260 497.93552
528.0 0.001894 431.42850 500.24008
543.0 0.001842 431.44421 502.75204
529.0 0.001890 431.46014 505.49060
522.0 0.001916 431.47620 508.47583
540.0 0.001852 431.49243 511.73441
529.0 0.001890 431.50870 515.28180
524.0 0.001908 431.52524 519.14679
536.0 0.001866 431.54175 523.35645
550.0 0.001818 431.55832 527.93872
570.0 0.001754 431.57513 532.92261
580.0 0.001724 431.59213 538.33881
578.0 0.001730 431.60919 544.21893
564.0 0.001773 431.62650 550.59515
577.0 0.001733 431.64380 557.50031
597.0 0.001675 431.66116 564.96759
592.0 0.001689 431.67886 573.03046
581.0 0.001721 431.69656 581.72137
585.0 0.001709 431.71432 591.07281
636.0 0.001572 431.73236 601.11566
635.0 0.001575 431.75043 611.87970
627.0 0.001595 431.76868 623.39209
631.0 0.001585 431.78702 635.67828
621.0 0.001610 431.80548 648.76007
643.0 0.001555 431.82404 662.65607
680.0 0.001471 431.84280 677.38074
684.0 0.001462 431.86176 692.94373
724.0 0.001381 431.88074 709.35016
702.0 0.001425 431.89984 726.59833
690.0 0.001449 431.91916 744.68115
722.0 0.001385 431.93866 763.58386
768.0 0.001302 431.95798 783.28473
775.0 0.001290 431.97763 803.75348
792.0 0.001263 431.99747 824.95087
823.0 0.001215 432.01733 846.82861
815.0 0.001227 432.03748 869.32782
823.0 0.001215 432.05771 892.37817
838.0 0.001193 432.07797 915.89850
842.0 0.001188 432.09833 939.75201
853.0 0.001172 432.11899 963.91553
884.0 0.001131 432.13962 988.22467
943.0 0.001060 432.16058 1012.54218
995.0 0.001005 432.18143 1036.71545
988.0 0.001012 432.20255 1060.57617
981.0 0.001019 432.22375 1083.94031
1004.0 0.000996 432.24515 1106.60938
1060.0 0.000943 432.26663 1128.37122
1076.0 0.000929 432.28815 1149.00232
1074.0 0.000931 432.31000 1168.27234
1067.0 0.000937 432.33191 1185.94849
1048.0 0.000954 432.35391 1201.79944
1079.0 0.000927 432.37610 1215.60449
1113.0 0.000898 432.39841 1227.15906
1131.0 0.000884 432.42075 1236.28333
1164.0 0.000859 432.44339 1242.82886
1151.0 0.000869 432.46600 1246.68591
1104.0 0.000906 432.48877 1247.78845
1139.0 0.000878 432.51169 1246.11633
1167.0 0.000857 432.53494 1241.69739
1133.0 0.000883 432.55807 1234.60608
1113.0 0.000898 432.58139 1224.95947
1113.0 0.000898 432.60495 1212.91235
1084.0 0.000923 432.62854 1198.64929
1083.0 0.000923 432.65228 1182.37903
1037.0 0.000964 432.67615 1164.32581
1011.0 0.000989 432.70013 1144.72095
1029.0 0.000972 432.72430 1123.79907
1028.0 0.000973 432.74860 1101.78943
1020.0 0.000980 432.77310 1078.91406
1011.0 0.000989 432.79761 1055.38293
1026.0 0.000975 432.82217 1031.39185
1010.0 0.000990 432.84708 1007.12231
1005.0 0.000995 432.87207 982.73969
997.0 0.001003 432.89706 958.39325
985.0 0.001015 432.92233 934.21722
959.0 0.001043 432.94775 910.33081
895.0 0.001117 432.97305 886.83905
851.0 0.001175 432.99881 863.83350
823.0 0.001215 433.02457 841.39325
801.0 0.001248 433.05038 819.58643
810.0 0.001235 433.07654 798.46899
780.0 0.001282 433.10269 778.08783
745.0 0.001342 433.12891 758.48016
768.0 0.001302 433.15543 739.67407
733.0 0.001364 433.18195 721.69025
744.0 0.001344 433.20868 704.54150
736.0 0.001359 433.23557 688.23389
701.0 0.001427 433.26263 672.76727
685.0 0.001460 433.28970 658.13599
664.0 0.001506 433.31696 644.32898
631.0 0.001585 433.34436 631.33075
618.0 0.001618 433.37180 619.12225
617.0 0.001621 433.39944 607.68042
614.0 0.001629 433.42734 596.97961
621.0 0.001610 433.45517 586.99188
599.0 0.001669 433.48334 577.68683
575.0 0.001739 433.51144 569.03333
598.0 0.001672 433.53983 560.99884
577.0 0.001733 433.56821 553.55011
582.0 0.001718 433.59695 546.65369
572.0 0.001748 433.62567 540.27655
565.0 0.001770 433.65445 534.38568
540.0 0.001852 433.68359 528.94836
538.0 0.001859 433.71271 523.93347
516.0 0.001938 433.74191 519.31049
517.0 0.001934 433.77145 515.04993
541.0 0.001848 433.80096 511.12387
511.0 0.001957 433.83060 507.50580
521.0 0.001919 433.86047 504.17053
517.0 0.001934 433.89047 501.09436
501.0 0.001996 433.92047 498.25531
506.0 0.001976 433.95084 495.63266
499.0 0.002004 433.98123 493.20715
492.0 0.002033 434.01166 490.96140
505.0 0.001980 434.04245 488.87897
497.0 0.002012 434.07312 486.94495
480.0 0.002083 434.10419 485.14572
484.0 0.002066 434.13513 483.46890
478.0 0.002092 434.16638 481.90311
472.0 0.002119 434.19778 480.43839
478.0 0.002092 434.22928 479.06525
489.0 0.002045 434.26080 477.78506
484.0 0.002066 434.29260 476.57117
463.0 0.002160 434.32449 475.42642
476.0 0.002101 434.35654 474.34470
468.0 0.002137 434.38867 473.32104
458.0 0.002183 434.42096 472.35025
485.0 0.002062 434.45346 471.42786
495.0 0.002020 434.48593 470.55038
509.0 0.001965 434.51865 469.71432
495.0 0.002020 434.55167 468.91660
481.0 0.002079 434.58456 468.15424
493.0 0.002028 434.61761 467.42502
469.0 0.002132 434.65094 466.72665
474.0 0.002110 434.68427 466.29309
468.0 0.002137 434.71774 465.65201
458.0 0.002183 434.75159 465.03625
454.0 0.002203 434.78537 464.44452
447.0 0.002237 434.81927 463.87558
457.0 0.002188 434.85333 463.32800
442.0 0.002262 434.88757 462.80087
439.0 0.002278 434.92203 462.29318
444.0 0.002252 434.95642 461.80368
442.0 0.002262 434.99115 461.33200
446.0 0.002242 435.02582 460.87714
455.0 0.002198 435.06070 460.43817
479.0 0.002088 435.09576 460.01456
458.0 0.002183 435.13107 459.60577
439.0 0.002278 435.16623 459.21112
437.0 0.002288 435.20175 458.82999
436.0 0.002294 435.23730 458.46191
434.0 0.002304 435.27304 458.10638
452.0 0.002212 435.30902 457.76285
444.0 0.002252 435.34500 457.43097
439.0 0.002278 435.38107 457.36703
435.0 0.002299 435.41739 457.05817
439.0 0.002278 435.45386 456.75989
437.0 0.002288 435.49039 456.47156
437.0 0.002288 435.52701 456.19290
436.0 0.002294 435.56390 455.92361
440.0 0.002273 435.60080 455.66351
459.0 0.002179 435.63800 455.41214
460.0 0.002174 435.67523 455.16910
454.0 0.002203 435.71262 454.93448
457.0 0.002188 435.75012 454.70767
434.0 0.002304 435.78775 454.48859
435.0 0.002299 435.82553 454.27689
459.0 0.002179 435.86349 454.07257
460.0 0.002174 435.90158 453.87518
479.0 0.002088 435.93970 453.68466
463.0 0.002160 435.97806 453.50058
464.0 0.002155 436.01657 453.32843
462.0 0.002165 436.05518 453.14178
454.0 0.002203 436.09390 452.97684
471.0 0.002123 436.13275 452.81744
455.0 0.002198 436.17188 452.66391
450.0 0.002222 436.21091 452.51596
456.0 0.002193 436.25037 452.37341
436.0 0.002294 436.28976 452.23611
436.0 0.002294 436.32925 452.10397
434.0 0.002304 436.36902 451.97693
457.0 0.002188 436.40894 451.85468
462.0 0.002165 436.44879 451.73730
452.0 0.002212 436.48895 451.62473
456.0 0.002193 436.52933 451.51624
453.0 0.002208 436.56958 451.41248
454.0 0.002203 436.61008 451.31305
452.0 0.002212 436.65073 451.21777
457.0 0.002188 436.69168 451.12686
455.0 0.002198 436.73242 451.03992
460.0 0.002174 436.77353 450.95670
454.0 0.002203 436.81479 450.87775
450.0 0.002222 436.85608 450.80243
430.0 0.002326 436.89752 450.73080
442.0 0.002262 436.93921 450.66306
442.0 0.002262 436.98096 450.59872
438.0 0.002283 437.02280 450.53793
463.0 0.002160 437.06491 450.48071
456.0 0.002193 437.10703 450.42697
448.0 0.002232 437.14932 450.37628
454.0 0.002203 437.19177 450.32916
445.0 0.002247 437.23434 450.28528
453.0 0.002208 437.27704 450.24466
444.0 0.002252 437.31989 450.20700
447.0 0.002237 437.36282 450.17261
445.0 0.002247 437.40610 450.14145
436.0 0.002294 437.44925 450.11331
446.0 0.002242 437.49252 450.08792
442.0 0.002262 437.53604 450.06573
442.0 0.002262 437.57968 450.04639
435.0 0.002299 437.62350 450.02991
442.0 0.002262 437.66739 450.01660
434.0 0.002304 437.71146 450.00577
424.0 0.002358 437.75580 449.99811
444.0 0.002252 437.79993 449.99319
435.0 0.002299 437.84442 449.99100
445.0 0.002247 437.88910 449.99164
432.0 0.002315 437.93375 449.99496
450.0 0.002222 437.97858 450.00125
451.0 0.002217 438.02362 450.01019
464.0 0.002155 438.06873 450.02176
450.0 0.002222 438.11398 450.03632
434.0 0.002304 438.15936 450.05341
431.0 0.002320 438.20490 450.07330
436.0 0.002294 438.25052 450.09604
435.0 0.002299 438.29639 450.12137
443.0 0.002257 438.34235 450.14960
449.0 0.002227 438.38837 450.18045
442.0 0.002262 438.43457 450.21408
435.0 0.002299 438.48090 450.27625
439.0 0.002278 438.52731 450.31577
441.0 0.002268 438.57394 450.35764
438.0 0.002283 438.62061 450.40274
422.0 0.002370 438.66757 450.45062
424.0 0.002358 438.71454 450.50122
445.0 0.002247 438.76166 450.55478
445.0 0.002247 438.80881 450.61130
461.0 0.002169 438.85635 450.67072
446.0 0.002242 438.90390 450.73318
456.0 0.002193 438.95145 450.79874
458.0 0.002183 438.99918 450.86694
457.0 0.002188 439.04715 450.93878
463.0 0.002160 439.09521 450.70114
458.0 0.002183 439.14343 450.78055
450.0 0.002222 439.19171 450.86334
450.0 0.002222 439.24017 450.94931
451.0 0.002217 439.28876 451.03891
458.0 0.002183 439.33743 451.13162
451.0 0.002217 439.38620 451.22791
444.0 0.002252 439.43515 451.32785
455.0 0.002198 439.48434 451.43124
455.0 0.002198 439.53351 451.53848
460.0 0.002174 439.58289 451.64941
453.0 0.002208 439.63232 451.76425
454.0 0.002203 439.68195 451.88300
443.0 0.002257 439.73178 452.00589
459.0 0.002179 439.78162 452.13284
472.0 0.002119 439.83151 452.26410
464.0 0.002155 439.88181 452.40002
451.0 0.002217 439.93201 452.68610
442.0 0.002262 439.98233 452.83176
443.0 0.002257 440.03293 452.98233
449.0 0.002227 440.08356 453.13788
424.0 0.002358 440.13446 453.29840
438.0 0.002283 440.18530 453.46432
445.0 0.002247 440.23630 453.63568
449.0 0.002227 440.28760 453.81284
484.0 0.002066 440.33881 453.99591
460.0 0.002174 440.39014 454.18503
454.0 0.002203 440.44177 454.38058
455.0 0.002198 440.49341 454.58267
459.0 0.002179 440.54514 454.79190
453.0 0.002208 440.59723 455.00839
446.0 0.002242 440.64920 455.23251
450.0 0.002222 440.70142 455.46469
447.0 0.002237 440.75381 455.70526
436.0 0.002294 440.80612 455.95477
432.0 0.002315 440.85880 456.21387
449.0 0.002227 440.91147 456.48270
496.0 0.002016 440.96426 456.76233
480.0 0.002083 441.01727 457.05334
463.0 0.002160 441.07028 457.35641
461.0 0.002169 441.12354 457.67252
446.0 0.002242 441.17682 458.00284
444.0 0.002252 441.23032 458.34787
468.0 0.002137 441.28391 458.70914
455.0 0.002198 441.33759 459.08835
451.0 0.002217 441.39130 459.48636
446.0 0.002242 441.44537 459.90521
445.0 0.002247 441.49936 460.34671
454.0 0.002203 441.55350 460.81274
455.0 0.002198 441.60803 461.30573
466.0 0.002146 441.66241 461.82788
466.0 0.002146 441.71689 462.38239
470.0 0.002128 441.77164 462.97205
475.0 0.002105 441.82651 463.60025
466.0 0.002146 441.88135 464.27039
467.0 0.002141 441.93658 464.98688
461.0 0.002169 441.99170 465.75375
464.0 0.002155 442.04700 466.57565
458.0 0.002183 442.10245 467.45795
462.0 0.002165 442.15796 468.40582
469.0 0.002132 442.21371 469.42566
471.0 0.002123 442.26947 470.52322
494.0 0.002024 442.32535 471.70535
511.0 0.001957 442.38147 472.97925
491.0 0.002037 442.43759 474.35211
492.0 0.002033 442.49377 475.83228
479.0 0.002088 442.55032 477.42764
482.0 0.002075 442.60681 479.14682
477.0 0.002096 442.66339 480.99854
478.0 0.002092 442.72015 482.99216
479.0 0.002088 442.77710 484.81708
492.0 0.002033 442.83432 487.12335
504.0 0.001984 442.89120 489.59912
532.0 0.001880 442.94849 492.25375
518.0 0.001931 443.00595 495.09644
524.0 0.001908 443.06332 498.13626
528.0 0.001894 443.12106 501.38168
508.0 0.001969 443.17874 504.84091
498.0 0.002008 443.23651 508.52151
514.0 0.001946 443.29437 512.43024
531.0 0.001883 443.35260 516.57343
530.0 0.001887 443.41074 520.95575
518.0 0.001931 443.46899 527.00629
512.0 0.001953 443.52756 531.88477
517.0 0.001934 443.58606 537.01062
541.0 0.001848 443.64478 542.38324
546.0 0.001832 443.70352 548.00055
549.0 0.001821 443.76236 553.85852
548.0 0.001825 443.82135 559.95166
565.0 0.001770 443.88049 566.27142
580.0 0.001724 443.93976 572.80719
587.0 0.001704 443.99918 579.54608
585.0 0.001709 444.05859 586.47168
593.0 0.001686 444.11816 593.56573
628.0 0.001592 444.17786 600.80566
629.0 0.001590 444.23761 608.16541
629.0 0.001590 444.29767 615.61658
647.0 0.001546 444.35773 623.12512
652.0 0.001534 444.41776 630.65393
690.0 0.001449 444.47821 638.16107
691.0 0.001447 444.53854 645.60046
681.0 0.001468 444.59900 652.92126
698.0 0.001433 444.65967 660.06805
690.0 0.001449 444.72040 666.98187
714.0 0.001401 444.78122 673.60004
717.0 0.001395 444.84219 679.85675
718.0 0.001393 444.90329 685.68463
696.0 0.001437 444.96442 691.01611
692.0 0.001445 445.02576 695.78491
708.0 0.001412 445.08710 699.92841
694.0 0.001441 445.14868 703.38861
709.0 0.001410 445.21024 706.11499
742.0 0.001348 445.27200 708.06738
743.0 0.001346 445.33389 709.21631
741.0 0.001350 445.39566 709.54413
733.0 0.001364 445.45770 709.04761
765.0 0.001307 445.51996 707.73639
779.0 0.001284 445.58218 705.63336
772.0 0.001295 445.64459 702.77368
778.0 0.001285 445.70700 699.20245
781.0 0.001280 445.76965 694.97388
731.0 0.001368 445.83240 690.14844
728.0 0.001374 445.89514 684.79120
700.0 0.001429 445.95807 678.96960
686.0 0.001458 446.02109 672.75134
674.0 0.001484 446.08429 666.20349
674.0 0.001484 446.14755 659.39087
643.0 0.001555 446.21085 652.37445
647.0 0.001546 446.27426 645.21228
647.0 0.001546 446.33780 637.95697
647.0 0.001546 446.40149 630.65759
634.0 0.001577 446.46527 623.35828
625.0 0.001600 446.52902 616.09875
613.0 0.001631 446.59305 608.91437
616.0 0.001623 446.65707 601.83643
587.0 0.001704 446.72141 594.89227
585.0 0.001709 446.78561 588.10565
564.0 0.001773 446.85010 581.49719
546.0 0.001832 446.91464 575.08398
548.0 0.001825 446.97910 568.88013
534.0 0.001873 447.04379 562.89771
529.0 0.001890 447.10870 557.14557
563.0 0.001776 447.17361 551.63013
535.0 0.001869 447.23840 546.35602
539.0 0.001855 447.30359 541.32623
545.0 0.001835 447.36880 536.54089
525.0 0.001905 447.43423 531.99951
545.0 0.001835 447.49954 527.69940
519.0 0.001927 447.56500 523.63672
501.0 0.001996 447.63065 519.80664
511.0 0.001957 447.69638 516.20319
495.0 0.002020 447.76212 512.81952
495.0 0.002020 447.82806 509.64795
480.0 0.002083 447.89401 506.79285
481.0 0.002079 447.96008 504.02142
475.0 0.002105 448.02631 501.43671
486.0 0.002058 448.09253 499.02975
480.0 0.002083 448.15900 496.79114
478.0 0.002092 448.22546 494.71225
476.0 0.002101 448.29205 492.78366
479.0 0.002088 448.35876 490.99689
489.0 0.002045 448.42551 489.34274
493.0 0.002028 448.49225 487.81342
493.0 0.002028 448.55927 486.40039
491.0 0.002037 448.62634 485.09598
477.0 0.002096 448.69348 483.89270
476.0 0.002101 448.76080 482.78357
489.0 0.002045 448.82806 481.76178
494.0 0.002024 448.89557 480.82074
496.0 0.002016 448.96304 479.95459
480.0 0.002083 449.03070 479.15778
465.0 0.002151 449.09836 478.42505
464.0 0.002155 449.16620 477.75110
470.0 0.002128 449.23410 477.13187
500.0 0.002000 449.30209 476.56314
480.0 0.002083 449.37018 476.04053
467.0 0.002141 449.43832 475.56094
478.0 0.002092 449.50662 475.12125
473.0 0.002114 449.57480 474.71793
463.0 0.002160 449.64328 474.34866
453.0 0.002208 449.71185 474.01108
450.0 0.002222 449.78049 473.70261
450.0 0.002222 449.84912 473.42145
449.0 0.002227 449.91797 473.16583
452.0 0.002212 449.98685 472.98135
459.0 0.002179 450.05573 472.77206
471.0 0.002123 450.12485 472.58392
474.0 0.002110 450.19388 472.41534
473.0 0.002114 450.26318 472.26575
464.0 0.002155 450.33255 472.13397
465.0 0.002151 450.40186 472.01907
483.0 0.002070 450.47137 471.92044
474.0 0.002110 450.54089 471.83731
474.0 0.002110 450.61041 471.76901
468.0 0.002137 450.68036 471.71500
480.0 0.002083 450.75012 471.67511
474.0 0.002110 450.82010 471.64862
461.0 0.002169 450.88998 471.63516
461.0 0.002169 450.96005 471.63455
470.0 0.002128 451.03040 471.64658
464.0 0.002155 451.10049 471.67087
464.0 0.002155 451.17072 471.70731
480.0 0.002083 451.24127 473.05423
485.0 0.002062 451.31161 473.12140
481.0 0.002079 451.38220 473.20065
478.0 0.002092 451.45288 472.08887
474.0 0.002110 451.52356 472.19839
470.0 0.002128 451.59430 472.32022
463.0 0.002160 451.66522 472.45474
468.0 0.002137 451.73618 472.60175
497.0 0.002012 451.80725 472.75342
477.0 0.002096 451.87830 472.92725
488.0 0.002049 451.94946 473.11469
481.0 0.002079 452.02081 473.31732
471.0 0.002123 452.09207 473.53488
470.0 0.002128 452.16342 473.76852
458.0 0.002183 452.23499 474.01932
452.0 0.002212 452.30661 474.28809
462.0 0.002165 452.37817 474.57608
464.0 0.002155 452.44998 474.88477
470.0 0.002128 452.52170 475.21533
473.0 0.002114 452.59354 475.56970
480.0 0.002083 452.66559 475.94980
464.0 0.002155 452.73746 476.35712
467.0 0.002141 452.80954 476.79462
473.0 0.002114 452.88181 477.26453
457.0 0.002188 452.95395 477.76935
480.0 0.002083 453.02640 478.31229
467.0 0.002141 453.09866 478.89645
486.0 0.002058 453.17111 479.52515
478.0 0.002092 453.24359 480.20248
467.0 0.002141 453.31619 480.93195
483.0 0.002070 453.38889 481.71805
475.0 0.002105 453.46152 482.56552
483.0 0.002070 453.53433 483.47842
497.0 0.002012 453.60721 484.46231
493.0 0.002028 453.68018 485.52176
492.0 0.002033 453.75305 486.66266
501.0 0.001996 453.82620 487.89041
511.0 0.001957 453.89932 489.21045
513.0 0.001949 453.97238 490.62845
517.0 0.001934 454.04587 492.15045
542.0 0.001845 454.11902 493.78186
533.0 0.001876 454.19244 495.52850
545.0 0.001835 454.26596 497.39600
552.0 0.001812 454.33945 499.38959
545.0 0.001835 454.41299 501.51425
551.0 0.001815 454.48663 503.77493
563.0 0.001776 454.56046 506.17569
565.0 0.001770 454.63422 508.72046
562.0 0.001779 454.70792 511.41232
544.0 0.001838 454.78189 514.25378
548.0 0.001825 454.85587 517.24670
572.0 0.001748 454.92990 520.39178
544.0 0.001838 455.00385 523.68896
541.0 0.001848 455.07809 527.13690
545.0 0.001835 455.15216 530.73358
551.0 0.001815 455.22641 534.47528
566.0 0.001767 455.30084 538.35699
572.0 0.001748 455.37515 542.37250
586.0 0.001706 455.44968 546.51398
593.0 0.001686 455.52414 550.77142
606.0 0.001650 455.59860 555.13342
600.0 0.001667 455.67316 559.58716
563.0 0.001776 455.74789 564.11676
585.0 0.001709 455.82254 568.70465
606.0 0.001650 455.89746 573.33075
602.0 0.001661 455.97214 577.97290
597.0 0.001675 456.04703 582.60583
588.0 0.001701 456.12201 587.20239
591.0 0.001692 456.19702 591.73212
587.0 0.001704 456.27206 596.16211
589.0 0.001698 456.34717 600.45740
605.0 0.001653 456.42212 604.58051
608.0 0.001645 456.49744 608.55518
584.0 0.001712 456.57263 612.21753
581.0 0.001721 456.64795 615.58942
580.0 0.001724 456.72336 618.63257
578.0 0.001730 456.79868 621.30975
598.0 0.001672 456.87411 623.58734
613.0 0.001631 456.94958 625.43713
638.0 0.001567 457.02509 626.83521
640.0 0.001563 457.10065 627.76587
618.0 0.001618 457.17633 628.22003
637.0 0.001570 457.25201 628.19727
645.0 0.001550 457.32785 627.70483
628.0 0.001592 457.40359 626.75781
628.0 0.001592 457.47937 625.37823
625.0 0.001600 457.55524 623.59497
619.0 0.001616 457.63113 621.44104
630.0 0.001587 457.70709 619.21832
616.0 0.001623 457.78314 616.43842
620.0 0.001613 457.85904 613.40546
627.0 0.001595 457.93515 610.16083
593.0 0.001686 458.01135 606.74493
578.0 0.001730 458.08746 603.19696
579.0 0.001727 458.16367 599.55396
575.0 0.001739 458.23993 595.85089
587.0 0.001704 458.31616 592.11981
580.0 0.001724 458.39261 588.39142
587.0 0.001704 458.46902 584.69214
558.0 0.001792 458.54526 581.04700
577.0 0.001733 458.62186 577.47827
596.0 0.001678 458.69827 574.00592
607.0 0.001647 458.77478 570.64752
612.0 0.001634 458.85132 567.41931
597.0 0.001675 458.92789 564.33447
578.0 0.001730 459.00446 561.40540
584.0 0.001712 459.08130 558.64288
569.0 0.001757 459.15796 556.05518
559.0 0.001789 459.23477 553.65027
532.0 0.001880 459.31149 551.43414
533.0 0.001876 459.38815 549.41241
589.0 0.001698 459.46521 547.58881
588.0 0.001701 459.54199 545.96637
562.0 0.001779 459.61887 544.54742
522.0 0.001916 459.69583 543.33374
529.0 0.001890 459.77280 542.32617
557.0 0.001795 459.84967 541.52502
571.0 0.001751 459.92691 540.93085
560.0 0.001786 460.00381 540.54248
535.0 0.001869 460.08109 540.36017
534.0 0.001873 460.15811 540.38226
533.0 0.001876 460.23526 540.60852
536.0 0.001866 460.31241 541.03741
535.0 0.001869 460.38956 541.66779
541.0 0.001848 460.46674 542.49823
544.0 0.001838 460.54416 543.52777
555.0 0.001802 460.62146 544.75470
555.0 0.001802 460.69855 546.17792
564.0 0.001773 460.77603 547.79590
551.0 0.001815 460.85336 549.60669
547.0 0.001828 460.93079 551.60925
557.0 0.001795 461.00821 553.80212
551.0 0.001815 461.08551 556.18323
559.0 0.001789 461.16309 558.75146
552.0 0.001812 461.24060 561.50464
566.0 0.001767 461.31793 564.44086
583.0 0.001715 461.39554 567.55811
569.0 0.001757 461.47308 570.85358
595.0 0.001681 461.55060 574.32410
588.0 0.001701 461.62817 577.96686
602.0 0.001661 461.70584 581.77692
616.0 0.001623 461.78333 585.74951
623.0 0.001605 461.86102 590.54236
620.0 0.001613 461.93869 594.82379
616.0 0.001623 462.01639 599.24622
593.0 0.001686 462.09399 603.79968
628.0 0.001592 462.17166 608.47266
618.0 0.001618 462.24954 613.25226
622.0 0.001608 462.32721 618.12262
633.0 0.001580 462.40491 623.06683
652.0 0.001534 462.48270 628.06531
679.0 0.001473 462.56042 633.09613
651.0 0.001536 462.63818 638.13519
671.0 0.001490 462.71609 643.15594
646.0 0.001548 462.79385 648.12952
663.0 0.001508 462.87158 653.02502
679.0 0.001473 462.94952 657.80969
680.0 0.001471 463.02728 662.44946
704.0 0.001420 463.10519 666.90961
687.0 0.001456 463.18307 671.15460
703.0 0.001422 463.26083 675.15063
721.0 0.001387 463.33875 678.86523
728.0 0.001374 463.41669 682.26782
768.0 0.001302 463.49438 685.33234
746.0 0.001340 463.57248 688.03699
759.0 0.001318 463.65033 690.36542
750.0 0.001333 463.72827 692.30713
732.0 0.001366 463.80621 693.85834
750.0 0.001333 463.88416 695.02173
714.0 0.001401 463.96204 695.80688
696.0 0.001437 464.04007 696.22913
692.0 0.001445 464.11789 696.30951
689.0 0.001451 464.19586 696.07434
693.0 0.001443 464.27377 695.55286
703.0 0.001422 464.35172 694.77856
725.0 0.001379 464.42972 693.78668
727.0 0.001376 464.50760 692.61279
714.0 0.001401 464.58548 691.29382
699.0 0.001431 464.66351 689.86530
692.0 0.001445 464.74142 688.36182
725.0 0.001379 464.81934 686.81665
705.0 0.001418 464.89740 685.26013
696.0 0.001437 464.97516 683.72009
660.0 0.001515 465.05328 682.22162
627.0 0.001595 465.13110 680.78613
644.0 0.001553 465.20895 679.43207
629.0 0.001590 465.28696 678.17401
638.0 0.001567 465.36484 677.02332
637.0 0.001570 465.44269 675.98767
675.0 0.001481 465.52069 675.07092
661.0 0.001513 465.59854 674.27368
643.0 0.001555 465.67636 673.59271
639.0 0.001565 465.75436 673.02209
646.0 0.001548 465.83215 672.55206
615.0 0.001626 465.91016 672.16986
597.0 0.001675 465.98798 671.86029
600.0 0.001667 466.06580 671.60541
589.0 0.001698 466.14362 671.38556
613.0 0.001631 466.22147 671.17950
622.0 0.001608 466.29916 670.96600
618.0 0.001618 466.37701 670.72369
598.0 0.001672 466.45477 670.43176
607.0 0.001647 466.53253 670.07233
624.0 0.001603 466.61026 669.63043
611.0 0.001637 466.68811 669.09491
620.0 0.001613 466.76581 668.45972
640.0 0.001563 466.84354 667.72382
651.0 0.001536 466.92117 666.89221
652.0 0.001534 466.99893 665.97589
627.0 0.001595 467.07645 664.99109
643.0 0.001555 467.15411 663.96008
626.0 0.001597 467.23181 662.90900
614.0 0.001629 467.30945 661.86841
622.0 0.001608 467.38696 660.87201
642.0 0.001558 467.46466 659.95581
624.0 0.001603 467.54208 659.15729
627.0 0.001595 467.61969 658.51550
630.0 0.001587 467.69727 658.06934
625.0 0.001600 467.77475 657.85797
624.0 0.001603 467.85220 657.92010
617.0 0.001621 467.92966 658.29431
621.0 0.001610 468.00696 659.01782
610.0 0.001639 468.08447 660.12799
602.0 0.001661 468.16177 661.66010
613.0 0.001631 468.23917 663.64941
624.0 0.001603 468.31653 666.12994
623.0 0.001605 468.39374 669.13434
640.0 0.001563 468.47092 672.69458
654.0 0.001529 468.54837 676.84094
691.0 0.001447 468.62546 681.60260
672.0 0.001488 468.70264 687.00653
655.0 0.001527 468.77982 693.07941
686.0 0.001458 468.85696 699.84454
678.0 0.001475 468.93405 707.32385
688.0 0.001453 469.01114 715.53650
680.0 0.001471 469.08810 724.49945
702.0 0.001425 469.16516 734.22681
708.0 0.001412 469.24210 744.72858
704.0 0.001420 469.31897 756.01270
712.0 0.001404 469.39603 768.08276
714.0 0.001401 469.47275 780.93768
732.0 0.001366 469.54953 794.57306
762.0 0.001312 469.62643 808.97937
782.0 0.001279 469.70328 824.14215
849.0 0.001178 469.77994 840.04120
861.0 0.001161 469.85663 856.65082
841.0 0.001189 469.93326 873.93951
839.0 0.001192 470.00995 891.86871
893.0 0.001120 470.08658 910.39270
910.0 0.001099 470.16306 929.45856
889.0 0.001125 470.23959 949.00488
908.0 0.001101 470.31604 968.96173
960.0 0.001042 470.39243 989.24969
1007.0 0.000993 470.46890 1009.77954
1008.0 0.000992 470.54526 1030.45105
1067.0 0.000937 470.62149 1051.15356
1051.0 0.000951 470.69781 1071.76477
1102.0 0.000907 470.77393 1092.15002
1169.0 0.000855 470.85013 1112.16455
1208.0 0.000828 470.92630 1131.65100
1177.0 0.000850 471.00238 1150.44409
1216.0 0.000822 471.07837 1168.36804
1254.0 0.000797 471.15430 1185.24231
1327.0 0.000754 471.23029 1200.88342
1326.0 0.000754 471.30630 1215.10925
1304.0 0.000767 471.38202 1227.74219
1344.0 0.000744 471.45779 1238.61560
1375.0 0.000727 471.53366 1247.57971
1398.0 0.000715 471.60938 1254.50427
1417.0 0.000706 471.68509 1259.28650
1424.0 0.000702 471.76062 1261.85278
1419.0 0.000705 471.83618 1262.16406
1406.0 0.000711 471.91174 1260.21484
1446.0 0.000692 471.98718 1256.03601
1378.0 0.000726 472.06241 1249.69153
1347.0 0.000742 472.13794 1242.73450
1311.0 0.000763 472.21320 1232.37939
1269.0 0.000788 472.28836 1220.22107
1276.0 0.000784 472.36349 1206.42102
1235.0 0.000810 472.43869 1191.15356
1192.0 0.000839 472.51370 1174.59717
1195.0 0.000837 472.58896 1156.93420
1167.0 0.000857 472.66373 1138.34448
1125.0 0.000889 472.73883 1119.00110
1157.0 0.000864 472.81348 1099.07019
1127.0 0.000887 472.88831 1078.70825
1084.0 0.000923 472.96313 1058.05957
1112.0 0.000899 473.03775 1037.25745
1056.0 0.000947 473.11224 1016.42389
1045.0 0.000957 473.18683 995.66882
1000.0 0.001000 473.26141 975.09027
952.0 0.001050 473.33578 954.77618
898.0 0.001114 473.41013 934.80432
844.0 0.001185 473.48441 915.24237
831.0 0.001203 473.55872 896.14935
817.0 0.001224 473.63293 877.57605
803.0 0.001245 473.70700 859.56543
806.0 0.001241 473.78116 842.15381
787.0 0.001271 473.85507 825.37006
763.0 0.001311 473.92892 809.23755
737.0 0.001357 474.00293 793.77405
742.0 0.001348 474.07660 778.99176
730.0 0.001370 474.15027 764.50018
725.0 0.001379 474.22397 751.10156
708.0 0.001412 474.29752 738.39447
703.0 0.001422 474.37103 726.37439
709.0 0.001410 474.44446 715.03455
686.0 0.001458 474.51776 704.36383
687.0 0.001456 474.59113 694.34991
649.0 0.001541 474.66437 684.97736
648.0 0.001543 474.73746 676.23004
618.0 0.001618 474.81061 668.08917
620.0 0.001613 474.88358 660.53534
621.0 0.001610 474.95648 653.54865
606.0 0.001650 475.02945 647.10803
624.0 0.001603 475.10214 641.19263
631.0 0.001585 475.17484 635.78082
628.0 0.001592 475.24753 630.85236
655.0 0.001527 475.32013 626.38641
613.0 0.001631 475.39267 622.36334
627.0 0.001595 475.46500 618.76404
614.0 0.001629 475.53726 615.57068
615.0 0.001626 475.60962 612.76685
617.0 0.001621 475.68179 610.33649
626.0 0.001597 475.75375 608.26599
630.0 0.001587 475.82581 606.54291
611.0 0.001637 475.89764 605.15588
621.0 0.001610 475.96954 604.09625
610.0 0.001639 476.04141 603.35620
600.0 0.001667 476.11307 602.92993
611.0 0.001637 476.18454 602.81366
612.0 0.001634 476.25626 603.00525
607.0 0.001647 476.32761 603.50415
613.0 0.001631 476.39899 604.31213
585.0 0.001709 476.47025 605.43225
586.0 0.001706 476.54135 606.86945
601.0 0.001664 476.61252 608.63074
608.0 0.001645 476.68350 610.72412
619.0 0.001616 476.75443 613.15948
599.0 0.001669 476.82523 615.94843
616.0 0.001623 476.89590 619.10370
607.0 0.001647 476.96667 622.63910
612.0 0.001634 477.03729 626.57007
625.0 0.001600 477.10767 630.90906
643.0 0.001555 477.17822 635.68085
638.0 0.001567 477.24841 640.89954
629.0 0.001590 477.31860 646.58313
630.0 0.001587 477.38873 652.75079
661.0 0.001513 477.45868 659.42084
630.0 0.001587 477.52866 666.61243
682.0 0.001466 477.59857 674.34369
722.0 0.001385 477.66818 682.63214
705.0 0.001418 477.73779 691.49408
679.0 0.001473 477.80743 700.94617
652.0 0.001534 477.87683 711.00153
652.0 0.001534 477.94614 721.67249
670.0 0.001493 478.01553 732.96948
675.0 0.001481 478.08466 745.52472
698.0 0.001433 478.15378 758.09552
712.0 0.001404 478.22275 771.30615
728.0 0.001374 478.29153 785.15430
719.0 0.001391 478.36044 799.63458
741.0 0.001350 478.42905 814.73700
785.0 0.001274 478.49750 830.44714
793.0 0.001261 478.56616 846.74597
809.0 0.001236 478.63446 863.60956
807.0 0.001239 478.70264 881.00854
850.0 0.001176 478.77100 898.90808
888.0 0.001126 478.83905 917.26685
896.0 0.001116 478.90698 936.03857
968.0 0.001033 478.97473 955.16919
1031.0 0.000970 479.04251 974.59857
1016.0 0.000984 479.11029 994.25897
1008.0 0.000992 479.17764 1014.07458
1010.0 0.000990 479.24512 1033.96191
1036.0 0.000965 479.31250 1053.82813
1075.0 0.000930 479.37967 1073.57166
1154.0 0.000867 479.44681 1093.08057
1156.0 0.000865 479.51382 1112.23425
1160.0 0.000862 479.58066 1130.90234
1161.0 0.000861 479.64746 1148.94470
1194.0 0.000838 479.71408 1166.21448
1233.0 0.000811 479.78076 1182.55811
1191.0 0.000840 479.84726 1197.81885
1228.0 0.000814 479.91364 1211.83862
1267.0 0.000789 479.97980 1224.46301
1296.0 0.000772 480.04593 1235.54468
1250.0 0.000800 480.11197 1244.94824
1284.0 0.000779 480.17776 1252.55420
1325.0 0.000755 480.24359 1258.26428
1371.0 0.000729 480.30930 1262.00464
1372.0 0.000729 480.37482 1263.72839
1393.0 0.000718 480.44028 1263.41846
1334.0 0.000750 480.50565 1261.08716
1344.0 0.000744 480.57095 1256.77539
1353.0 0.000739 480.63589 1250.55090
1319.0 0.000758 480.70090 1242.50537
1342.0 0.000745 480.76575 1232.75037
1298.0 0.000770 480.83054 1221.41260
1241.0 0.000806 480.89496 1208.63025
1245.0 0.000803 480.95969 1194.54797
1265.0 0.000791 481.02402 1179.31335
1238.0 0.000808 481.08817 1163.07422
1199.0 0.000834 481.15240 1145.97522
1157.0 0.000864 481.21643 1128.15576
1156.0 0.000865 481.28030 1109.74939
1127.0 0.000887 481.34409 1090.88293
1143.0 0.000875 481.40775 1071.67419
1089.0 0.000918 481.47134 1052.23523
1047.0 0.000955 481.53470 1032.66833
1047.0 0.000955 481.59793 1013.07013
1025.0 0.000976 481.66122 993.52966
967.0 0.001034 481.72424 974.12787
917.0 0.001091 481.78714 954.93994
859.0 0.001164 481.84988 936.03436
833.0 0.001200 481.91257 917.47229
834.0 0.001199 481.97507 899.30927
800.0 0.001250 482.03748 881.59424
806.0 0.001241 482.09970 864.37006
792.0 0.001263 482.16196 847.67377
775.0 0.001290 482.22391 831.53625
735.0 0.001361 482.28580 815.98328
748.0 0.001337 482.34763 801.03552
732.0 0.001366 482.40915 786.70801
708.0 0.001412 482.47064 773.01147
700.0 0.001429 482.53210 759.95227
665.0 0.001504 482.59329 747.53265
657.0 0.001522 482.65442 735.75153
673.0 0.001486 482.71536 724.60339
701.0 0.001427 482.77621 714.08105
687.0 0.001456 482.83688 704.17346
678.0 0.001475 482.89749 694.86804
636.0 0.001572 482.95789 686.14960
630.0 0.001587 483.01822 678.00140
603.0 0.001658 483.07834 670.40472
625.0 0.001600 483.13834 663.34015
600.0 0.001667 483.19830 656.78741
604.0 0.001656 483.25806 650.72418
613.0 0.001631 483.31769 645.12854
594.0 0.001684 483.37711 639.97821
601.0 0.001664 483.43649 635.24957
587.0 0.001704 483.49561 630.98224
601.0 0.001664 483.55475 627.02826
606.0 0.001650 483.61365 623.42633
617.0 0.001621 483.67242 620.15369
602.0 0.001661 483.73117 617.18683
620.0 0.001613 483.78961 614.50317
602.0 0.001661 483.84805 612.08008
587.0 0.001704 483.90625 609.89471
587.0 0.001704 483.96423 607.92523
592.0 0.001689 484.02219 606.15002
607.0 0.001647 484.08002 604.54700
573.0 0.001745 484.13757 603.09521
590.0 0.001695 484.19516 601.77386
564.0 0.001773 484.25247 600.56244
581.0 0.001721 484.30969 599.44183
574.0 0.001742 484.36676 598.39301
572.0 0.001748 484.42371 597.39789
638.0 0.001567 484.48050 596.44019
635.0 0.001575 484.53714 595.50452
595.0 0.001681 484.59360 594.57739
578.0 0.001730 484.64999 593.64722
578.0 0.001730 484.70602 592.70367
564.0 0.001773 484.76205 591.73969
557.0 0.001795 484.81799 590.74976
591.0 0.001692 484.87369 589.73041
571.0 0.001751 484.92929 588.68036
577.0 0.001733 484.98465 587.60083
571.0 0.001751 485.03998 586.49390
573.0 0.001745 485.09518 585.36353
601.0 0.001664 485.15012 584.21472
584.0 0.001712 485.20490 583.05414
559.0 0.001789 485.25970 581.88806
571.0 0.001751 485.31409 580.72339
562.0 0.001779 485.36853 579.56812
549.0 0.001821 485.42282 578.42957
531.0 0.001883 485.47681 577.31500
558.0 0.001792 485.53073 576.23181
558.0 0.001792 485.58444 575.18707
538.0 0.001859 485.63806 574.18762
556.0 0.001799 485.69147 573.23987
540.0 0.001852 485.74484 572.35059
534.0 0.001873 485.79794 571.52551
552.0 0.001812 485.85095 570.77045
545.0 0.001835 485.90366 570.09106
553.0 0.001808 485.95630 569.49304
538.0 0.001859 486.00891 568.98181
515.0 0.001942 486.06122 568.56207
499.0 0.002004 486.11325 568.23932
521.0 0.001919 486.16547 568.01849
545.0 0.001835 486.21729 567.90436
545.0 0.001835 486.26901 567.90204
529.0 0.001890 486.32059 568.01630
527.0 0.001898 486.37186 568.25189
512.0 0.001953 486.42310 568.61346
518.0 0.001931 486.47424 569.10571
524.0 0.001908 486.52502 569.73309
521.0 0.001919 486.57581 570.50061
606.0 0.001650 486.62637 571.41229
568.0 0.001761 486.67667 572.47235
552.0 0.001812 486.72702 573.68573
554.0 0.001805 486.77710 575.05573
550.0 0.001818 486.82703 576.58643
551.0 0.001815 486.87668 578.28192
543.0 0.001842 486.92630 580.14502
559.0 0.001789 486.97562 582.17938
572.0 0.001748 487.02496 584.38757
594.0 0.001684 487.07404 586.79187
580.0 0.001724 487.12305 589.35468
598.0 0.001672 487.17172 592.09741
569.0 0.001757 487.22028 595.02069
557.0 0.001795 487.26877 598.12531
583.0 0.001715 487.31693 601.41107
587.0 0.001704 487.36499 604.87689
586.0 0.001706 487.41281 608.52136
599.0 0.001669 487.46057 612.34161
620.0 0.001613 487.50815 616.33466
619.0 0.001616 487.55554 620.49609
610.0 0.001639 487.60281 624.82031
643.0 0.001555 487.64987 629.30096
631.0 0.001585 487.69669 633.93011
632.0 0.001582 487.74347 638.69885
659.0 0.001517 487.78992 643.59656
702.0 0.001425 487.83636 648.61127
691.0 0.001447 487.88245 653.72894
662.0 0.001511 487.92859 658.93439
690.0 0.001449 487.97443 664.20966
688.0 0.001453 488.02005 669.53577
742.0 0.001348 488.06555 674.89105
744.0 0.001344 488.11087 680.25159
721.0 0.001387 488.15607 685.59198
709.0 0.001410 488.20102 690.88416
719.0 0.001391 488.24591 696.09851
712.0 0.001404 488.29050 701.20398
721.0 0.001387 488.33481 706.16827
732.0 0.001366 488.37918 710.95850
759.0 0.001318 488.42328 715.54187
826.0 0.001211 488.46719 719.88684
819.0 0.001221 488.51086 723.96387
840.0 0.001190 488.55453 727.74628
807.0 0.001239 488.59787 731.21130
768.0 0.001302 488.64108 734.34174
780.0 0.001282 488.68408 737.12677
781.0 0.001280 488.72684 739.56122
782.0 0.001279 488.76956 741.64850
779.0 0.001284 488.81207 743.39905
792.0 0.001263 488.85428 744.83081
802.0 0.001247 488.89645 745.96869
815.0 0.001227 488.93848 746.84491
840.0 0.001190 488.98010 747.49591
826.0 0.001211 489.02182 747.96393
788.0 0.001269 489.06311 748.29449
773.0 0.001294 489.10431 748.53448
781.0 0.001280 489.14539 748.73309
765.0 0.001307 489.18625 748.93915
770.0 0.001299 489.22690 749.20081
767.0 0.001304 489.26733 749.56506
766.0 0.001305 489.30771 750.07672
762.0 0.001312 489.34784 750.77783
752.0 0.001330 489.38773 751.70770
725.0 0.001379 489.42740 752.90259
739.0 0.001353 489.46704 754.39539
751.0 0.001332 489.50632 756.21558
765.0 0.001307 489.54553 758.38928
725.0 0.001379 489.58450 760.93903
753.0 0.001328 489.62344 763.88354
736.0 0.001359 489.66202 767.23853
687.0 0.001456 489.70050 771.01599
721.0 0.001387 489.73871 775.22382
738.0 0.001355 489.77679 779.86694
726.0 0.001377 489.81464 784.94635
723.0 0.001383 489.85236 790.45923
723.0 0.001383 489.88992 796.39899
759.0 0.001318 489.92731 802.75500
771.0 0.001297 489.96436 809.51270
759.0 0.001318 490.00134 816.65289
756.0 0.001323 490.03802 824.15210
760.0 0.001316 490.07465 831.98248
806.0 0.001241 490.11087 840.11084
817.0 0.001224 490.14713 848.49939
879.0 0.001138 490.18307 857.10413
879.0 0.001138 490.21902 865.87683
900.0 0.001111 490.25458 874.76245
925.0 0.001081 490.29004 883.70117
916.0 0.001092 490.32523 892.62708
922.0 0.001085 490.36023 901.46906
942.0 0.001062 490.39514 910.15051
962.0 0.001040 490.42978 918.59149
994.0 0.001006 490.46420 926.70782
1000.0 0.001000 490.49850 934.26410
1021.0 0.000979 490.53256 941.47247
1062.0 0.000942 490.56653 948.09760
1064.0 0.000940 490.60007 954.05743
1091.0 0.000917 490.63367 959.27509
1115.0 0.000897 490.66696 963.68164
1114.0 0.000898 490.70001 967.21887
1109.0 0.000902 490.73297 969.84082
1129.0 0.000886 490.76581 971.51587
1146.0 0.000873 490.79816 972.22754
1127.0 0.000887 490.83051 971.97705
1120.0 0.000893 490.86267 970.78082
1122.0 0.000891 490.89456 968.67230
1129.0 0.000886 490.92633 965.70001
1110.0 0.000901 490.95792 961.92584
1113.0 0.000898 490.98926 957.42285
1091.0 0.000917 491.02045 952.27490
1077.0 0.000929 491.05133 946.57184
1075.0 0.000930 491.08212 940.40918
1079.0 0.000927 491.11279 933.88489
1075.0 0.000930 491.14307 927.09869
1050.0 0.000952 491.17334 920.14923
1047.0 0.000955 491.20331 913.13397
1020.0 0.000980 491.23291 906.14728
1016.0 0.000984 491.26251 899.28040
979.0 0.001021 491.29199 892.62115
951.0 0.001052 491.32123 886.25269
942.0 0.001062 491.35016 880.25458
941.0 0.001063 491.37897 874.70215
943.0 0.001060 491.40750 869.66656
934.0 0.001071 491.43594 865.21509
919.0 0.001088 491.46417 861.41132
860.0 0.001163 491.49219 858.31531
837.0 0.001195 491.52002 855.57471
868.0 0.001152 491.54755 854.06030
888.0 0.001126 491.57486 853.41083
926.0 0.001080 491.60211 853.67200
922.0 0.001085 491.62903 854.88501
897.0 0.001115 491.65576 857.08771
904.0 0.001106 491.68243 860.31348
925.0 0.001081 491.70874 864.59204
920.0 0.001087 491.73505 869.94812
928.0 0.001078 491.76108 876.40228
944.0 0.001059 491.78693 883.96954
975.0 0.001026 491.81241 892.65991
939.0 0.001065 491.83777 902.47778
978.0 0.001022 491.86301 913.42151
994.0 0.001006 491.88812 925.48376
1016.0 0.000984 491.91275 938.64960
1044.0 0.000958 491.93729 952.89850
1035.0 0.000966 491.96167 968.20154
1043.0 0.000959 491.98581 984.52283
1066.0 0.000938 492.00980 1001.81805
1082.0 0.000924 492.03360 1020.03467
1093.0 0.000915 492.05707 1039.11060
1106.0 0.000904 492.08047 1058.97534
1167.0 0.000857 492.10367 1079.54688
1210.0 0.000826 492.12662 1100.73376
1197.0 0.000835 492.14932 1122.43347
1256.0 0.000796 492.17191 1144.53052
1280.0 0.000781 492.19421 1166.89783
1259.0 0.000794 492.21634 1189.39575
1288.0 0.000776 492.23834 1211.87085
1310.0 0.000763 492.25995 1234.15613
1375.0 0.000727 492.28159 1256.07263
1378.0 0.000726 492.30276 1277.42786
1334.0 0.000750 492.32394 1298.01892
1357.0 0.000737 492.34491 1317.63403
1395.0 0.000717 492.36566 1336.05481
1379.0 0.000725 492.38605 1353.06116
1422.0 0.000703 492.40643 1368.43530
1454.0 0.000688 492.42642 1381.96643
1484.0 0.000674 492.44641 1392.03210
1490.0 0.000671 492.46613 1401.31641
1504.0 0.000665 492.48563 1408.23547
1465.0 0.000683 492.50479 1412.67224
1467.0 0.000682 492.52396 1414.54492
1435.0 0.000697 492.54269 1413.81335
1440.0 0.000694 492.56143 1410.47766
1471.0 0.000680 492.57993 1404.58069
1479.0 0.000676 492.59805 1396.20386
1422.0 0.000703 492.61618 1385.46387
1374.0 0.000728 492.63388 1372.50854
1385.0 0.000722 492.65152 1357.51025
1430.0 0.000699 492.66895 1340.65894
1391.0 0.000719 492.68616 1322.15735
1366.0 0.000732 492.70325 1302.21362
1356.0 0.000737 492.72000 1281.03601
1334.0 0.000750 492.73660 1258.83020
1342.0 0.000745 492.75290 1235.79309
1333.0 0.000750 492.76920 1212.11169
1296.0 0.000772 492.78513 1187.96216
1321.0 0.000757 492.80090 1163.50598
1251.0 0.000799 492.81656 1138.89160
1204.0 0.000831 492.83182 1114.85632
1163.0 0.000860 492.84692 1090.31970
1143.0 0.000875 492.86185 1065.98938
1156.0 0.000865 492.87662 1041.96118
1107.0 0.000903 492.89111 1018.31970
1051.0 0.000951 492.90546 995.13855
1030.0 0.000971 492.91949 972.48114
1027.0 0.000974 492.93341 950.40283
1025.0 0.000976 492.94720 928.94952
1013.0 0.000987 492.96066 908.15997
980.0 0.001020 492.97388 888.06543
944.0 0.001059 492.98700 868.69189
901.0 0.001110 492.99982 850.05792
903.0 0.001107 493.01251 832.17749
925.0 0.001081 493.02490 815.05994
867.0 0.001153 493.03726 798.70905
838.0 0.001193 493.04919 783.12457
812.0 0.001232 493.06104 768.30243
807.0 0.001239 493.07263 754.23450
791.0 0.001264 493.08411 740.90936
787.0 0.001271 493.09525 728.31311
783.0 0.001277 493.10623 716.42822
795.0 0.001258 493.11710 705.23468
754.0 0.001326 493.12753 694.71143
745.0 0.001342 493.13794 684.83447
742.0 0.001348 493.14810 675.57928
751.0 0.001332 493.15808 666.91925
724.0 0.001381 493.16788 658.82825
747.0 0.001339 493.17737 651.27850
722.0 0.001385 493.18671 644.24280
732.0 0.001366 493.19586 637.69324
706.0 0.001416 493.20480 631.60303
717.0 0.001395 493.21356 625.94531
686.0 0.001458 493.22195 620.69373
716.0 0.001397 493.23029 615.82349
694.0 0.001441 493.23837 611.30975
695.0 0.001439 493.24631 607.12909
695.0 0.001439 493.25388 603.25946
666.0 0.001502 493.26135 599.67938
670.0 0.001493 493.26865 596.36908
697.0 0.001435 493.27573 593.30957
676.0 0.001479 493.28256 590.48340
664.0 0.001506 493.28922 587.87378
660.0 0.001515 493.29565 585.46588
644.0 0.001553 493.30185 583.24506
644.0 0.001553 493.30792 581.19904
618.0 0.001618 493.31369 579.31519
619.0 0.001616 493.31927 577.58295
610.0 0.001639 493.32458 575.99261
636.0 0.001572 493.32983 574.53503
648.0 0.001543 493.33484 573.20239
619.0 0.001616 493.33960 571.98737
595.0 0.001681 493.34412 570.88403
602.0 0.001661 493.34848 569.88641
585.0 0.001709 493.35257 568.99005
590.0 0.001695 493.35657 568.19098
603.0 0.001658 493.36032 567.48578
591.0 0.001692 493.36389 566.87195
591.0 0.001692 493.36716 566.34729
583.0 0.001715 493.37021 565.91071
577.0 0.001733 493.37323 565.56116
589.0 0.001698 493.37582 565.29877
596.0 0.001678 493.37830 565.12384
590.0 0.001695 493.38074 565.03754
582.0 0.001718 493.38284 565.04132
592.0 0.001689 493.38464 565.13721
580.0 0.001724 493.38629 565.32831
578.0 0.001730 493.38776 565.61780
590.0 0.001695 493.38898 566.00928
553.0 0.001808 493.39008 566.50757
548.0 0.001825 493.39099 567.11761
575.0 0.001739 493.39154 567.84497
573.0 0.001745 493.39203 568.69537
555.0 0.001802 493.39233 569.67584
560.0 0.001786 493.39240 570.79321
590.0 0.001695 493.39221 572.05548
579.0 0.001727 493.39175 573.47070
593.0 0.001686 493.39117 575.04724
577.0 0.001733 493.39044 576.79425
564.0 0.001773 493.38937 578.72113
566.0 0.001767 493.38818 580.83783
561.0 0.001783 493.38675 583.15417
569.0 0.001757 493.38519 585.68036
571.0 0.001751 493.38339 588.42694
594.0 0.001684 493.38138 591.40424
603.0 0.001658 493.37915 594.62317
607.0 0.001647 493.37680 598.09381
620.0 0.001613 493.37415 601.82654
598.0 0.001672 493.37131 605.83112
603.0 0.001658 493.36826 610.11743
624.0 0.001603 493.36502 614.69434
623.0 0.001605 493.36160 619.57013
624.0 0.001603 493.35803 624.75305
606.0 0.001650 493.35413 630.24890
601.0 0.001664 493.34995 636.06421
599.0 0.001669 493.34579 642.20325
602.0 0.001661 493.34140 648.66931
610.0 0.001639 493.33673 655.46417
637.0 0.001570 493.33194 662.58795
651.0 0.001536 493.32690 670.03894
644.0 0.001553 493.32153 677.81403
637.0 0.001570 493.31616 685.90723
631.0 0.001585 493.31046 694.31055
655.0 0.001527 493.30460 703.01379
642.0 0.001558 493.29855 712.00372
651.0 0.001536 493.29227 721.26434
686.0 0.001458 493.28583 730.77686
723.0 0.001383 493.27921 740.51855
721.0 0.001387 493.27225 750.46320
735.0 0.001361 493.26523 760.58124
706.0 0.001416 493.25803 770.83813
695.0 0.001439 493.25049 781.19537
735.0 0.001361 493.24286 791.60962
756.0 0.001323 493.23505 802.03241
791.0 0.001264 493.22693 812.41003
847.0 0.001181 493.21869 822.68359
878.0 0.001139 493.21014 832.78918
889.0 0.001125 493.20163 842.65729
867.0 0.001153 493.19272 852.21344
883.0 0.001133 493.18372 861.37939
926.0 0.001080 493.17444 870.07312
916.0 0.001092 493.16504 878.21088
895.0 0.001117 493.15543 885.70807
936.0 0.001068 493.14554 892.48090
935.0 0.001070 493.13553 898.44916
959.0 0.001043 493.12534 903.53754
985.0 0.001015 493.11496 907.67950
1005.0 0.000995 493.10428 910.81683
1022.0 0.000978 493.09344 912.90527
1012.0 0.000988 493.08249 913.91290
981.0 0.001019 493.07111 913.82349
978.0 0.001022 493.05975 912.63654
976.0 0.001025 493.04819 910.36707
935.0 0.001070 493.03635 907.04553
944.0 0.001059 493.02438 902.71576
934.0 0.001071 493.01227 897.43433
934.0 0.001071 492.99985 891.26794
912.0 0.001096 492.98724 884.29114
876.0 0.001142 492.97449 876.58392
864.0 0.001157 492.96164 868.22998
845.0 0.001183 492.94852 859.31415
802.0 0.001247 492.93503 849.92072
823.0 0.001215 492.92160 840.13184
813.0 0.001230 492.90787 830.02649
807.0 0.001239 492.89395 819.67938
814.0 0.001229 492.87985 809.16077
775.0 0.001290 492.86554 798.53564
756.0 0.001323 492.85101 787.86334
722.0 0.001385 492.83640 777.19849
736.0 0.001359 492.82147 766.59015
760.0 0.001316 492.80643 756.08264
734.0 0.001362 492.79117 745.71533
701.0 0.001427 492.77576 735.52319
661.0 0.001513 492.76007 725.53735
652.0 0.001534 492.74429 715.78461
661.0 0.001513 492.72827 706.28827
652.0 0.001534 492.71207 697.06854
618.0 0.001618 492.69577 688.14252
607.0 0.001647 492.67911 679.52417
635.0 0.001575 492.66238 671.22491
603.0 0.001658 492.64551 663.25378
575.0 0.001739 492.62827 655.61798
552.0 0.001812 492.61090 648.32166
572.0 0.001748 492.59354 641.36804
550.0 0.001818 492.57581 634.75824
528.0 0.001894 492.55789 629.12683
533.0 0.001876 492.53986 623.20404
562.0 0.001779 492.52158 617.61908
541.0 0.001848 492.50323 612.36743
544.0 0.001838 492.48453 607.44385
534.0 0.001873 492.46573 602.84167
537.0 0.001862 492.44684 598.55371
552.0 0.001812 492.42758 594.57196
558.0 0.001792 492.40826 590.88806
529.0 0.001890 492.38867 587.49280
539.0 0.001855 492.36896 584.37714
525.0 0.001905 492.34918 581.53088
524.0 0.001908 492.32901 578.94458
591.0 0.001692 492.30884 576.60785
584.0 0.001712 492.28836 573.41406
529.0 0.001890 492.26785 571.55072
525.0 0.001905 492.24692 569.90619
523.0 0.001912 492.22610 568.47046
541.0 0.001848 492.20486 567.23309
526.0 0.001901 492.18353 566.18408
512.0 0.001953 492.16196 565.31348
494.0 0.002024 492.14029 564.61121
514.0 0.001946 492.11832 564.06750
502.0 0.001992 492.09637 563.67249
517.0 0.001934 492.07410 563.41644
517.0 0.001934 492.05167 563.28967
492.0 0.002033 492.02911 563.28229
518.0 0.001931 492.00629 563.38440
495.0 0.002020 491.98334 563.58649
501.0 0.001996 491.96036 563.87854
519.0 0.001927 491.93704 564.25000
516.0 0.001938 491.91364 564.69061
533.0 0.001876 491.88998 565.21423
531.0 0.001883 491.86612 565.76086
517.0 0.001934 491.84219 566.34338
521.0 0.001919 491.81805 566.95032
541.0 0.001848 491.79379 567.56903
554.0 0.001805 491.76923 568.18707
558.0 0.001792 491.74451 568.79138
539.0 0.001855 491.71970 569.36877
543.0 0.001842 491.69473 569.90576
548.0 0.001825 491.66953 570.38922
568.0 0.001761 491.64417 570.80560
587.0 0.001704 491.61868 571.14209
559.0 0.001789 491.59293 571.38678
555.0 0.001802 491.56714 571.52875
565.0 0.001770 491.54111 571.55811
560.0 0.001786 491.51495 571.46667
538.0 0.001859 491.48856 571.24847
544.0 0.001838 491.46185 570.89917
548.0 0.001825 491.43530 570.41687
548.0 0.001825 491.40848 569.80151
540.0 0.001852 491.38129 569.05554
533.0 0.001876 491.35416 568.18372
533.0 0.001876 491.32690 567.19183
525.0 0.001905 491.29938 566.08801
535.0 0.001869 491.27167 564.88135
537.0 0.001862 491.24384 563.58167
543.0 0.001842 491.21582 562.19971
542.0 0.001845 491.18750 560.74652
536.0 0.001866 491.15927 559.23303
542.0 0.001845 491.13071 557.67010
532.0 0.001880 491.10208 556.06836
515.0 0.001942 491.07321 554.43756
531.0 0.001883 491.04425 552.78735
545.0 0.001835 491.01514 551.12640
535.0 0.001869 490.98581 549.46277
524.0 0.001908 490.95627 547.80365
514.0 0.001946 490.92673 546.15607
513.0 0.001949 490.89694 544.52563
508.0 0.001969 490.86697 542.91785
521.0 0.001919 490.83676 541.33740
532.0 0.001880 490.80658 539.78839
527.0 0.001898 490.77618 538.27466
515.0 0.001942 490.74557 536.79901
512.0 0.001953 490.71494 535.44641
526.0 0.001901 490.68396 534.05499
510.0 0.001961 490.65302 532.70856
482.0 0.002075 490.62173 531.40845
500.0 0.002000 490.59052 530.15558
483.0 0.002070 490.55893 528.95062
487.0 0.002053 490.52740 527.79443
489.0 0.002045 490.49557 526.68683
498.0 0.002008 490.46353 525.62769
479.0 0.002088 490.43149 524.61688
482.0 0.002075 490.39923 523.65363
474.0 0.002110 490.36685 522.73755
475.0 0.002105 490.33429 521.86761
485.0 0.002062 490.30148 521.04260
491.0 0.002037 490.26874 520.26172
492.0 0.002033 490.23569 519.52313
503.0 0.001988 490.20258 518.82611
509.0 0.001965 490.16922 518.16895
511.0 0.001957 490.13580 517.55005
513.0 0.001949 490.10226 516.96802
502.0 0.001992 490.06848 516.42120
476.0 0.002101 490.03467 515.90814
490.0 0.002041 490.00067 515.42731
469.0 0.002132 489.96640 514.97705
476.0 0.002101 489.93210 514.55603
478.0 0.002092 489.89764 514.16229
463.0 0.002160 489.86310 513.79498
484.0 0.002066 489.82840 513.45245
485.0 0.002062 489.79355 513.13306
483.0 0.002070 489.75845 512.83594
492.0 0.002033 489.72333 512.55963
475.0 0.002105 489.68802 512.30292
496.0 0.002016 489.65259 512.06494
478.0 0.002092 489.61697 511.84445
482.0 0.002075 489.58136 511.64047
491.0 0.002037 489.54544 511.45218
483.0 0.002070 489.50949 511.27872
489.0 0.002045 489.47333 511.11938
480.0 0.002083 489.43707 510.97314
481.0 0.002079 489.40070 510.83978
490.0 0.002041 489.36414 510.71841
493.0 0.002028 489.32745 510.60855
494.0 0.002024 489.29068 510.50983
484.0 0.002066 489.25388 510.42160
500.0 0.002000 489.21677 510.34366
527.0 0.001898 489.17960 510.27563
506.0 0.001976 489.14212 510.21704
504.0 0.001984 489.10471 510.16797
496.0 0.002016 489.06720 510.12805
519.0 0.001927 489.02948 510.09698
504.0 0.001984 488.99164 510.07486
501.0 0.001996 488.95364 510.06134
489.0 0.002045 488.91547 510.05652
486.0 0.002058 488.87726 510.06030
473.0 0.002114 488.83899 510.07269
483.0 0.002070 488.80038 510.09369
494.0 0.002024 488.76187 510.12329
507.0 0.001972 488.72321 510.16177
498.0 0.002008 488.68427 510.20898
489.0 0.002045 488.64523 510.26517
484.0 0.002066 488.60617 510.33066
488.0 0.002049 488.56689 510.40546
480.0 0.002083 488.52759 510.48990
483.0 0.002070 488.48813 510.58405
488.0 0.002049 488.44849 510.68860
501.0 0.001996 488.40878 510.80350
486.0 0.002058 488.36896 510.92953
497.0 0.002012 488.32904 511.06711
516.0 0.001938 488.28900 511.21640
511.0 0.001957 488.24878 511.37808
507.0 0.001972 488.20853 511.55316
494.0 0.002024 488.16815 511.74185
497.0 0.002012 488.12747 512.05725
486.0 0.002058 488.08691 512.27692
490.0 0.002041 488.04611 512.51318
494.0 0.002024 488.00528 512.76691
505.0 0.001980 487.96426 512.77551
523.0 0.001912 487.92313 513.06964
515.0 0.001942 487.88190 513.38556
520.0 0.001923 487.84061 513.72504
508.0 0.001969 487.79910 514.08984
518.0 0.001931 487.75763 514.48224
523.0 0.001912 487.71606 514.90424
519.0 0.001927 487.67419 515.35840
513.0 0.001949 487.63232 515.84760
523.0 0.001912 487.59021 516.37494
516.0 0.001938 487.54819 517.24268
494.0 0.002024 487.50607 517.85754
483.0 0.002070 487.46375 518.52136
487.0 0.002053 487.42126 519.23853
500.0 0.002000 487.37878 520.01331
505.0 0.001980 487.33615 520.85114
521.0 0.001919 487.29340 521.75702
524.0 0.001908 487.25064 522.73706
525.0 0.001905 487.20770 523.79730
526.0 0.001901 487.16461 524.94421
529.0 0.001890 487.12146 526.18481
549.0 0.001821 487.07825 527.53058
541.0 0.001848 487.03500 528.98138
537.0 0.001862 486.99155 530.54926
543.0 0.001842 486.94800 532.24249
560.0 0.001786 486.90433 534.07025
558.0 0.001792 486.86075 536.04126
548.0 0.001825 486.81680 538.16504
563.0 0.001776 486.77292 540.45129
549.0 0.001821 486.72891 542.90912
567.0 0.001764 486.68481 545.54871
586.0 0.001706 486.64072 548.38007
582.0 0.001718 486.59628 551.41254
603.0 0.001658 486.55194 554.65552
595.0 0.001681 486.50735 558.11871
613.0 0.001631 486.46292 561.81055
618.0 0.001618 486.41827 565.74005
607.0 0.001647 486.37341 569.91437
583.0 0.001715 486.32867 574.34125
580.0 0.001724 486.28378 579.02692
608.0 0.001645 486.23868 583.97668
627.0 0.001595 486.19366 589.19464
649.0 0.001541 486.14847 594.68475
656.0 0.001524 486.10321 600.44788
643.0 0.001555 486.05783 606.48474
650.0 0.001538 486.01242 612.79401
691.0 0.001447 485.96689 619.37274
666.0 0.001502 485.92139 626.21564
642.0 0.001558 485.87561 633.31580
653.0 0.001531 485.82983 640.66382
662.0 0.001511 485.78400 648.24829
663.0 0.001508 485.73807 656.05469
676.0 0.001479 485.69199 664.06641
689.0 0.001451 485.64600 672.26337
697.0 0.001435 485.59988 679.95776
670.0 0.001493 485.55368 688.45532
718.0 0.001393 485.50729 697.05872
696.0 0.001437 485.46091 704.27820
689.0 0.001451 485.41446 712.99506
732.0 0.001366 485.36780 721.70380
739.0 0.001353 485.32129 730.35870
730.0 0.001370 485.27466 738.90845
758.0 0.001319 485.22787 747.29785
788.0 0.001269 485.18097 755.46783
808.0 0.001238 485.13416 763.35529
802.0 0.001247 485.08713 770.89337
817.0 0.001224 485.04004 778.01318
801.0 0.001248 484.99295 784.64398
820.0 0.001220 484.94574 790.71533
844.0 0.001185 484.89856 796.15808
820.0 0.001220 484.85114 800.90601
825.0 0.001212 484.80383 804.89874
808.0 0.001238 484.75635 808.08282
834.0 0.001199 484.70892 810.41339
863.0 0.001159 484.66132 811.85760
830.0 0.001205 484.61374 812.39349
836.0 0.001196 484.56595 812.01270
865.0 0.001156 484.51825 812.20300
826.0 0.001211 484.47040 810.02466
856.0 0.001168 484.42249 806.98340
855.0 0.001170 484.37457 803.12079
859.0 0.001164 484.32672 798.48853
836.0 0.001196 484.27853 793.14502
817.0 0.001224 484.23047 787.15558
821.0 0.001218 484.18222 780.55432
791.0 0.001264 484.13400 773.48035
775.0 0.001290 484.08575 765.97009
742.0 0.001348 484.03732 758.09290
747.0 0.001339 483.98898 749.91620
740.0 0.001351 483.94055 741.50421
749.0 0.001335 483.89206 732.91730
763.0 0.001311 483.84351 724.21167
764.0 0.001309 483.79507 715.43927
706.0 0.001416 483.74628 706.64771
689.0 0.001451 483.69781 697.87976
681.0 0.001468 483.64883 689.17462
666.0 0.001502 483.60001 680.56720
643.0 0.001555 483.55130 672.08801
657.0 0.001522 483.50226 663.76453
649.0 0.001541 483.45334 655.62109
637.0 0.001570 483.40445 647.67773
614.0 0.001629 483.35547 639.95251
625.0 0.001600 483.30630 632.46021
596.0 0.001678 483.25732 625.21332
590.0 0.001695 483.20807 618.22156
591.0 0.001692 483.15884 611.49255
573.0 0.001745 483.10968 605.03198
569.0 0.001757 483.06033 598.84320
564.0 0.001773 483.01108 592.92792
529.0 0.001890 482.96173 587.28662
531.0 0.001883 482.91238 581.91742
536.0 0.001866 482.86292 576.81793
538.0 0.001859 482.81351 571.98376
541.0 0.001848 482.76401 567.41028
546.0 0.001832 482.71454 563.09070
557.0 0.001795 482.66498 559.01825
539.0 0.001855 482.61536 555.18573
528.0 0.001894 482.56573 551.58429
524.0 0.001908 482.51608 548.28247
507.0 0.001972 482.46646 545.11700
501.0 0.001996 482.41669 542.15546
493.0 0.002028 482.36697 539.38806
514.0 0.001946 482.31717 536.80505
566.0 0.001767 482.26727 534.39636
550.0 0.001818 482.21759 532.15302
536.0 0.001866 482.16769 530.06476
556.0 0.001799 482.11783 528.12250
539.0 0.001855 482.06799 526.31714
522.0 0.001916 482.01804 524.63959
508.0 0.001969 481.96808 523.08148
523.0 0.001912 481.91809 521.63440
534.0 0.001873 481.86810 520.29059
520.0 0.001923 481.81808 519.04266
488.0 0.002049 481.76810 517.88336
482.0 0.002075 481.71805 516.80621
496.0 0.002016 481.66800 515.80475
495.0 0.002020 481.61798 514.87311
502.0 0.001992 481.56787 514.00598
511.0 0.001957 481.51773 513.19794
509.0 0.001965 481.46762 512.44476
520.0 0.001923 481.41742 511.74167
504.0 0.001984 481.36731 511.08456
490.0 0.002041 481.31717 510.47012
493.0 0.002028 481.26694 509.89468
493.0 0.002028 481.21680 509.35510
489.0 0.002045 481.16641 508.84879
494.0 0.002024 481.11627 508.37299
494.0 0.002024 481.06610 507.92532
497.0 0.002012 481.01578 507.50375
493.0 0.002028 480.96558 507.10651
495.0 0.002020 480.91534 506.73145
499.0 0.002004 480.86511 506.37723
491.0 0.002037 480.81482 506.04257
498.0 0.002008 480.76462 505.72610
470.0 0.002128 480.71429 505.42651
492.0 0.002033 480.66394 505.14319
492.0 0.002033 480.61383 504.87473
471.0 0.002123 480.56351 504.62024
475.0 0.002105 480.51328 504.37939
469.0 0.002132 480.46292 504.15140
464.0 0.002155 480.41275 503.93546
467.0 0.002141 480.36237 503.73145
493.0 0.002028 480.31204 503.53830
521.0 0.001919 480.26181 503.35602
499.0 0.002004 480.21155 503.18414
485.0 0.002062 480.16135 503.02182
489.0 0.002045 480.11115 502.86954
476.0 0.002101 480.06088 502.72647
483.0 0.002070 480.01056 502.59225
480.0 0.002083 479.96045 502.46716
470.0 0.002128 479.91016 502.35056
471.0 0.002123 479.85999 502.24258
487.0 0.002053 479.80981 502.14261
480.0 0.002083 479.75955 502.05090
482.0 0.002075 479.70944 501.96707
489.0 0.002045 479.65924 501.89136
462.0 0.002165 479.60913 501.82309
459.0 0.002179 479.55899 501.76266
462.0 0.002165 479.50891 501.70984
461.0 0.002169 479.45874 501.66440
446.0 0.002242 479.40869 501.62659
453.0 0.002208 479.35864 501.59607
456.0 0.002193 479.30853 501.57288
467.0 0.002141 479.25854 501.55704
470.0 0.002128 479.20850 501.54846
453.0 0.002208 479.15851 501.54739
457.0 0.002188 479.10849 501.55362
461.0 0.002169 479.05862 501.56702
455.0 0.002198 479.00861 501.58804
466.0 0.002146 478.95886 501.61633
474.0 0.002110 478.90887 501.65189
471.0 0.002123 478.85904 501.69504
480.0 0.002083 478.80927 501.74582
461.0 0.002169 478.75934 501.80420
459.0 0.002179 478.70969 501.87018
460.0 0.002174 478.65985 501.94400
448.0 0.002232 478.61020 502.02560
499.0 0.002004 478.56055 502.11533
494.0 0.002024 478.51074 502.21313
487.0 0.002053 478.46112 502.31906
465.0 0.002151 478.41165 502.43365
481.0 0.002079 478.36206 502.55652
465.0 0.002151 478.31256 502.68832
471.0 0.002123 478.26309 502.82898
471.0 0.002123 478.21353 502.97858
477.0 0.002096 478.16422 503.13773
471.0 0.002123 478.11481 503.30624
486.0 0.002058 478.06546 503.48474
478.0 0.002092 478.01608 503.67343
475.0 0.002105 477.96689 503.87234
481.0 0.002079 477.91763 504.08209
487.0 0.002053 477.86850 504.30289
491.0 0.002037 477.81934 504.53513
485.0 0.002062 477.77017 504.77930
479.0 0.002088 477.72122 505.03604
480.0 0.002083 477.67206 505.30533
478.0 0.002092 477.62314 505.58826
466.0 0.002146 477.57434 505.88501
466.0 0.002146 477.52533 506.19647
456.0 0.002193 477.47659 506.52335
467.0 0.002141 477.42773 506.86639
468.0 0.002137 477.37903 507.22641
493.0 0.002028 477.33044 507.60446
480.0 0.002083 477.28168 508.00146
466.0 0.002146 477.23303 508.41885
463.0 0.002160 477.18460 508.85764
476.0 0.002101 477.13605 509.31924
478.0 0.002092 477.08768 509.80530
493.0 0.002028 477.03931 510.31760
498.0 0.002008 476.99091 510.85785
485.0 0.002062 476.94269 511.42828
476.0 0.002101 476.89459 512.03101
474.0 0.002110 476.84631 512.66864
483.0 0.002070 476.79825 513.34412
477.0 0.002096 476.75018 514.06018
462.0 0.002165 476.70227 514.82019
481.0 0.002079 476.65433 515.62799
483.0 0.002070 476.60641 516.48718
496.0 0.002016 476.55872 517.40240
492.0 0.002033 476.51093 518.37823
496.0 0.002016 476.46310 519.41956
512.0 0.001953 476.41562 520.53204
494.0 0.002024 476.36810 521.72144
503.0 0.001988 476.32065 522.99426
527.0 0.001898 476.27319 524.35767
495.0 0.002020 476.22586 525.81818
487.0 0.002053 476.17865 527.38422
510.0 0.001961 476.13135 529.06396
510.0 0.001961 476.08423 530.86597
538.0 0.001859 476.03717 532.79974
517.0 0.001934 475.99030 534.87524
515.0 0.001942 475.94321 537.10223
517.0 0.001934 475.89645 539.49176
495.0 0.002020 475.84967 542.05487
498.0 0.002008 475.80298 544.80298
510.0 0.001961 475.75635 547.74817
506.0 0.001976 475.70978 550.90228
526.0 0.001901 475.66327 554.27814
539.0 0.001855 475.61688 557.88800
555.0 0.001802 475.57047 561.74481
555.0 0.001802 475.52426 565.86096
556.0 0.001799 475.47815 570.24939
559.0 0.001789 475.43192 574.92224
554.0 0.001805 475.38602 579.89215
548.0 0.001825 475.34009 585.17041
544.0 0.001838 475.29425 590.76843
553.0 0.001808 475.24838 596.69696
571.0 0.001751 475.20276 602.96558
568.0 0.001761 475.15714 609.58301
583.0 0.001715 475.11166 615.93219
586.0 0.001706 475.06625 623.27228
583.0 0.001715 475.02087 630.98077
589.0 0.001698 474.97562 639.32324
614.0 0.001629 474.93051 647.77795
616.0 0.001623 474.88541 656.60590
642.0 0.001558 474.84039 665.80518
616.0 0.001623 474.79544 675.37054
621.0 0.001610 474.75079 685.29547
657.0 0.001522 474.70599 695.56952
658.0 0.001520 474.66132 706.18066
685.0 0.001460 474.61670 717.11243
707.0 0.001414 474.57236 728.34558
733.0 0.001364 474.52805 739.85724
760.0 0.001316 474.48380 751.62018
772.0 0.001295 474.43961 763.60321
773.0 0.001294 474.39560 775.77051
763.0 0.001311 474.35162 788.08154
792.0 0.001263 474.30774 800.49005
786.0 0.001272 474.26398 812.94531
780.0 0.001282 474.22031 825.39032
836.0 0.001196 474.17676 837.76257
914.0 0.001094 474.13321 849.99371
925.0 0.001081 474.09000 862.01031
934.0 0.001071 474.04666 873.73291
914.0 0.001094 474.00360 885.07819
951.0 0.001052 473.96042 895.95837
932.0 0.001073 473.91748 906.28381
964.0 0.001037 473.87466 916.09631
981.0 0.001019 473.83191 925.03973
987.0 0.001013 473.78922 933.15881
1024.0 0.000977 473.74680 940.52417
1037.0 0.000964 473.70432 946.75244
1053.0 0.000950 473.66205 951.93048
1040.0 0.000962 473.61993 956.00293
1009.0 0.000991 473.57773 958.92731
1053.0 0.000950 473.53580 960.67639
1054.0 0.000949 473.49399 961.23706
1065.0 0.000939 473.45218 960.61249
1026.0 0.000975 473.41046 958.85754
1006.0 0.000994 473.36899 955.93024
1032.0 0.000969 473.32764 951.91241
1041.0 0.000961 473.28625 946.85956
1037.0 0.000964 473.24506 940.83710
1023.0 0.000978 473.20401 933.91779
1005.0 0.000995 473.16312 926.17926
998.0 0.001002 473.12228 917.70288
970.0 0.001031 473.08151 908.57257
955.0 0.001047 473.04108 898.87213
948.0 0.001055 473.00046 888.68439
948.0 0.001055 472.96011 878.09070
918.0 0.001089 472.91986 867.16907
925.0 0.001081 472.87973 855.99438
867.0 0.001153 472.83987 844.63757
848.0 0.001179 472.79990 833.16412
806.0 0.001241 472.76019 821.63586
806.0 0.001241 472.72055 810.10913
812.0 0.001232 472.68106 798.63525
802.0 0.001247 472.64172 787.26111
785.0 0.001274 472.60248 776.02863
787.0 0.001271 472.56329 764.97430
811.0 0.001233 472.52435 754.13184
799.0 0.001252 472.48550 743.53015
737.0 0.001357 472.44672 733.19403
720.0 0.001389 472.40811 723.14539
742.0 0.001348 472.36969 713.40259
709.0 0.001410 472.33139 703.98157
701.0 0.001427 472.29315 694.89551
655.0 0.001527 472.25500 686.15497
648.0 0.001543 472.21719 677.76904
633.0 0.001580 472.17935 669.74432
620.0 0.001613 472.14166 662.08649
639.0 0.001565 472.10406 654.79871
642.0 0.001558 472.06668 647.88330
632.0 0.001582 472.02933 641.34100
621.0 0.001610 471.99228 635.17175
586.0 0.001706 471.95529 629.37311
612.0 0.001634 471.91846 623.94299
640.0 0.001563 471.88177 618.87695
614.0 0.001629 471.84506 614.17029
589.0 0.001698 471.80875 609.81702
574.0 0.001742 471.77237 605.81012
595.0 0.001681 471.73624 602.14203
588.0 0.001701 471.70029 598.80457
584.0 0.001712 471.66443 595.78821
594.0 0.001684 471.62875 593.00665
583.0 0.001715 471.59311 590.60425
565.0 0.001770 471.55765 588.49286
586.0 0.001706 471.52228 586.66156
558.0 0.001792 471.48721 585.09918
560.0 0.001786 471.45212 583.79431
577.0 0.001733 471.41733 582.73474
616.0 0.001623 471.38260 581.90924
591.0 0.001692 471.34796 581.30542
576.0 0.001736 471.31369 580.91095
599.0 0.001669 471.27945 580.71332
580.0 0.001724 471.24521 580.70020
599.0 0.001669 471.21133 580.85907
584.0 0.001712 471.17746 581.17645
588.0 0.001701 471.14371 581.63977
583.0 0.001715 471.11038 582.23511
572.0 0.001748 471.07700 582.94904
609.0 0.001642 471.04373 583.76746
598.0 0.001672 471.01068 584.67584
589.0 0.001698 470.97769 585.65955
607.0 0.001647 470.94513 586.70313
601.0 0.001664 470.91260 587.79095
569.0 0.001757 470.87997 588.90741
592.0 0.001689 470.84775 590.03601
598.0 0.001672 470.81567 591.16089
587.0 0.001704 470.78360 592.26544
593.0 0.001686 470.75183 593.33411
600.0 0.001667 470.72031 594.35162
628.0 0.001592 470.68878 595.30371
624.0 0.001603 470.65753 597.05432
611.0 0.001637 470.62631 597.84308
604.0 0.001656 470.59537 598.53320
624.0 0.001603 470.56448 599.11816
609.0 0.001642 470.53375 599.59326
610.0 0.001639 470.50330 599.95819
620.0 0.001613 470.47296 600.21429
614.0 0.001629 470.44281 600.36621
622.0 0.001608 470.41281 600.42194
626.0 0.001597 470.38293 600.39172
671.0 0.001490 470.35327 600.28784
657.0 0.001522 470.32373 600.12555
641.0 0.001560 470.29431 599.92126
625.0 0.001600 470.26511 599.69281
621.0 0.001610 470.23608 599.45947
613.0 0.001631 470.20724 599.24060
615.0 0.001626 470.17859 599.05676
601.0 0.001664 470.15015 598.92889
616.0 0.001623 470.12173 598.87793
641.0 0.001560 470.09354 598.92511
639.0 0.001565 470.06555 599.09210
637.0 0.001570 470.03778 599.40009
611.0 0.001637 470.01010 599.87134
624.0 0.001603 469.98260 600.52765
642.0 0.001558 469.95538 601.39136
622.0 0.001608 469.92813 602.48547
630.0 0.001587 469.90121 603.83295
641.0 0.001560 469.87436 605.45776
639.0 0.001565 469.84775 607.38354
646.0 0.001548 469.82132 609.63568
636.0 0.001572 469.79504 612.23914
616.0 0.001623 469.76898 615.22052
610.0 0.001639 469.74301 618.60590
625.0 0.001600 469.71735 622.42303
645.0 0.001550 469.69171 626.69916
660.0 0.001515 469.66638 631.46277
661.0 0.001513 469.64120 636.74255
648.0 0.001543 469.61612 642.56720
672.0 0.001488 469.59134 648.96582
694.0 0.001441 469.56668 655.96783
741.0 0.001350 469.54214 663.60150
707.0 0.001414 469.51804 671.89502
698.0 0.001433 469.49387 680.87720
694.0 0.001441 469.46988 690.57404
725.0 0.001379 469.44611 701.01178
731.0 0.001368 469.42252 712.21466
778.0 0.001285 469.39917 724.20502
786.0 0.001272 469.37595 737.00385
793.0 0.001261 469.35284 750.62921
814.0 0.001229 469.33008 765.09631
820.0 0.001220 469.30737 780.41779
807.0 0.001239 469.28491 796.60223
832.0 0.001202 469.26270 813.65479
858.0 0.001166 469.24057 831.57593
901.0 0.001110 469.21872 850.36151
953.0 0.001049 469.19699 870.00262
950.0 0.001053 469.17548 890.48492
967.0 0.001034 469.15411 911.78741
973.0 0.001028 469.13303 933.88330
999.0 0.001001 469.11203 956.73889
1016.0 0.000984 469.09128 980.31287
1026.0 0.000975 469.07071 1004.55652
1037.0 0.000964 469.05017 1029.41211
1069.0 0.000935 469.02997 1054.81348
1094.0 0.000914 469.01010 1080.68469
1190.0 0.000840 468.99023 1106.93994
1214.0 0.000824 468.97067 1133.48242
1221.0 0.000819 468.95129 1160.20337
1251.0 0.000799 468.93192 1186.98364
1367.0 0.000732 468.91290 1213.69019
1385.0 0.000722 468.89401 1240.17896
1354.0 0.000739 468.87537 1266.29126
1403.0 0.000713 468.85693 1291.85803
1414.0 0.000707 468.83868 1316.69763
1416.0 0.000706 468.82065 1340.61755
1445.0 0.000692 468.80267 1363.41675
1494.0 0.000669 468.78506 1384.88843
1506.0 0.000664 468.76752 1404.82227
1539.0 0.000650 468.75024 1423.00964
1510.0 0.000662 468.73306 1439.24744
1543.0 0.000648 468.71628 1453.34351
1559.0 0.000641 468.69955 1465.12146
1611.0 0.000621 468.68301 1474.42871
1650.0 0.000606 468.66672 1480.53528
1643.0 0.000609 468.65067 1484.55701
1611.0 0.000621 468.63477 1485.82874
1620.0 0.000617 468.61905 1484.33118
1612.0 0.000620 468.60342 1480.08264
1570.0 0.000637 468.58817 1473.14001
1595.0 0.000627 468.57309 1463.59644
1655.0 0.000604 468.55811 1451.57703
1652.0 0.000605 468.54340 1437.23486
1593.0 0.000628 468.52890 1420.74573
1588.0 0.000630 468.51462 1402.30164
1564.0 0.000639 468.50052 1382.10608
1520.0 0.000658 468.48660 1360.36841
1514.0 0.000661 468.47293 1337.29871
1469.0 0.000681 468.45932 1313.10413
1458.0 0.000686 468.44623 1287.98621
1452.0 0.000689 468.43307 1262.13623
1387.0 0.000721 468.42007 1235.73621
1359.0 0.000736 468.40753 1208.95520
1317.0 0.000759 468.39502 1181.95044
1280.0 0.000781 468.38275 1154.86597
1233.0 0.000811 468.37054 1127.83313
1271.0 0.000787 468.35880 1100.97058
1217.0 0.000822 468.34711 1074.38586
1160.0 0.000862 468.33572 1048.17444
1153.0 0.000867 468.32440 1022.42090
1142.0 0.000876 468.31335 997.20007
1097.0 0.000912 468.30255 972.57715
1081.0 0.000925 468.29196 948.60834
1053.0 0.000950 468.28152 925.34070
1054.0 0.000949 468.27127 902.81488
977.0 0.001024 468.26123 881.06262
937.0 0.001067 468.25150 860.10968
873.0 0.001145 468.24188 839.97516
824.0 0.001214 468.23248 820.67200
845.0 0.001183 468.22336 802.20801
829.0 0.001206 468.21436 784.58551
792.0 0.001263 468.20563 767.80212
773.0 0.001294 468.19702 751.85156
742.0 0.001348 468.18878 736.72321
736.0 0.001359 468.18066 722.40332
751.0 0.001332 468.17270 708.87476
727.0 0.001376 468.16501 696.11792
719.0 0.001391 468.15744 684.11078
730.0 0.001370 468.15015 672.82965
743.0 0.001346 468.14307 662.24872
711.0 0.001406 468.13620 652.34137
687.0 0.001456 468.12967 643.07983
636.0 0.001572 468.12317 634.43585
627.0 0.001595 468.11691 626.38062
620.0 0.001613 468.11093 618.88513
629.0 0.001590 468.10510 611.92096
620.0 0.001613 468.09943 605.45953
607.0 0.001647 468.09418 599.47314
596.0 0.001678 468.08893 593.93414
586.0 0.001706 468.08401 588.81696
579.0 0.001727 468.07922 584.11383
587.0 0.001704 468.07468 579.76410
581.0 0.001721 468.07037 575.76251
592.0 0.001689 468.06625 572.08710
581.0 0.001721 468.06238 568.71692
570.0 0.001754 468.05869 565.63208
569.0 0.001757 468.05515 562.81421
562.0 0.001779 468.05200 560.24573
562.0 0.001779 468.04898 557.91058
557.0 0.001795 468.04620 555.79382
550.0 0.001818 468.04349 553.88153
545.0 0.001835 468.04108 552.16083
531.0 0.001883 468.03900 550.61993
558.0 0.001792 468.03696 549.24780
593.0 0.001686 468.03525 548.03448
598.0 0.001672 468.03363 546.97058
589.0 0.001698 468.03241 546.04755
543.0 0.001842 468.03119 545.25745
528.0 0.001894 468.03033 544.59338
539.0 0.001855 468.02963 544.04816
543.0 0.001842 468.02921 543.61572
543.0 0.001842 468.02902 543.28979
545.0 0.001835 468.02893 543.06519
538.0 0.001859 468.02914 542.93634
546.0 0.001832 468.02963 542.89795
528.0 0.001894 468.03009 542.94470
536.0 0.001866 468.03098 543.07220
529.0 0.001890 468.03210 543.27509
528.0 0.001894 468.03320 543.54858
525.0 0.001905 468.03476 543.88721
531.0 0.001883 468.03644 544.28571
545.0 0.001835 468.03833 544.73889
535.0 0.001869 468.04056 545.24048
525.0 0.001905 468.04294 545.78473
532.0 0.001880 468.04538 546.36523
536.0 0.001866 468.04819 546.97498
546.0 0.001832 468.05124 547.60669
537.0 0.001862 468.05432 548.25232
548.0 0.001825 468.05789 548.90411
573.0 0.001745 468.06146 549.55304
547.0 0.001828 468.06540 550.18982
574.0 0.001742 468.06946 550.80487
568.0 0.001761 468.07376 551.38824
618.0 0.001618 468.07831 551.92950
624.0 0.001603 468.08304 552.41846
586.0 0.001706 468.08801 552.84454
581.0 0.001721 468.09308 553.19769
569.0 0.001757 468.09845 553.46851
542.0 0.001845 468.10406 553.64819
565.0 0.001770 468.10992 553.72845
573.0 0.001745 468.11594 553.70300
566.0 0.001767 468.12222 553.56610
567.0 0.001764 468.12860 553.31488
555.0 0.001802 468.13544 552.94696
543.0 0.001842 468.14221 552.46265
533.0 0.001876 468.14938 551.86316
546.0 0.001832 468.15671 551.15228
549.0 0.001821 468.16431 550.33453
551.0 0.001815 468.17209 549.41699
562.0 0.001779 468.18005 548.40625
574.0 0.001742 468.18826 547.31128
604.0 0.001656 468.19672 546.14063
563.0 0.001776 468.20526 544.90387
568.0 0.001761 468.21417 543.61041
569.0 0.001757 468.22318 542.26984
549.0 0.001821 468.23254 540.89142
537.0 0.001862 468.24207 539.48413
544.0 0.001838 468.25165 538.05621
526.0 0.001901 468.26166 536.61566
528.0 0.001894 468.27185 535.17023
530.0 0.001887 468.28217 533.72638
533.0 0.001876 468.29272 532.29083
505.0 0.001980 468.30365 530.86914
517.0 0.001934 468.31467 529.46613
517.0 0.001934 468.32590 528.08673
504.0 0.001984 468.33725 526.73499
499.0 0.002004 468.34888 525.41467
518.0 0.001931 468.36090 524.12897
522.0 0.001916 468.37296 522.88055
546.0 0.001832 468.38528 521.67224
544.0 0.001838 468.39783 520.50574
538.0 0.001859 468.41052 519.38275
514.0 0.001946 468.42346 518.30524
499.0 0.002004 468.43665 517.27393
501.0 0.001996 468.45007 516.29004
504.0 0.001984 468.46365 515.35406
512.0 0.001953 468.47748 514.46655
545.0 0.001835 468.49142 513.62799
547.0 0.001828 468.50580 512.83813
524.0 0.001908 468.52020 512.09705
523.0 0.001912 468.53488 511.40475
495.0 0.002020 468.54984 510.76077
488.0 0.002049 468.56488 510.16492
481.0 0.002079 468.58026 509.61646
490.0 0.002041 468.59570 509.11539
499.0 0.002004 468.61151 508.66074
509.0 0.001965 468.62741 508.25201
498.0 0.002008 468.64355 507.88885
504.0 0.001984 468.65994 507.57077
512.0 0.001953 468.67667 507.29721
526.0 0.001901 468.69333 507.06760
504.0 0.001984 468.71039 506.88202
518.0 0.001931 468.72769 506.73984
565.0 0.001770 468.74496 506.64114
540.0 0.001852 468.76282 506.58594
503.0 0.001988 468.78061 506.57428
498.0 0.002008 468.79874 506.60635
497.0 0.002012 468.81708 506.75748
507.0 0.001972 468.83545 506.87930
526.0 0.001901 468.85422 507.04678
517.0 0.001934 468.87311 507.26102
530.0 0.001887 468.89230 507.52298
514.0 0.001946 468.91159 507.83423
508.0 0.001969 468.93115 508.19601
526.0 0.001901 468.95096 508.61026
522.0 0.001916 468.97092 509.07870
524.0 0.001908 468.99100 509.60342
538.0 0.001859 469.01147 510.18658
526.0 0.001901 469.03207 510.83060
523.0 0.001912 469.05289 511.53787
564.0 0.001773 469.07385 512.31128
547.0 0.001828 469.09512 513.15320
560.0 0.001786 469.11658 514.06647
539.0 0.001855 469.13815 515.05408
557.0 0.001795 469.16006 516.11859
534.0 0.001873 469.18207 517.26318
523.0 0.001912 469.20432 518.49042
559.0 0.001789 469.22684 519.80316
542.0 0.001845 469.24948 521.20410
557.0 0.001795 469.27243 522.69550
565.0 0.001770 469.29535 524.27991
595.0 0.001681 469.31870 525.95959
589.0 0.001698 469.34225 527.73590
601.0 0.001664 469.36591 529.61115
579.0 0.001727 469.38989 531.58600
590.0 0.001695 469.41388 533.66193
562.0 0.001779 469.43823 535.83899
553.0 0.001808 469.46265 538.11774
575.0 0.001739 469.48749 540.49762
562.0 0.001779 469.51239 542.97784
560.0 0.001786 469.53751 545.55719
580.0 0.001724 469.56277 548.23346
587.0 0.001704 469.58835 551.00452
574.0 0.001742 469.61414 553.86682
579.0 0.001727 469.63995 556.81671
573.0 0.001745 469.66620 559.84943
586.0 0.001706 469.69238 562.96002
600.0 0.001667 469.71890 566.14172
584.0 0.001712 469.74579 569.38782
586.0 0.001706 469.77261 572.69025
581.0 0.001721 469.79974 576.03986
577.0 0.001733 469.82715 579.42719
604.0 0.001656 469.85461 582.84100
615.0 0.001626 469.88239 586.26959
616.0 0.001623 469.91022 589.89001
609.0 0.001642 469.93842 593.31055
612.0 0.001634 469.96667 596.70605
614.0 0.001629 469.99512 600.06219
609.0 0.001642 470.02390 603.36499
619.0 0.001616 470.05273 606.60028
635.0 0.001575 470.08188 609.75555
633.0 0.001580 470.11118 612.81891
647.0 0.001546 470.14072 615.78076
650.0 0.001538 470.17032 618.63403
662.0 0.001511 470.20026 621.37366
666.0 0.001502 470.23022 623.99823
650.0 0.001538 470.26044 626.51007
677.0 0.001477 470.29089 628.91400
669.0 0.001495 470.32169 631.21899
656.0 0.001524 470.35245 633.43671
659.0 0.001517 470.38348 635.58191
672.0 0.001488 470.41464 637.67157
733.0 0.001364 470.44614 639.72449
699.0 0.001431 470.47772 641.76086
672.0 0.001488 470.50952 643.80151
655.0 0.001527 470.54144 645.86761
661.0 0.001513 470.57367 647.98004
676.0 0.001479 470.60593 650.15894
671.0 0.001490 470.63852 652.42371
688.0 0.001453 470.67130 654.79193
687.0 0.001456 470.70422 657.28088
687.0 0.001456 470.73721 659.90479
714.0 0.001401 470.77063 662.67743
695.0 0.001439 470.80399 665.61011
747.0 0.001339 470.83759 668.71198
744.0 0.001344 470.87152 671.99152
727.0 0.001376 470.90549 675.45398
786.0 0.001272 470.93982 679.10333
776.0 0.001289 470.97409 682.94159
776.0 0.001289 471.00867 686.96881
762.0 0.001312 471.04343 691.18268
742.0 0.001348 471.07837 695.57947
792.0 0.001263 471.11343 700.15338
795.0 0.001258 471.14880 704.89691
780.0 0.001282 471.18417 709.80096
803.0 0.001245 471.21985 714.85504
824.0 0.001214 471.25568 720.04791
819.0 0.001221 471.29169 725.36731
815.0 0.001227 471.32794 730.80127
840.0 0.001190 471.36426 736.33752
861.0 0.001161 471.40079 741.96570
856.0 0.001168 471.43759 747.67670
881.0 0.001135 471.47443 753.46356
859.0 0.001164 471.51138 759.32239
844.0 0.001185 471.54874 765.25330
906.0 0.001104 471.58615 771.25934
935.0 0.001070 471.62369 777.34875
932.0 0.001073 471.66150 783.53357
946.0 0.001057 471.69940 789.82996
928.0 0.001078 471.73752 796.25806
942.0 0.001062 471.77576 802.84106
928.0 0.001078 471.81418 809.60522
966.0 0.001035 471.85291 816.57788
970.0 0.001031 471.89169 823.78766
964.0 0.001037 471.93057 831.26282
950.0 0.001053 471.96976 839.03027
948.0 0.001055 472.00900 847.11499
999.0 0.001001 472.04846 855.53900
1000.0 0.001000 472.08810 864.32001
995.0 0.001005 472.12787 873.47131
971.0 0.001030 472.16776 883.00104
970.0 0.001031 472.20795 892.91168
957.0 0.001045 472.24817 903.19940
943.0 0.001060 472.28876 913.85461
946.0 0.001057 472.32935 924.86041
983.0 0.001017 472.36993 936.19415
1011.0 0.000989 472.41107 947.82690
1015.0 0.000985 472.45206 959.72302
1043.0 0.000959 472.49326 971.84143
1047.0 0.000955 472.53482 984.13544
1005.0 0.000995 472.57635 996.55280
974.0 0.001027 472.61810 1009.03693
1000.0 0.001000 472.66006 1021.52612
999.0 0.001001 472.70193 1033.95508
1052.0 0.000951 472.74420 1046.25378
1030.0 0.000971 472.78659 1058.34863
1068.0 0.000936 472.82913 1070.16199
1069.0 0.000935 472.87183 1081.61206
1056.0 0.000947 472.91455 1091.97803
1079.0 0.000927 472.95752 1102.44324
1116.0 0.000896 473.00070 1112.27661
1081.0 0.000925 473.04395 1121.38098
1068.0 0.000936 473.08734 1129.65637
1115.0 0.000897 473.13101 1137.00244
1097.0 0.000912 473.17474 1143.31702
1087.0 0.000920 473.21857 1148.50159
1054.0 0.000949 473.26257 1152.46143
1049.0 0.000953 473.30679 1155.10950
1041.0 0.000961 473.35117 1156.36938
1032.0 0.000969 473.39560 1156.17786
1030.0 0.000971 473.44016 1154.48779
1026.0 0.000975 473.48505 1151.27161
1032.0 0.000969 473.52985 1146.52185
1051.0 0.000951 473.57486 1140.25232
1093.0 0.000915 473.62015 1132.49805
1035.0 0.000966 473.66544 1123.31494
1006.0 0.000994 473.71094 1112.77673
1018.0 0.000982 473.75653 1100.97437
1023.0 0.000978 473.80225 1088.01111
1016.0 0.000984 473.84818 1074.00024
1017.0 0.000983 473.89420 1059.06201
980.0 0.001020 473.94049 1043.31995
965.0 0.001036 473.98682 1026.89807
935.0 0.001070 474.03320 1009.91925
926.0 0.001080 474.07977 992.50201
936.0 0.001068 474.12650 974.75977
917.0 0.001091 474.17337 956.79962
906.0 0.001104 474.22034 938.72144
926.0 0.001080 474.26746 920.61761
908.0 0.001101 474.31476 902.57300
890.0 0.001124 474.36206 884.66461
856.0 0.001168 474.40973 866.77893
869.0 0.001151 474.45728 849.34534
850.0 0.001176 474.50507 832.23517
857.0 0.001167 474.55295 815.49719
857.0 0.001167 474.60104 799.17371
857.0 0.001167 474.64920 783.30157
860.0 0.001163 474.69751 767.91144
813.0 0.001230 474.74585 753.02924
785.0 0.001274 474.79440 738.67554
778.0 0.001285 474.84305 724.86652
777.0 0.001287 474.89175 711.61407
757.0 0.001321 474.94077 698.92566
743.0 0.001346 474.98969 686.80524
748.0 0.001337 475.03888 675.25336
770.0 0.001299 475.08813 664.26740
715.0 0.001399 475.13754 653.84137
723.0 0.001383 475.18707 643.96735
705.0 0.001418 475.23663 634.63403
696.0 0.001437 475.28644 625.82947
687.0 0.001456 475.33640 617.53833
668.0 0.001497 475.38617 609.74463
685.0 0.001460 475.43625 602.43097
678.0 0.001475 475.48660 595.57874
644.0 0.001553 475.53693 589.16864
613.0 0.001631 475.58716 583.18048
608.0 0.001645 475.63779 577.59393
617.0 0.001621 475.68839 572.38843
605.0 0.001653 475.73917 567.54327
602.0 0.001661 475.79004 563.03784
583.0 0.001715 475.84106 558.85199
560.0 0.001786 475.89212 554.96582
549.0 0.001821 475.94330 551.35974
542.0 0.001845 475.99460 548.01532
562.0 0.001779 476.04599 544.91443
554.0 0.001805 476.09747 542.03961
551.0 0.001815 476.14902 539.37408
540.0 0.001852 476.20078 536.90253
544.0 0.001838 476.25247 534.60986
536.0 0.001866 476.30453 532.48181
519.0 0.001927 476.35657 530.50592
529.0 0.001890 476.40854 528.66901
541.0 0.001848 476.46085 526.96039
513.0 0.001949 476.51309 525.36884
515.0 0.001942 476.56540 523.88446
526.0 0.001901 476.61792 522.49878
525.0 0.001905 476.67044 521.20282
526.0 0.001901 476.72311 519.98907
526.0 0.001901 476.77600 518.85083
511.0 0.001957 476.82880 517.78119
498.0 0.002008 476.88171 516.77466
526.0 0.001901 476.93491 515.82593
510.0 0.001961 476.98788 514.92987
493.0 0.002028 477.04120 514.08240
498.0 0.002008 477.09445 513.27942
531.0 0.001883 477.14777 512.51752
525.0 0.001905 477.20126 511.79352
509.0 0.001965 477.25491 511.10434
499.0 0.002004 477.30847 510.44745
498.0 0.002008 477.36237 509.82077
486.0 0.002058 477.41611 509.22159
473.0 0.002114 477.46994 508.64841
472.0 0.002119 477.52396 508.09967
468.0 0.002137 477.57794 507.57333
479.0 0.002088 477.63205 507.06851
466.0 0.002146 477.68637 506.58368
477.0 0.002096 477.74060 506.11774
474.0 0.002110 477.79504 505.66946
485.0 0.002062 477.84949 505.23822
498.0 0.002008 477.90387 504.82306
499.0 0.002004 477.95856 504.42307
490.0 0.002041 478.01309 504.03751
475.0 0.002105 478.06793 503.66583
467.0 0.002141 478.12271 503.30753
515.0 0.001942 478.17752 502.96191
479.0 0.002088 478.23236 502.62842
489.0 0.002045 478.28745 502.30664
490.0 0.002041 478.34259 501.99609
461.0 0.002169 478.39774 501.69632
474.0 0.002110 478.45294 501.40698
481.0 0.002079 478.50815 501.46561
473.0 0.002114 478.56348 501.19751
478.0 0.002092 478.61890 500.93881
457.0 0.002188 478.67429 500.68906
448.0 0.002232 478.72983 500.44821
464.0 0.002155 478.78528 500.21588
483.0 0.002070 478.84091 499.99435
480.0 0.002083 478.89670 499.77826
480.0 0.002083 478.95242 499.56992
469.0 0.002132 479.00815 499.36914
475.0 0.002105 479.06403 499.17560
465.0 0.002151 479.11984 498.98920
469.0 0.002132 479.17593 498.99173
471.0 0.002123 479.23190 498.81995
480.0 0.002083 479.28790 498.65488
482.0 0.002075 479.34402 498.49609
485.0 0.002062 479.40018 498.34357
476.0 0.002101 479.45633 498.19724
470.0 0.002128 479.51266 498.05698
479.0 0.002088 479.56894 497.92249
473.0 0.002114 479.62524 497.79367
472.0 0.002119 479.68173 497.67072
484.0 0.002066 479.73801 497.55304
467.0 0.002141 479.79462 497.44104
492.0 0.002033 479.85110 497.33420
466.0 0.002146 479.90762 497.23264
469.0 0.002132 479.96426 497.13641
492.0 0.002033 480.02087 497.04504
471.0 0.002123 480.07751 496.95911
495.0 0.002020 480.13425 496.87796
506.0 0.001976 480.19101 496.80200
471.0 0.002123 480.24765 496.73071
477.0 0.002096 480.30450 496.66455
476.0 0.002101 480.36127 496.60336
461.0 0.002169 480.41815 496.54706
454.0 0.002203 480.47507 496.49561
458.0 0.002183 480.53189 496.44916
437.0 0.002288 480.58902 496.40778
460.0 0.002174 480.64584 496.37140
468.0 0.002137 480.70294 496.33990
466.0 0.002146 480.76004 496.31369
476.0 0.002101 480.81702 496.29266
473.0 0.002114 480.87411 496.27689
464.0 0.002155 480.93127 496.26645
465.0 0.002151 480.98843 496.26141
461.0 0.002169 481.04550 496.26196
463.0 0.002160 481.10275 496.26846
473.0 0.002114 481.15988 496.28067
460.0 0.002174 481.21713 496.29889
465.0 0.002151 481.27426 496.32303
460.0 0.002174 481.33151 496.05423
478.0 0.002092 481.38879 496.09277
490.0 0.002041 481.44608 496.13785
491.0 0.002037 481.50330 496.18970
485.0 0.002062 481.56067 496.24872
462.0 0.002165 481.61786 496.31500
470.0 0.002128 481.67523 496.38867
468.0 0.002137 481.73254 496.47040
489.0 0.002045 481.78979 496.55969
515.0 0.001942 481.84714 496.65732
493.0 0.002028 481.90463 495.70187
465.0 0.002151 481.96185 495.82114
463.0 0.002160 482.01935 495.94919
451.0 0.002217 482.07660 496.08630
455.0 0.002198 482.13388 496.23267
471.0 0.002123 482.19131 496.38882
466.0 0.002146 482.24866 496.55457
461.0 0.002169 482.30597 496.73029
457.0 0.002188 482.36331 496.91623
470.0 0.002128 482.42068 497.11258
460.0 0.002174 482.47794 497.31958
461.0 0.002169 482.53534 497.53741
481.0 0.002079 482.59265 497.76605
484.0 0.002066 482.65009 498.00604
481.0 0.002079 482.70734 498.25708
471.0 0.002123 482.76462 498.51971
468.0 0.002137 482.82196 498.79379
474.0 0.002110 482.87918 499.07944
459.0 0.002179 482.93631 499.37689
463.0 0.002160 482.99368 499.68622
476.0 0.002101 483.05084 500.00723
467.0 0.002141 483.10812 500.34015
467.0 0.002141 483.16537 501.46536
472.0 0.002119 483.22256 501.82602
479.0 0.002088 483.27963 502.19855
474.0 0.002110 483.33682 502.58304
486.0 0.002058 483.39398 502.97903
482.0 0.002075 483.45102 503.38660
479.0 0.002088 483.50827 503.80533
484.0 0.002066 483.56525 504.23529
490.0 0.002041 483.62234 504.67603
488.0 0.002049 483.67932 505.12735
492.0 0.002033 483.73621 505.58859
487.0 0.002053 483.79330 506.05972
513.0 0.001949 483.85019 506.53995
511.0 0.001957 483.90704 507.02908
503.0 0.001988 483.96399 507.61630
482.0 0.002075 484.02084 508.12183
474.0 0.002110 484.07761 508.63492
508.0 0.001969 484.13434 509.15503
503.0 0.001988 484.19110 509.68164
489.0 0.002045 484.24783 510.21487
496.0 0.002016 484.30450 510.75452
497.0 0.002012 484.36099 511.30063
506.0 0.001976 484.41772 511.85364
498.0 0.002008 484.47424 512.41418
478.0 0.002092 484.53067 512.98267
468.0 0.002137 484.58728 513.56079
476.0 0.002101 484.64365 514.14941
494.0 0.002024 484.69995 514.75000
500.0 0.002000 484.75641 515.36450
524.0 0.001908 484.81259 515.99463
504.0 0.001984 484.86893 516.64264
477.0 0.002096 484.92505 517.31030
464.0 0.002155 484.98123 517.99957
463.0 0.002160 485.03732 518.71277
499.0 0.002004 485.09335 519.45172
551.0 0.001815 485.14935 520.21820
503.0 0.001988 485.20532 521.01379
492.0 0.002033 485.26117 521.83990
495.0 0.002020 485.31702 522.69739
493.0 0.002028 485.37277 523.58728
488.0 0.002049 485.42850 524.51025
497.0 0.002012 485.48410 525.46588
492.0 0.002033 485.53983 526.45404
484.0 0.002066 485.59515 527.47418
492.0 0.002033 485.65085 528.52521
510.0 0.001961 485.70618 529.60559
507.0 0.001972 485.76154 530.71320
540.0 0.001852 485.81686 531.84625
531.0 0.001883 485.87210 533.00134
527.0 0.001898 485.92715 534.17542
528.0 0.001894 485.98236 535.36456
523.0 0.001912 486.03726 536.56451
532.0 0.001880 486.09213 537.77051
506.0 0.001976 486.14731 538.97766
498.0 0.002008 486.20203 540.18018
509.0 0.001965 486.25684 541.37256
517.0 0.001934 486.31134 542.54816
529.0 0.001890 486.36600 543.70099
523.0 0.001912 486.42050 544.82477
510.0 0.001961 486.47507 545.91333
501.0 0.001996 486.52933 546.96124
492.0 0.002033 486.58371 547.96332
514.0 0.001946 486.63788 548.91510
505.0 0.001980 486.69196 549.81348
523.0 0.001912 486.74609 550.68488
522.0 0.001916 486.80008 551.47205
517.0 0.001934 486.85406 552.20392
522.0 0.001916 486.90781 552.88312
528.0 0.001894 486.96146 553.51331
530.0 0.001887 487.01520 554.10022
531.0 0.001883 487.06860 554.65021
515.0 0.001942 487.12210 555.17114
508.0 0.001969 487.17554 555.67206
527.0 0.001898 487.22876 556.16229
541.0 0.001848 487.28195 556.65143
558.0 0.001792 487.33499 557.14960
549.0 0.001821 487.38800 557.58911
544.0 0.001838 487.44098 558.13495
552.0 0.001812 487.49377 558.71869
562.0 0.001779 487.54654 559.34796
551.0 0.001815 487.59927 560.03131
545.0 0.001835 487.65173 560.77509
536.0 0.001866 487.70413 561.58563
538.0 0.001859 487.75647 562.46741
568.0 0.001761 487.80872 563.42456
565.0 0.001770 487.86072 564.45990
560.0 0.001786 487.91287 565.57526
570.0 0.001754 487.96478 566.77100
560.0 0.001786 488.01648 568.04663
566.0 0.001767 488.06830 569.40063
597.0 0.001675 488.11990 570.82990
576.0 0.001736 488.17148 572.33069
581.0 0.001721 488.22290 573.89716
592.0 0.001689 488.27411 575.52295
578.0 0.001730 488.32529 577.20007
573.0 0.001745 488.37634 578.91931
545.0 0.001835 488.42734 580.67010
549.0 0.001821 488.47809 582.44031
569.0 0.001757 488.52896 584.21631
564.0 0.001773 488.57944 585.98376
577.0 0.001733 488.63010 587.72650
572.0 0.001748 488.68042 589.42712
581.0 0.001721 488.73059 591.06738
566.0 0.001767 488.78082 592.62860
558.0 0.001792 488.83075 594.09015
548.0 0.001825 488.88074 595.43274
580.0 0.001724 488.93057 596.63629
573.0 0.001745 488.98013 597.68152
577.0 0.001733 489.02982 598.55035
599.0 0.001669 489.07916 599.22601
576.0 0.001736 489.12845 599.69385
584.0 0.001712 489.17767 599.94257
579.0 0.001727 489.22656 599.96252
575.0 0.001739 489.27557 599.74847
604.0 0.001656 489.32437 599.29797
596.0 0.001678 489.37305 598.61206
609.0 0.001642 489.42163 597.69562
595.0 0.001681 489.46994 596.55652
602.0 0.001661 489.51816 595.20520
644.0 0.001553 489.56635 593.65533
605.0 0.001653 489.61438 591.92133
614.0 0.001629 489.66223 590.01996
586.0 0.001706 489.70996 587.96918
591.0 0.001692 489.75748 585.78699
634.0 0.001577 489.80502 583.49133
646.0 0.001548 489.85236 581.10077
598.0 0.001672 489.89944 578.63214
585.0 0.001709 489.94650 576.10278
570.0 0.001754 489.99356 573.52856
562.0 0.001779 490.04025 570.92419
592.0 0.001689 490.08688 568.30353
573.0 0.001745 490.13330 565.67950
586.0 0.001706 490.17960 563.06342
583.0 0.001715 490.22580 560.46625
591.0 0.001692 490.27179 557.89777
586.0 0.001706 490.31775 555.36591
563.0 0.001776 490.36353 552.87909
549.0 0.001821 490.40906 550.44385
552.0 0.001812 490.45447 548.06561
531.0 0.001883 490.49979 545.75024
504.0 0.001984 490.54498 543.50177
491.0 0.002037 490.58997 541.32410
474.0 0.002110 490.63489 539.22015
492.0 0.002033 490.67941 537.19232
496.0 0.002016 490.72403 535.24286
482.0 0.002075 490.76834 533.37256
485.0 0.002062 490.81259 531.58258
484.0 0.002066 490.85666 529.87323
484.0 0.002066 490.90054 528.24451
492.0 0.002033 490.94434 526.69568
501.0 0.001996 490.98795 525.22607
499.0 0.002004 491.03131 523.83423
490.0 0.002041 491.07462 522.51904
499.0 0.002004 491.11780 521.27869
513.0 0.001949 491.16061 520.11127
529.0 0.001890 491.20340 519.01422
505.0 0.001980 491.24600 517.98578
501.0 0.001996 491.28845 517.02307
485.0 0.002062 491.33084 516.12360
487.0 0.002053 491.37292 515.28479
478.0 0.002092 491.41483 514.50360
463.0 0.002160 491.45663 513.77795
464.0 0.002155 491.49823 513.60181
470.0 0.002128 491.53961 512.98047
483.0 0.002070 491.58096 512.40631
487.0 0.002053 491.62204 511.87640
482.0 0.002075 491.66312 511.38812
469.0 0.002132 491.70380 510.93887
486.0 0.002058 491.74438 510.52634
481.0 0.002079 491.78482 510.14810
520.0 0.001923 491.82498 509.80182
502.0 0.001992 491.86502 509.48535
497.0 0.002012 491.90491 509.19684
486.0 0.002058 491.94464 508.93396
464.0 0.002155 491.98416 508.69513
469.0 0.002132 492.02356 508.47858
476.0 0.002101 492.06265 508.28259
468.0 0.002137 492.10165 508.10574
488.0 0.002049 492.14050 507.94656
471.0 0.002123 492.17908 507.80377
468.0 0.002137 492.21762 507.67621
460.0 0.002174 492.25586 507.56268
448.0 0.002232 492.29385 507.46207
455.0 0.002198 492.33194 507.37357
479.0 0.002088 492.36960 507.29626
457.0 0.002188 492.40701 507.22940
453.0 0.002208 492.44440 507.17239
437.0 0.002288 492.48157 507.12424
442.0 0.002262 492.51859 507.08453
453.0 0.002208 492.55530 507.05289
434.0 0.002304 492.59195 507.02841
471.0 0.002123 492.62845 507.01114
469.0 0.002132 492.66455 507.00040
483.0 0.002070 492.70056 506.99594
491.0 0.002037 492.73639 506.99734
478.0 0.002092 492.77197 507.00461
474.0 0.002110 492.80737 507.01706
483.0 0.002070 492.84268 507.03467
476.0 0.002101 492.87766 507.05728
470.0 0.002128 492.91257 507.08475
476.0 0.002101 492.94724 507.11688
485.0 0.002062 492.98160 507.15335
478.0 0.002092 493.01593 507.19437
468.0 0.002137 493.05008 507.23969
476.0 0.002101 493.08377 507.28903
467.0 0.002141 493.11758 507.34256
457.0 0.002188 493.15103 507.40018
470.0 0.002128 493.18427 507.46164
482.0 0.002075 493.21735 507.52719
506.0 0.001976 493.25031 507.59656
500.0 0.002000 493.28296 507.66989
485.0 0.002062 493.31540 507.74698
480.0 0.002083 493.34763 507.82794
474.0 0.002110 493.37964 507.91272
467.0 0.002141 493.41156 508.00137
466.0 0.002146 493.44318 508.09372
482.0 0.002075 493.47458 508.19000
491.0 0.002037 493.50580 508.29001
489.0 0.002045 493.53680 508.39420
476.0 0.002101 493.56772 508.50201
462.0 0.002165 493.59821 508.61407
469.0 0.002132 493.62857 508.72986
463.0 0.002160 493.65881 508.84976
471.0 0.002123 493.68890 508.97379
460.0 0.002174 493.71851 509.10202
468.0 0.002137 493.74826 509.23447
473.0 0.002114 493.77753 509.37109
463.0 0.002160 493.80667 509.51227
457.0 0.002188 493.83560 509.65802
468.0 0.002137 493.86441 509.80817
467.0 0.002141 493.89285 509.61929
466.0 0.002146 493.92108 509.78052
484.0 0.002066 493.94913 509.94659
472.0 0.002119 493.97702 510.11783
457.0 0.002188 494.00467 510.29440
449.0 0.002227 494.03223 510.47629
453.0 0.002208 494.05936 510.66397
463.0 0.002160 494.08636 510.85745
448.0 0.002232 494.11307 511.05692
461.0 0.002169 494.13971 511.26291
461.0 0.002169 494.16599 511.47549
459.0 0.002179 494.19214 511.69513
461.0 0.002169 494.21808 511.92200
458.0 0.002183 494.24380 512.15656
469.0 0.002132 494.26932 512.39917
487.0 0.002053 494.29440 512.65039
474.0 0.002110 494.31943 512.91077
469.0 0.002132 494.34424 513.18085
492.0 0.002033 494.36896 513.46088
500.0 0.002000 494.39319 513.75214
486.0 0.002058 494.41736 514.05499
493.0 0.002028 494.44128 514.37018
489.0 0.002045 494.46497 514.69897
474.0 0.002110 494.48837 515.04193
480.0 0.002083 494.51154 515.40027
478.0 0.002092 494.53467 515.77502
495.0 0.002020 494.55750 516.16760
489.0 0.002045 494.57996 516.57922
485.0 0.002062 494.60233 516.97943
488.0 0.002049 494.62448 517.43475
476.0 0.002101 494.64627 517.91394
482.0 0.002075 494.66809 518.41840
488.0 0.002049 494.68942 518.95050
492.0 0.002033 494.71054 519.51160
492.0 0.002033 494.73163 520.10449
489.0 0.002045 494.75244 520.02026
468.0 0.002137 494.77295 520.68604
466.0 0.002146 494.79315 521.39075
477.0 0.002096 494.81317 522.13660
490.0 0.002041 494.83301 522.92633
494.0 0.002024 494.85269 523.76300
515.0 0.001942 494.87204 524.64960
519.0 0.001927 494.89117 525.58850
512.0 0.001953 494.91003 526.58337
525.0 0.001905 494.92880 527.63715
517.0 0.001934 494.94717 528.75275
507.0 0.001972 494.96539 529.93359
498.0 0.002008 494.98334 531.18262
502.0 0.001992 495.00119 532.50323
494.0 0.002024 495.01868 533.89795
501.0 0.001996 495.03595 535.37024
498.0 0.002008 495.05301 536.92255
486.0 0.002058 495.06979 538.55756
504.0 0.001984 495.08643 540.27826
506.0 0.001976 495.10275 542.08624
515.0 0.001942 495.11880 543.98425
530.0 0.001887 495.13474 545.97345
528.0 0.001894 495.15042 548.05573
549.0 0.001821 495.16583 550.23199
523.0 0.001912 495.18103 552.50317
541.0 0.001848 495.19592 554.86957
533.0 0.001876 495.21060 557.33093
540.0 0.001852 495.22498 559.88666
534.0 0.001873 495.23935 562.53583
524.0 0.001908 495.25330 565.27704
532.0 0.001880 495.26700 568.10736
538.0 0.001859 495.28058 571.02472
555.0 0.001802 495.29385 574.02533
597.0 0.001675 495.30679 577.10516
611.0 0.001637 495.31967 580.25928
621.0 0.001610 495.33234 583.48218
596.0 0.001678 495.34451 586.76746
594.0 0.001684 495.35660 590.10773
571.0 0.001751 495.36856 593.49500
568.0 0.001761 495.38013 596.92053
563.0 0.001776 495.39157 600.37372
564.0 0.001773 495.40277 603.84442
593.0 0.001686 495.41357 607.32050
610.0 0.001639 495.42429 610.78906
610.0 0.001639 495.43460 614.23688
624.0 0.001603 495.44489 617.64948
597.0 0.001675 495.45477 621.01202
595.0 0.001681 495.46457 624.30951
595.0 0.001681 495.47397 627.52686
607.0 0.001647 495.48328 630.64911
658.0 0.001520 495.49222 633.66199
641.0 0.001560 495.50098 636.55280
645.0 0.001550 495.50952 639.31018
667.0 0.001499 495.51779 641.92566
666.0 0.001502 495.52582 644.39288
699.0 0.001431 495.53354 646.70862
686.0 0.001458 495.54108 648.87384
695.0 0.001439 495.54846 650.89301
696.0 0.001437 495.55557 652.77429
664.0 0.001506 495.56229 654.53033
662.0 0.001511 495.56894 656.17731
633.0 0.001580 495.57535 657.73474
647.0 0.001546 495.58139 659.22565
666.0 0.001502 495.58725 660.67572
698.0 0.001433 495.59290 662.11273
729.0 0.001372 495.59833 663.56616
734.0 0.001362 495.60342 665.06641
779.0 0.001284 495.60843 666.64502
736.0 0.001359 495.61304 668.33392
716.0 0.001397 495.61758 670.16449
773.0 0.001294 495.62167 672.16766
767.0 0.001304 495.62564 674.37457
744.0 0.001344 495.62939 676.81476
740.0 0.001351 495.63290 679.51685
720.0 0.001389 495.63611 682.50879
730.0 0.001370 495.63916 685.81683
759.0 0.001318 495.64185 689.46667
763.0 0.001311 495.64453 693.48187
743.0 0.001346 495.64673 697.88470
730.0 0.001370 495.64877 702.69617
782.0 0.001279 495.65054 707.93555
819.0 0.001221 495.65213 713.62012
842.0 0.001188 495.65341 719.76520
847.0 0.001181 495.65460 726.38489
842.0 0.001188 495.65536 733.48962
841.0 0.001189 495.65601 741.08899
887.0 0.001127 495.65646 749.18854
863.0 0.001159 495.65659 757.79187
830.0 0.001205 495.65637 766.89954
838.0 0.001193 495.65613 776.50848
888.0 0.001126 495.65552 786.61218
885.0 0.001130 495.65475 797.20074
948.0 0.001055 495.65369 808.25995
941.0 0.001063 495.65231 819.77155
938.0 0.001066 495.65079 831.71350
989.0 0.001011 495.64908 844.05865
974.0 0.001027 495.64700 856.77570
990.0 0.001010 495.64481 869.82874
979.0 0.001021 495.64236 883.17773
981.0 0.001019 495.63977 896.77838
1026.0 0.000975 495.63666 910.58112
1045.0 0.000957 495.63364 924.53418
1075.0 0.000930 495.63019 938.58112
1106.0 0.000904 495.62650 952.66327
1099.0 0.000910 495.62262 966.71863
1088.0 0.000919 495.61853 980.68317
1093.0 0.000915 495.61407 994.49158
1140.0 0.000877 495.60959 1008.07654
1156.0 0.000865 495.60468 1021.37006
1127.0 0.000887 495.59964 1034.30359
1189.0 0.000841 495.59439 1046.80713
1136.0 0.000880 495.58884 1058.81067
1157.0 0.000864 495.58301 1070.24390
1178.0 0.000849 495.57721 1081.03516
1136.0 0.000880 495.57086 1091.11255
1123.0 0.000890 495.56448 1100.40466
1132.0 0.000883 495.55777 1108.83838
1135.0 0.000881 495.55090 1116.34302
1162.0 0.000861 495.54367 1122.84863
1121.0 0.000892 495.53629 1128.28833
1168.0 0.000856 495.52875 1132.59851
1118.0 0.000894 495.52094 1135.72363
1130.0 0.000885 495.51285 1137.61438
1108.0 0.000903 495.50464 1138.23206
1122.0 0.000891 495.49606 1137.55029
1122.0 0.000891 495.48737 1135.55432
1133.0 0.000883 495.47827 1132.24524
1118.0 0.000894 495.46909 1127.63770
1152.0 0.000868 495.45969 1121.76123
1099.0 0.000910 495.45007 1114.65967
1056.0 0.000947 495.44025 1106.38928
1047.0 0.000955 495.43011 1097.01685
1043.0 0.000959 495.41977 1086.61951
1063.0 0.000941 495.40915 1075.28027
1025.0 0.000976 495.39841 1063.08728
1020.0 0.000980 495.38742 1050.13184
970.0 0.001031 495.37610 1036.50623
956.0 0.001046 495.36475 1022.30212
980.0 0.001020 495.35300 1007.60980
1021.0 0.000979 495.34103 992.51703
1008.0 0.000992 495.32898 977.10779
988.0 0.001012 495.31668 961.46289
1011.0 0.000989 495.30408 945.65851
1031.0 0.000970 495.29129 929.76703
1031.0 0.000970 495.27826 913.85596
1009.0 0.000991 495.26508 897.98865
984.0 0.001016 495.25162 882.22351
981.0 0.001019 495.23792 866.61530
939.0 0.001065 495.22403 851.21320
913.0 0.001095 495.20996 836.06256
965.0 0.001036 495.19568 821.20435
904.0 0.001106 495.18106 806.67450
873.0 0.001145 495.16638 792.50494
855.0 0.001170 495.15146 778.72382
829.0 0.001206 495.13623 765.35461
854.0 0.001171 495.12088 752.41699
843.0 0.001186 495.10529 739.92664
816.0 0.001225 495.08951 727.89618
780.0 0.001282 495.07346 716.33423
787.0 0.001271 495.05719 705.24683
780.0 0.001282 495.04077 694.63629
755.0 0.001325 495.02405 684.50299
771.0 0.001297 495.00711 674.84454
737.0 0.001357 494.99005 665.65558
713.0 0.001403 494.97272 656.92975
717.0 0.001395 494.95529 648.65839
676.0 0.001479 494.93762 640.83148
724.0 0.001381 494.91965 633.43677
726.0 0.001377 494.90158 626.46204
702.0 0.001425 494.88324 619.89325
679.0 0.001473 494.86475 613.71619
672.0 0.001488 494.84589 607.91522
675.0 0.001481 494.82712 602.47485
694.0 0.001441 494.80786 597.61652
671.0 0.001490 494.78851 592.85046
665.0 0.001504 494.76901 588.39655
653.0 0.001531 494.74924 584.23907
626.0 0.001597 494.72925 580.36206
633.0 0.001580 494.70911 576.74982
622.0 0.001608 494.68869 573.38708
626.0 0.001597 494.66830 570.25928
603.0 0.001658 494.64749 567.35992
590.0 0.001695 494.62656 564.65887
579.0 0.001727 494.60547 562.15179
572.0 0.001748 494.58411 559.82501
584.0 0.001712 494.56256 557.66730
565.0 0.001770 494.54089 555.66711
575.0 0.001739 494.51898 553.81348
567.0 0.001764 494.49686 552.09662
553.0 0.001808 494.47452 550.50720
573.0 0.001745 494.45197 549.03607
546.0 0.001832 494.42932 547.67548
566.0 0.001767 494.40659 546.54388
587.0 0.001704 494.38348 545.64337
573.0 0.001745 494.36029 544.57220
573.0 0.001745 494.33682 543.58496
566.0 0.001767 494.31311 542.67566
567.0 0.001764 494.28943 541.83984
576.0 0.001736 494.26541 541.07300
577.0 0.001733 494.24124 540.37079
568.0 0.001761 494.21695 539.73022
561.0 0.001783 494.19235 539.14783
559.0 0.001789 494.16766 538.62122
574.0 0.001742 494.14279 538.14752
588.0 0.001701 494.11774 537.72485
563.0 0.001776 494.09238 537.98010
582.0 0.001718 494.06708 537.65741
580.0 0.001724 494.04147 537.38129
616.0 0.001623 494.01559 537.15106
642.0 0.001558 493.98978 536.96570
603.0 0.001658 493.96353 536.82507
582.0 0.001718 493.93729 536.72913
587.0 0.001704 493.91092 536.67755
582.0 0.001718 493.88412 536.67090
591.0 0.001692 493.85730 536.70972
569.0 0.001757 493.83032 536.70984
578.0 0.001730 493.80331 536.84216
561.0 0.001783 493.77600 537.02277
558.0 0.001792 493.74838 537.25275
579.0 0.001727 493.72083 537.53394
577.0 0.001733 493.69293 537.86835
573.0 0.001745 493.66492 538.25763
592.0 0.001689 493.63681 538.70477
569.0 0.001757 493.60861 539.21173
564.0 0.001773 493.58005 539.78137
566.0 0.001767 493.55148 540.41687
590.0 0.001695 493.52264 541.12140
583.0 0.001715 493.49377 541.89862
571.0 0.001751 493.46457 542.75232
603.0 0.001658 493.43524 543.68616
599.0 0.001669 493.40591 544.70477
577.0 0.001733 493.37634 545.81226
567.0 0.001764 493.34662 547.01324
559.0 0.001789 493.31683 548.31281
575.0 0.001739 493.28690 549.71576
574.0 0.001742 493.25671 551.22717
595.0 0.001681 493.22638 552.85248
585.0 0.001709 493.19589 554.59674
574.0 0.001742 493.16519 556.46539
588.0 0.001701 493.13446 558.27478
596.0 0.001678 493.10352 560.40918
590.0 0.001695 493.07254 562.68359
615.0 0.001626 493.04141 565.10339
588.0 0.001701 493.01010 567.67334
595.0 0.001681 492.97861 570.39813
599.0 0.001669 492.94702 573.28217
595.0 0.001681 492.91525 576.32977
608.0 0.001645 492.88336 579.54456
594.0 0.001684 492.85138 582.92999
622.0 0.001608 492.81921 586.48895
602.0 0.001661 492.78699 590.22443
601.0 0.001664 492.75455 594.13806
619.0 0.001616 492.72192 598.23193
622.0 0.001608 492.68939 602.50690
650.0 0.001538 492.65649 606.96332
635.0 0.001575 492.62360 611.60089
630.0 0.001587 492.59061 616.41876
644.0 0.001553 492.55728 621.41486
646.0 0.001548 492.52402 626.58636
674.0 0.001484 492.49057 631.92920
658.0 0.001520 492.45700 637.43787
660.0 0.001515 492.42337 643.10614
664.0 0.001506 492.38962 648.92548
635.0 0.001575 492.35565 654.88623
656.0 0.001524 492.32169 660.97656
657.0 0.001522 492.28741 667.18250
671.0 0.001490 492.25320 673.48828
751.0 0.001332 492.21887 679.87549
741.0 0.001350 492.18436 686.32306
712.0 0.001404 492.14984 692.80780
727.0 0.001376 492.11520 699.30334
714.0 0.001401 492.08029 705.78021
702.0 0.001425 492.04532 712.20648
684.0 0.001462 492.01038 718.54669
679.0 0.001473 491.97519 724.76288
717.0 0.001395 491.94000 730.81415
728.0 0.001374 491.90463 736.65649
749.0 0.001335 491.86920 742.24408
727.0 0.001376 491.83362 747.52899
714.0 0.001401 491.79794 752.46246
714.0 0.001401 491.76236 756.99542
735.0 0.001361 491.72635 761.07874
753.0 0.001328 491.69052 764.66602
750.0 0.001333 491.65442 767.71326
781.0 0.001280 491.61829 770.18073
777.0 0.001287 491.58215 772.03406
779.0 0.001284 491.54581 773.24597
762.0 0.001312 491.50943 773.79651
735.0 0.001361 491.47296 773.67395
761.0 0.001314 491.43655 772.87585
756.0 0.001323 491.39972 771.40796
746.0 0.001340 491.36304 769.28546
780.0 0.001282 491.32626 766.53156
773.0 0.001294 491.28940 763.17651
762.0 0.001312 491.25238 759.25671
765.0 0.001307 491.21539 754.81445
780.0 0.001282 491.17825 749.89490
776.0 0.001289 491.14105 744.54645
761.0 0.001314 491.10388 738.81854
753.0 0.001328 491.06644 732.76135
744.0 0.001344 491.02908 726.42407
731.0 0.001368 490.99158 719.85474
702.0 0.001425 490.95407 713.09991
735.0 0.001361 490.91638 706.20337
763.0 0.001311 490.87863 699.20630
711.0 0.001406 490.84100 692.14758
696.0 0.001437 490.80310 685.06250
692.0 0.001445 490.76529 678.01044
684.0 0.001462 490.72742 670.96930
702.0 0.001425 490.68933 663.99255
687.0 0.001456 490.65137 657.10468
680.0 0.001471 490.61316 650.32776
666.0 0.001502 490.57507 643.68231
653.0 0.001531 490.53687 637.18524
656.0 0.001524 490.49857 630.85266
633.0 0.001580 490.46021 624.69739
603.0 0.001658 490.42191 618.73187
596.0 0.001678 490.38345 612.96582
588.0 0.001701 490.34503 607.40698
570.0 0.001754 490.30658 602.06262
568.0 0.001761 490.26801 596.93781
579.0 0.001727 490.22943 592.03632
570.0 0.001754 490.19077 587.36102
571.0 0.001751 490.15216 582.91357
572.0 0.001748 490.11343 578.69427
569.0 0.001757 490.07465 574.70270
595.0 0.001681 490.03589 570.93762
582.0 0.001718 489.99707 567.39655
575.0 0.001739 489.95831 564.07733
547.0 0.001828 489.91937 560.97620
521.0 0.001919 489.88052 558.08948
521.0 0.001919 489.84161 555.41290
531.0 0.001883 489.80249 552.94153
543.0 0.001842 489.76361 550.67096
541.0 0.001848 489.72476 548.59589
528.0 0.001894 489.68564 546.71069
513.0 0.001949 489.64661 545.01068
507.0 0.001972 489.60760 543.48993
514.0 0.001946 489.56854 542.14343
576.0 0.001736 489.52942 540.96570
541.0 0.001848 489.49030 539.95129
540.0 0.001852 489.45123 539.09521
564.0 0.001773 489.41211 538.39264
560.0 0.001786 489.37292 537.83783
551.0 0.001815 489.33386 537.42676
524.0 0.001908 489.29477 537.15405
518.0 0.001931 489.25549 537.01532
513.0 0.001949 489.21640 537.00592
492.0 0.002033 489.17719 537.12140
494.0 0.002024 489.13806 537.35742
490.0 0.002041 489.09900 537.70929
478.0 0.002092 489.05975 538.17279
522.0 0.001916 489.02066 538.74329
518.0 0.001931 488.98151 539.41626
512.0 0.001953 488.94229 540.18719
533.0 0.001876 488.90332 541.05139
519.0 0.001927 488.86417 542.00366
519.0 0.001927 488.82507 543.03906
510.0 0.001961 488.78598 544.15210
510.0 0.001961 488.74692 545.33710
518.0 0.001931 488.70789 546.58771
522.0 0.001916 488.66873 547.89825
515.0 0.001942 488.62979 549.26147
516.0 0.001938 488.59079 550.66986
518.0 0.001931 488.55185 552.11597
521.0 0.001919 488.51288 553.59143
532.0 0.001880 488.47397 555.08716
537.0 0.001862 488.43512 556.59399
516.0 0.001938 488.39624 558.10132
550.0 0.001818 488.35730 559.59821
549.0 0.001821 488.31863 561.07361
542.0 0.001845 488.27991 562.51495
538.0 0.001859 488.24118 563.90979
520.0 0.001923 488.20236 565.24463
542.0 0.001845 488.16376 566.50592
536.0 0.001866 488.12518 567.67975
527.0 0.001898 488.08655 568.75226
542.0 0.001845 488.04807 569.70990
557.0 0.001795 488.00955 570.53973
577.0 0.001733 487.97116 571.22919
557.0 0.001795 487.93268 571.76746
527.0 0.001898 487.89447 572.14514
537.0 0.001862 487.85617 572.35413
566.0 0.001767 487.81793 572.38940
569.0 0.001757 487.77972 572.24719
560.0 0.001786 487.74167 571.92712
575.0 0.001739 487.70361 571.43066
571.0 0.001751 487.66565 570.76166
557.0 0.001795 487.62756 569.92596
569.0 0.001757 487.58984 568.93188
565.0 0.001770 487.55194 567.78906
553.0 0.001808 487.51422 566.50909
551.0 0.001815 487.47656 565.10364
551.0 0.001815 487.43881 563.58575
566.0 0.001767 487.40149 561.96851
562.0 0.001779 487.36398 560.26532
570.0 0.001754 487.32660 558.48914
555.0 0.001802 487.28915 556.65295
539.0 0.001855 487.25208 554.76880
531.0 0.001883 487.21475 552.84851
530.0 0.001887 487.17780 550.90295
524.0 0.001908 487.14069 548.94250
540.0 0.001852 487.10388 546.97644
551.0 0.001815 487.06696 545.01355
580.0 0.001724 487.03030 543.06171
563.0 0.001776 486.99365 541.12830
568.0 0.001761 486.95715 539.21991
558.0 0.001792 486.92062 537.34204
535.0 0.001869 486.88422 535.50006
550.0 0.001818 486.84805 533.69897
552.0 0.001812 486.81177 531.94202
557.0 0.001795 486.77573 530.23334
564.0 0.001773 486.73969 528.57568
564.0 0.001773 486.70389 526.97119
544.0 0.001838 486.66812 525.42218
524.0 0.001908 486.63232 523.93030
503.0 0.001988 486.59683 522.49628
519.0 0.001927 486.56146 521.12109
519.0 0.001927 486.52600 519.80493
513.0 0.001949 486.49081 518.54810
523.0 0.001912 486.45572 517.35028
515.0 0.001942 486.42065 516.21075
517.0 0.001934 486.38580 515.12885
538.0 0.001859 486.35101 514.10345
576.0 0.001736 486.31635 513.13330
549.0 0.001821 486.28186 512.21704
533.0 0.001876 486.24731 511.35327
518.0 0.001931 486.21310 510.53992
531.0 0.001883 486.17896 509.77545
551.0 0.001815 486.14493 509.05786
537.0 0.001862 486.11099 508.38528
519.0 0.001927 486.07724 507.75549
498.0 0.002008 486.04364 507.16669
510.0 0.001961 486.01007 506.61685
506.0 0.001976 485.97672 506.10385
491.0 0.002037 485.94351 505.62558
489.0 0.002045 485.91043 505.18051
482.0 0.002075 485.87744 504.76614
487.0 0.002053 485.84473 504.38092
479.0 0.002088 485.81198 504.02295
480.0 0.002083 485.77939 503.69061
495.0 0.002020 485.74713 503.38223
499.0 0.002004 485.71481 503.09607
490.0 0.002041 485.68274 502.83078
483.0 0.002070 485.65097 502.58472
475.0 0.002105 485.61914 502.35690
526.0 0.001901 485.58746 502.14569
495.0 0.002020 485.55600 501.95026
511.0 0.001957 485.52475 501.76929
521.0 0.001919 485.49359 501.60172
520.0 0.001923 485.46265 501.44672
514.0 0.001946 485.43185 501.30341
489.0 0.002045 485.40112 501.17105
478.0 0.002092 485.37073 501.04886
482.0 0.002075 485.34042 500.93613
473.0 0.002114 485.31024 500.83234
472.0 0.002119 485.28024 500.73682
470.0 0.002128 485.25037 500.64902
469.0 0.002132 485.22083 500.56873
472.0 0.002119 485.19128 500.49548
488.0 0.002049 485.16208 500.81558
488.0 0.002049 485.13300 500.75674
501.0 0.001996 485.10406 501.58762
516.0 0.001938 485.07529 501.54437
525.0 0.001905 485.04684 501.50665
508.0 0.001969 485.01834 501.47418
491.0 0.002037 484.99020 501.44708
494.0 0.002024 484.96225 501.42480
504.0 0.001984 484.93451 501.40732
500.0 0.002000 484.90683 501.39471
495.0 0.002020 484.87949 501.38647
487.0 0.002053 484.85214 501.38287
514.0 0.001946 484.82526 501.38391
488.0 0.002049 484.79837 501.38910
483.0 0.002070 484.77173 501.39865
498.0 0.002008 484.74530 501.41251
487.0 0.002053 484.71909 501.43069
470.0 0.002128 484.69308 501.45313
477.0 0.002096 484.66721 501.47974
494.0 0.002024 484.64166 501.51053
511.0 0.001957 484.61624 501.54578
499.0 0.002004 484.59100 501.58514
496.0 0.002016 484.56607 501.62866
490.0 0.002041 484.54129 501.67667
486.0 0.002058 484.51682 501.72894
475.0 0.002105 484.49240 501.78546
495.0 0.002020 484.46826 501.84650
497.0 0.002012 484.44440 501.91202
497.0 0.002012 484.42072 501.98193
499.0 0.002004 484.39728 502.05661
481.0 0.002079 484.37408 502.13586
466.0 0.002146 484.35107 502.22000
474.0 0.002110 484.32825 502.30875
478.0 0.002092 484.30569 502.40268
498.0 0.002008 484.28348 502.50140
486.0 0.002058 484.26138 502.60538
492.0 0.002033 484.23947 502.71487
483.0 0.002070 484.21786 502.82956
507.0 0.001972 484.19638 502.94998
507.0 0.001972 484.17535 503.07629
503.0 0.001988 484.15439 503.20871
512.0 0.001953 484.13373 503.34708
519.0 0.001927 484.11328 503.49216
520.0 0.001923 484.09311 503.64374
519.0 0.001927 484.07318 503.80252
517.0 0.001934 484.05347 503.96854
514.0 0.001946 484.03403 504.14236
545.0 0.001835 484.01477 504.32413
540.0 0.001852 483.99579 504.51440
523.0 0.001912 483.97717 504.71368
497.0 0.002012 483.95868 504.92236
498.0 0.002008 483.94055 505.14084
535.0 0.001869 483.92264 505.37012
522.0 0.001916 483.90488 505.61050
495.0 0.002020 483.88760 505.86279
510.0 0.001961 483.87027 506.12778
496.0 0.002016 483.85355 506.40625
501.0 0.001996 483.83685 506.69919
520.0 0.001923 483.82050 507.00748
521.0 0.001919 483.80435 507.33218
496.0 0.002016 483.78842 507.67444
493.0 0.002028 483.77295 508.03552
504.0 0.001984 483.75763 508.41620
505.0 0.001980 483.74252 508.81860
504.0 0.001984 483.72781 509.24384
505.0 0.001980 483.71329 509.69333
505.0 0.001980 483.69901 510.16885
504.0 0.001984 483.68509 510.67233
522.0 0.001916 483.67154 511.20490
512.0 0.001953 483.65811 511.76910
530.0 0.001887 483.64508 512.36670
524.0 0.001908 483.63214 512.99951
538.0 0.001859 483.61972 513.67004
530.0 0.001887 483.60751 514.38019
518.0 0.001931 483.59549 515.13220
514.0 0.001946 483.58374 515.92828
518.0 0.001931 483.57239 516.77081
508.0 0.001969 483.56137 517.71265
507.0 0.001972 483.55045 518.65503
509.0 0.001965 483.54001 519.65070
515.0 0.001942 483.52972 520.70203
547.0 0.001828 483.51981 521.81104
534.0 0.001873 483.51016 522.97980
539.0 0.001855 483.50085 524.21082
543.0 0.001842 483.49176 525.53448
561.0 0.001783 483.48300 526.89545
532.0 0.001880 483.47470 528.32379
539.0 0.001855 483.46643 529.82123
523.0 0.001912 483.45862 531.38947
535.0 0.001869 483.45114 533.02905
532.0 0.001880 483.44388 534.74139
554.0 0.001805 483.43701 536.52704
576.0 0.001736 483.43030 538.38647
550.0 0.001818 483.42404 540.31995
551.0 0.001815 483.41815 542.32751
534.0 0.001873 483.41235 544.40839
548.0 0.001825 483.40707 546.56226
528.0 0.001894 483.40198 548.78802
519.0 0.001927 483.39728 551.08362
548.0 0.001825 483.39282 553.44818
569.0 0.001757 483.38876 555.87872
536.0 0.001866 483.38495 558.37323
553.0 0.001808 483.38135 560.92841
540.0 0.001852 483.37817 563.54071
548.0 0.001825 483.37546 566.20618
551.0 0.001815 483.37308 568.58252
560.0 0.001786 483.37076 571.34192
564.0 0.001773 483.36884 574.13983
558.0 0.001792 483.36731 576.96991
553.0 0.001808 483.36618 579.82568
558.0 0.001792 483.36533 581.91583
549.0 0.001821 483.36472 584.80524
581.0 0.001721 483.36453 587.69861
595.0 0.001681 483.36469 590.58795
577.0 0.001733 483.36508 593.46527
564.0 0.001773 483.36581 596.32294
563.0 0.001776 483.36707 599.15363
605.0 0.001653 483.36844 601.95032
594.0 0.001684 483.37024 604.70776
580.0 0.001724 483.37225 607.42163
596.0 0.001678 483.37469 610.08881
590.0 0.001695 483.37756 612.70874
583.0 0.001715 483.38074 615.28253
591.0 0.001692 483.38422 617.81403
577.0 0.001733 483.38800 620.30957
589.0 0.001698 483.39218 622.77734
586.0 0.001706 483.39670 625.22839
608.0 0.001645 483.40155 627.67639
636.0 0.001572 483.40674 630.13641
660.0 0.001515 483.41226 632.62567
684.0 0.001462 483.41815 635.16248
636.0 0.001572 483.42438 637.76666
625.0 0.001600 483.43094 640.45837
634.0 0.001577 483.43796 643.25836
648.0 0.001543 483.44522 646.18652
653.0 0.001531 483.45279 649.26385
644.0 0.001553 483.46088 652.51007
655.0 0.001527 483.46915 655.94360
656.0 0.001524 483.47791 659.58270
650.0 0.001538 483.48700 663.44434
642.0 0.001558 483.49631 667.64423
649.0 0.001541 483.50607 671.99652
662.0 0.001511 483.51620 676.61365
678.0 0.001475 483.52673 681.50702
674.0 0.001484 483.53760 686.68616
674.0 0.001484 483.54877 692.15881
704.0 0.001420 483.56030 697.93121
752.0 0.001330 483.57230 704.00726
770.0 0.001299 483.58447 710.38910
741.0 0.001350 483.59711 717.07672
748.0 0.001337 483.61020 724.06812
746.0 0.001340 483.62357 731.35828
775.0 0.001290 483.63730 738.94055
774.0 0.001292 483.65137 746.80524
761.0 0.001314 483.66589 754.94061
748.0 0.001337 483.68076 763.33179
755.0 0.001325 483.69589 771.96185
781.0 0.001280 483.71143 780.81104
794.0 0.001259 483.72739 790.04968
822.0 0.001217 483.74377 799.27051
855.0 0.001170 483.76041 808.63934
858.0 0.001166 483.77744 818.12878
845.0 0.001183 483.79486 827.71088
861.0 0.001161 483.81262 837.35706
898.0 0.001114 483.83087 847.18054
907.0 0.001103 483.84937 856.87079
901.0 0.001110 483.86835 866.54205
921.0 0.001086 483.88757 876.16907
929.0 0.001076 483.90729 885.72778
960.0 0.001042 483.92725 895.19720
975.0 0.001026 483.94766 904.55737
983.0 0.001017 483.96844 913.79047
961.0 0.001041 483.98956 922.88025
968.0 0.001033 484.01111 931.81140
986.0 0.001014 484.03314 940.56921
985.0 0.001015 484.05536 949.13904
967.0 0.001034 484.07803 957.50513
990.0 0.001010 484.10098 965.65082
1023.0 0.000978 484.12448 973.55695
1046.0 0.000956 484.14825 981.20294
1072.0 0.000933 484.17245 988.56415
1068.0 0.000936 484.19702 995.61432
1063.0 0.000941 484.22205 1002.32416
1115.0 0.000897 484.24731 1008.66095
1136.0 0.000880 484.27313 1014.59027
1166.0 0.000858 484.29919 1020.07556
1177.0 0.000850 484.32565 1025.07861
1162.0 0.000861 484.35248 1029.56042
1162.0 0.000861 484.37967 1033.48230
1194.0 0.000838 484.40744 1036.80530
1231.0 0.000812 484.43546 1039.49158
1186.0 0.000843 484.46378 1041.50574
1169.0 0.000855 484.49252 1042.81409
1197.0 0.000835 484.52170 1043.38623
1196.0 0.000836 484.55124 1043.19568
1177.0 0.000850 484.58118 1042.22021
1212.0 0.000825 484.61142 1040.44238
1178.0 0.000849 484.64218 1037.85120
1148.0 0.000871 484.67325 1034.43970
1153.0 0.000867 484.70474 1030.20984
1162.0 0.000861 484.73666 1025.16968
1161.0 0.000861 484.76874 1019.33392
1164.0 0.000859 484.80142 1012.72528
1156.0 0.000865 484.83450 1005.37402
1115.0 0.000897 484.86786 997.31573
1112.0 0.000899 484.90167 988.59387
1147.0 0.000872 484.93585 979.25684
1178.0 0.000849 484.97043 969.35718
1064.0 0.000940 485.00531 958.95190
1071.0 0.000934 485.04074 948.09979
1039.0 0.000962 485.07635 936.86188
1081.0 0.000925 485.11249 925.29907
1068.0 0.000936 485.14902 913.47229
1018.0 0.000982 485.18585 901.44037
1002.0 0.000998 485.22311 889.26074
933.0 0.001072 485.26074 876.98804
887.0 0.001127 485.29895 864.67358
897.0 0.001115 485.33728 852.36511
848.0 0.001179 485.37607 840.10718
865.0 0.001156 485.41531 827.94067
893.0 0.001120 485.45493 815.90198
837.0 0.001195 485.49490 804.02484
807.0 0.001239 485.53522 792.33856
787.0 0.001271 485.57596 780.86963
821.0 0.001218 485.61710 769.64087
814.0 0.001229 485.65863 758.67212
756.0 0.001323 485.70044 747.98022
753.0 0.001328 485.74277 737.57996
780.0 0.001282 485.78549 727.48260
763.0 0.001311 485.82855 717.69781
708.0 0.001412 485.87204 708.23267
671.0 0.001490 485.91586 699.09283
678.0 0.001475 485.95996 690.28137
654.0 0.001529 486.00458 681.80017
647.0 0.001546 486.04962 673.64917
665.0 0.001504 486.09497 665.82745
641.0 0.001560 486.14075 658.33240
637.0 0.001570 486.18689 651.16034
632.0 0.001582 486.23340 644.30658
619.0 0.001616 486.28033 637.76514
638.0 0.001567 486.32755 631.52979
638.0 0.001567 486.37537 625.59351
643.0 0.001555 486.42334 619.94830
619.0 0.001616 486.47171 614.58588
610.0 0.001639 486.52054 609.49774
614.0 0.001629 486.56979 604.67511
626.0 0.001597 486.61935 600.10840
633.0 0.001580 486.66928 595.78882
612.0 0.001634 486.71954 591.70691
609.0 0.001642 486.77032 587.85315
601.0 0.001664 486.82144 583.76373
581.0 0.001721 486.87286 580.34131
586.0 0.001706 486.92477 577.11987
578.0 0.001730 486.97696 574.09082
567.0 0.001764 487.02960 571.24524
557.0 0.001795 487.08258 568.57526
545.0 0.001835 487.13589 566.07227
574.0 0.001742 487.18958 563.72894
569.0 0.001757 487.24374 561.53754
540.0 0.001852 487.29822 559.49060
535.0 0.001869 487.35300 557.58136
545.0 0.001835 487.40823 555.80298
545.0 0.001835 487.46384 554.14886
539.0 0.001855 487.51981 552.61292
533.0 0.001876 487.57623 551.18933
553.0 0.001808 487.63281 549.87207
532.0 0.001880 487.68997 548.65570
531.0 0.001883 487.74731 547.53528
537.0 0.001862 487.80518 546.50562
527.0 0.001898 487.86334 545.56201
559.0 0.001789 487.92191 544.70001
555.0 0.001802 487.98080 543.91528
544.0 0.001838 488.04022 543.20380
558.0 0.001792 488.09979 542.56116
591.0 0.001692 488.15979 541.98376
568.0 0.001761 488.22009 541.46838
553.0 0.001808 488.28088 541.01099
550.0 0.001818 488.34192 540.60791
542.0 0.001845 488.40347 540.25653
537.0 0.001862 488.46518 539.95313
540.0 0.001852 488.52750 539.69464
540.0 0.001852 488.58990 539.47778
543.0 0.001842 488.65277 539.29962
548.0 0.001825 488.71606 539.15741
546.0 0.001832 488.77960 539.04688
537.0 0.001862 488.84360 538.96576
568.0 0.001761 488.90796 538.91083
570.0 0.001754 488.97250 538.87848
553.0 0.001808 489.03751 538.86566
542.0 0.001845 489.10300 538.86890
547.0 0.001828 489.16867 538.88464
564.0 0.001773 489.23468 538.90973
567.0 0.001764 489.30096 538.94019
554.0 0.001805 489.36783 538.97266
552.0 0.001812 489.43503 539.00348
549.0 0.001821 489.50232 539.02924
532.0 0.001880 489.57010 539.04645
538.0 0.001859 489.63824 539.05164
525.0 0.001905 489.70673 539.04169
516.0 0.001938 489.77554 539.01379
519.0 0.001927 489.84476 538.96552
521.0 0.001919 489.91418 538.89441
536.0 0.001866 489.98398 538.79901
548.0 0.001825 490.05408 538.67786
545.0 0.001835 490.12454 538.53027
537.0 0.001862 490.19534 538.35620
534.0 0.001873 490.26651 538.15546
533.0 0.001876 490.33801 537.92914
529.0 0.001890 490.40982 537.67822
531.0 0.001883 490.48193 537.40454
526.0 0.001901 490.55435 537.10980
552.0 0.001812 490.62720 536.79639
564.0 0.001773 490.70035 536.74762
550.0 0.001818 490.77356 536.40497
544.0 0.001838 490.84747 536.05139
545.0 0.001835 490.92148 535.56708
524.0 0.001908 490.99594 535.19946
516.0 0.001938 491.07059 534.82843
527.0 0.001898 491.14560 534.45599
522.0 0.001916 491.22107 534.08545
512.0 0.001953 491.29654 533.71814
510.0 0.001961 491.37247 533.35657
509.0 0.001965 491.44882 533.00269
511.0 0.001957 491.52524 532.65802
541.0 0.001848 491.60217 532.32452
523.0 0.001912 491.67941 532.00366
519.0 0.001927 491.75687 531.69641
518.0 0.001931 491.83456 531.40442
505.0 0.001980 491.91281 531.12854
523.0 0.001912 491.99115 530.87006
522.0 0.001916 492.06989 530.62994
534.0 0.001873 492.14886 530.40826
531.0 0.001883 492.22809 530.20648
529.0 0.001890 492.30768 530.02521
523.0 0.001912 492.38754 529.86444
517.0 0.001934 492.46759 529.72491
505.0 0.001980 492.54800 529.60706
503.0 0.001988 492.62875 529.51117
505.0 0.001980 492.70972 529.43738
491.0 0.002037 492.79114 529.38623
491.0 0.002037 492.87256 529.35730
479.0 0.002088 492.95444 529.35101
486.0 0.002058 493.03659 529.36755
466.0 0.002146 493.11893 529.40698
478.0 0.002092 493.20157 529.46906
494.0 0.002024 493.28448 529.55359
512.0 0.001953 493.36771 529.66095
500.0 0.002000 493.45132 529.79102
503.0 0.001988 493.53503 529.94342
482.0 0.002075 493.61899 530.11835
487.0 0.002053 493.70322 530.31567
492.0 0.002033 493.78772 530.53534
511.0 0.001957 493.87250 530.77740
492.0 0.002033 493.95767 531.04333
485.0 0.002062 494.04294 531.32990
507.0 0.001972 494.12842 531.63898
501.0 0.001996 494.21432 531.97046
485.0 0.002062 494.30042 532.32428
488.0 0.002049 494.38678 532.84436
503.0 0.001988 494.47321 533.24445
532.0 0.001880 494.55988 533.66779
520.0 0.001923 494.64709 534.11487
507.0 0.001972 494.73428 534.58582
510.0 0.001961 494.82166 535.08136
515.0 0.001942 494.90952 535.60187
492.0 0.002033 494.99747 536.14850
479.0 0.002088 495.08575 536.72174
500.0 0.002000 495.17416 537.32245
501.0 0.001996 495.26276 537.95190
503.0 0.001988 495.35162 538.61139
484.0 0.002066 495.44086 539.30200
501.0 0.001996 495.53015 540.02527
500.0 0.002000 495.61957 540.78351
489.0 0.002045 495.70932 541.57788
491.0 0.002037 495.79926 542.41077
488.0 0.002049 495.88950 543.28485
513.0 0.001949 495.97989 544.20221
509.0 0.001965 496.07040 545.16602
506.0 0.001976 496.16138 546.17957
500.0 0.002000 496.25238 547.24585
511.0 0.001957 496.34363 548.36908
508.0 0.001969 496.43500 549.55322
498.0 0.002008 496.52652 550.80255
504.0 0.001984 496.61847 552.12262
496.0 0.002016 496.71042 553.51801
486.0 0.002058 496.80249 554.99475
511.0 0.001957 496.89493 556.55920
511.0 0.001957 496.98727 558.21777
531.0 0.001883 497.08008 559.97754
541.0 0.001848 497.17313 561.84668
540.0 0.001852 497.26611 563.83295
536.0 0.001866 497.35944 565.94531
521.0 0.001919 497.45282 568.19275
523.0 0.001912 497.54639 570.58545
540.0 0.001852 497.64026 573.13379
593.0 0.001686 497.73419 575.84863
571.0 0.001751 497.82819 578.74176
584.0 0.001712 497.92245 581.82501
561.0 0.001783 498.01672 585.11115
571.0 0.001751 498.11139 588.61298
547.0 0.001828 498.20615 592.34473
566.0 0.001767 498.30093 596.31976
571.0 0.001751 498.39587 600.57471
568.0 0.001761 498.49115 605.08081
580.0 0.001724 498.58643 609.87469
575.0 0.001739 498.68195 614.97174
584.0 0.001712 498.77744 620.38727
597.0 0.001675 498.87308 626.13672
595.0 0.001681 498.96912 632.23572
582.0 0.001718 499.06488 638.69916
580.0 0.001724 499.16089 645.54236
610.0 0.001639 499.25729 652.78009
613.0 0.001631 499.35352 660.42590
631.0 0.001585 499.44998 668.49396
658.0 0.001520 499.54660 676.99689
680.0 0.001471 499.64319 685.94604
679.0 0.001473 499.74008 695.35284
671.0 0.001490 499.83688 705.22656
680.0 0.001471 499.93384 715.57520
684.0 0.001462 500.03104 726.40594
717.0 0.001395 500.12820 737.72308
724.0 0.001381 500.22546 749.53009
748.0 0.001337 500.32300 761.82764
764.0 0.001309 500.42029 774.61517
767.0 0.001304 500.51785 787.88867
780.0 0.001282 500.61554 801.64203
770.0 0.001299 500.71326 815.86615
831.0 0.001203 500.81100 830.54926
829.0 0.001206 500.90894 845.67609
842.0 0.001188 501.00696 861.22815
872.0 0.001147 501.10501 877.18372
941.0 0.001063 501.20303 893.51599
903.0 0.001107 501.30112 910.19519
917.0 0.001091 501.39944 927.18701
928.0 0.001078 501.49762 944.45209
947.0 0.001056 501.59598 961.94598
945.0 0.001058 501.69437 979.61975
980.0 0.001020 501.79272 997.41846
1031.0 0.000970 501.89120 1015.28143
1082.0 0.000924 501.98981 1033.14197
1100.0 0.000909 502.08832 1050.92700
1131.0 0.000884 502.18704 1068.55811
1097.0 0.000912 502.28561 1085.94910
1119.0 0.000894 502.38428 1103.00952
1185.0 0.000844 502.48300 1119.64209
1290.0 0.000775 502.58170 1135.74377
1294.0 0.000773 502.68042 1151.20886
1320.0 0.000758 502.77927 1165.92725
1302.0 0.000768 502.87787 1179.78687
1320.0 0.000758 502.97675 1192.67688
1340.0 0.000746 503.07556 1204.48645
1377.0 0.000726 503.17432 1215.11011
1392.0 0.000718 503.27310 1224.44824
1438.0 0.000695 503.37204 1232.40991
1430.0 0.000699 503.47079 1238.91479
1509.0 0.000663 503.56967 1243.89722
1524.0 0.000656 503.66846 1247.30591
1494.0 0.000669 503.76715 1249.10596
1447.0 0.000691 503.86609 1249.28125
1460.0 0.000685 503.96475 1247.83301
1461.0 0.000684 504.06332 1244.78064
1466.0 0.000682 504.16208 1240.16211
1488.0 0.000672 504.26074 1234.02979
1521.0 0.000657 504.35938 1226.45068
1513.0 0.000661 504.45810 1217.50635
1447.0 0.000691 504.55661 1207.28577
1389.0 0.000720 504.65512 1195.88843
1402.0 0.000713 504.75366 1183.41785
1410.0 0.000709 504.85202 1169.98132
1382.0 0.000724 504.95047 1155.68909
1318.0 0.000759 505.04889 1140.64868
1298.0 0.000770 505.14713 1124.96790
1255.0 0.000797 505.24536 1108.75098
1210.0 0.000826 505.34341 1092.09790
1165.0 0.000858 505.44147 1075.10388
1169.0 0.000855 505.53955 1057.86023
1145.0 0.000873 505.63748 1040.45068
1125.0 0.000889 505.73529 1022.95428
1121.0 0.000892 505.83316 1005.44458
1080.0 0.000926 505.93073 987.98779
1057.0 0.000946 506.02841 970.64642
983.0 0.001017 506.12592 953.47559
966.0 0.001035 506.22336 936.52643
919.0 0.001088 506.32077 919.84448
888.0 0.001126 506.41797 903.46973
882.0 0.001134 506.51489 887.43896
883.0 0.001133 506.61203 871.78351
902.0 0.001109 506.70895 856.53033
863.0 0.001159 506.80566 841.70410
812.0 0.001232 506.90234 827.32379
847.0 0.001181 506.99899 813.40631
802.0 0.001247 507.09540 799.96490
754.0 0.001326 507.19171 787.00940
707.0 0.001414 507.28790 774.54742
712.0 0.001404 507.38397 762.58344
688.0 0.001453 507.47971 751.11981
669.0 0.001495 507.57538 740.15619
668.0 0.001497 507.67117 729.69110
634.0 0.001577 507.76654 719.71918
631.0 0.001585 507.86194 710.56982
653.0 0.001531 507.95703 701.56781
626.0 0.001597 508.05191 693.03699
622.0 0.001608 508.14673 684.96704
616.0 0.001623 508.24155 677.34692
609.0 0.001642 508.33585 670.16364
599.0 0.001669 508.43039 663.40454
594.0 0.001684 508.52441 657.05499
603.0 0.001658 508.61835 651.10071
583.0 0.001715 508.71222 645.52692
589.0 0.001698 508.80576 640.31757
602.0 0.001661 508.89902 635.45770
612.0 0.001634 508.99231 630.93146
576.0 0.001736 509.08533 626.72314
587.0 0.001704 509.17807 622.81683
595.0 0.001681 509.27075 619.19714
596.0 0.001678 509.36307 615.84845
596.0 0.001678 509.45529 612.75592
583.0 0.001715 509.54727 609.90460
571.0 0.001751 509.63895 607.27979
569.0 0.001757 509.73056 604.86798
560.0 0.001786 509.82184 602.65460
554.0 0.001805 509.91281 600.62701
548.0 0.001825 510.00372 598.77228
539.0 0.001855 510.09424 597.07788
554.0 0.001805 510.18451 595.53174
564.0 0.001773 510.27478 594.12286
573.0 0.001745 510.36453 592.83966
566.0 0.001767 510.45404 591.67200
546.0 0.001832 510.54349 590.61017
539.0 0.001855 510.63242 589.64417
538.0 0.001859 510.72144 588.76538
552.0 0.001812 510.80988 587.96521
555.0 0.001802 510.89816 587.23590
555.0 0.001802 510.98627 586.57050
550.0 0.001818 511.07394 585.96204
546.0 0.001832 511.16135 585.40479
516.0 0.001938 511.24863 584.89374
541.0 0.001848 511.33545 584.42438
568.0 0.001761 511.42197 583.99310
536.0 0.001866 511.50833 583.59723
527.0 0.001898 511.59424 583.23468
549.0 0.001821 511.68005 582.90424
546.0 0.001832 511.76550 582.60535
548.0 0.001825 511.85049 582.33862
557.0 0.001795 511.93533 582.10510
560.0 0.001786 512.01978 581.90588
540.0 0.001852 512.10382 581.74341
540.0 0.001852 512.18774 581.62079
543.0 0.001842 512.27124 581.54004
549.0 0.001821 512.35431 581.50537
548.0 0.001825 512.43707 581.52026
563.0 0.001776 512.51953 581.58759
543.0 0.001842 512.60175 581.71191
561.0 0.001783 512.68353 581.89685
567.0 0.001764 512.76483 582.14587
546.0 0.001832 512.84601 582.46301
547.0 0.001828 512.92682 582.85144
553.0 0.001808 513.00708 583.31470
517.0 0.001934 513.08716 583.85583
535.0 0.001869 513.16675 584.47778
533.0 0.001876 513.24603 585.18341
535.0 0.001869 513.32489 585.97504
554.0 0.001805 513.40338 586.85455
534.0 0.001873 513.48151 587.82410
527.0 0.001898 513.55933 588.88501
525.0 0.001905 513.63672 590.03790
518.0 0.001931 513.71368 591.28400
536.0 0.001866 513.79022 592.62372
534.0 0.001873 513.86633 594.05627
527.0 0.001898 513.94232 595.58173
532.0 0.001880 514.01752 597.19855
534.0 0.001873 514.09235 598.90546
544.0 0.001838 514.16699 600.70013
532.0 0.001880 514.24115 602.57990
557.0 0.001795 514.31482 604.54138
560.0 0.001786 514.38812 606.58081
560.0 0.001786 514.46094 608.69348
563.0 0.001776 514.53333 610.87384
558.0 0.001792 514.60541 613.11664
551.0 0.001815 514.67688 615.41412
565.0 0.001770 514.74799 617.75940
554.0 0.001805 514.81873 620.14380
556.0 0.001799 514.88879 622.55817
549.0 0.001821 514.95862 624.99286
547.0 0.001828 515.02789 627.43695
563.0 0.001776 515.09668 629.87964
566.0 0.001767 515.16510 632.30884
586.0 0.001706 515.23309 634.71210
604.0 0.001656 515.30048 637.07751
589.0 0.001698 515.36749 639.39227
610.0 0.001639 515.43390 641.64404
603.0 0.001658 515.50000 643.82141
585.0 0.001709 515.56543 645.91211
601.0 0.001664 515.63043 647.90625
590.0 0.001695 515.69501 649.79486
591.0 0.001692 515.75909 651.56921
575.0 0.001739 515.82257 653.22266
630.0 0.001587 515.88580 654.75049
634.0 0.001577 515.94812 656.14825
626.0 0.001597 516.01019 657.41437
655.0 0.001527 516.07178 658.54718
634.0 0.001577 516.13287 659.54700
606.0 0.001650 516.19330 660.41479
636.0 0.001572 516.25317 661.15259
626.0 0.001597 516.31274 661.76184
639.0 0.001565 516.37164 662.24567
645.0 0.001550 516.42993 662.60547
626.0 0.001597 516.48773 662.84418
638.0 0.001567 516.54504 662.96307
633.0 0.001580 516.60193 662.96332
628.0 0.001592 516.65814 662.84656
637.0 0.001570 516.71381 662.61316
661.0 0.001513 516.76892 662.26306
673.0 0.001486 516.82336 661.94379
673.0 0.001486 516.87744 661.36316
726.0 0.001377 516.93091 660.66785
717.0 0.001395 516.98383 659.85913
677.0 0.001477 517.03613 658.93817
676.0 0.001479 517.08789 657.90894
661.0 0.001513 517.13904 656.77472
648.0 0.001543 517.18964 655.54065
705.0 0.001418 517.23956 654.21332
714.0 0.001401 517.28894 652.80029
711.0 0.001406 517.33789 651.31036
696.0 0.001437 517.38611 649.51642
678.0 0.001475 517.43396 647.90485
656.0 0.001524 517.48090 646.25128
685.0 0.001460 517.52722 644.56396
698.0 0.001433 517.57312 642.85828
675.0 0.001481 517.61841 641.14691
666.0 0.001502 517.66309 639.44318
649.0 0.001541 517.70697 637.75977
648.0 0.001543 517.75024 636.10974
674.0 0.001484 517.79321 634.50507
693.0 0.001443 517.83539 632.95740
665.0 0.001504 517.87695 631.47754
657.0 0.001522 517.91803 630.07593
636.0 0.001572 517.95825 628.76160
634.0 0.001577 517.99780 627.54346
644.0 0.001553 518.03687 626.42950
669.0 0.001495 518.07526 625.42609
652.0 0.001534 518.11292 624.54004
651.0 0.001536 518.15015 623.77606
638.0 0.001567 518.18646 623.13965
649.0 0.001541 518.22235 622.63379
663.0 0.001508 518.25739 622.26233
639.0 0.001565 518.29187 622.02704
648.0 0.001543 518.32587 621.93011
650.0 0.001538 518.35895 621.97241
643.0 0.001555 518.39142 622.15399
630.0 0.001587 518.42328 622.47522
611.0 0.001637 518.45441 622.93433
618.0 0.001618 518.48474 623.73853
614.0 0.001629 518.51459 624.46954
647.0 0.001546 518.54382 625.33197
625.0 0.001600 518.57233 626.32202
601.0 0.001664 518.60010 627.43567
602.0 0.001661 518.62714 628.66742
678.0 0.001475 518.65344 630.01196
655.0 0.001527 518.67914 631.46240
662.0 0.001511 518.70416 633.01196
678.0 0.001475 518.72845 634.65222
643.0 0.001555 518.75195 636.37427
619.0 0.001616 518.77496 638.17572
627.0 0.001595 518.79718 640.03131
644.0 0.001553 518.81866 641.93665
697.0 0.001435 518.83948 643.87988
721.0 0.001387 518.85944 645.84698
669.0 0.001495 518.87878 647.82391
653.0 0.001531 518.89734 649.79535
668.0 0.001497 518.91522 651.74506
659.0 0.001517 518.93243 653.65686
660.0 0.001515 518.94891 655.51300
656.0 0.001524 518.96460 657.29559
669.0 0.001495 518.97968 658.98651
663.0 0.001508 518.99390 660.56793
644.0 0.001553 519.00732 662.02179
717.0 0.001395 519.02026 663.33105
703.0 0.001422 519.03229 664.47876
721.0 0.001387 519.04358 665.45020
715.0 0.001399 519.05414 666.23163
713.0 0.001403 519.06390 666.81158
689.0 0.001451 519.07300 667.18079
694.0 0.001441 519.08136 667.33173
727.0 0.001376 519.08899 667.26068
739.0 0.001353 519.09570 666.96594
742.0 0.001348 519.10181 666.44904
751.0 0.001332 519.10712 665.71387
751.0 0.001332 519.11157 664.76685
764.0 0.001309 519.11548 663.61786
729.0 0.001372 519.11847 662.27777
735.0 0.001361 519.12067 660.75958
737.0 0.001357 519.12213 659.07813
715.0 0.001399 519.12286 657.24933
777.0 0.001287 519.12286 655.28979
759.0 0.001318 519.12195 653.21704
735.0 0.001361 519.12036 651.04791
702.0 0.001425 519.11792 648.80060
675.0 0.001481 519.11475 646.49170
650.0 0.001538 519.11084 644.13861
673.0 0.001486 519.10602 641.75739
673.0 0.001486 519.10046 639.36395
665.0 0.001504 519.09430 636.97296
639.0 0.001565 519.08722 634.59851
641.0 0.001560 519.07928 632.25488
649.0 0.001541 519.07062 629.95422
641.0 0.001560 519.06104 627.70898
663.0 0.001508 519.05078 625.53009
641.0 0.001560 519.03967 623.42841
646.0 0.001548 519.02783 621.41443
633.0 0.001580 519.01520 619.49695
614.0 0.001629 519.00177 617.68542
650.0 0.001538 518.98737 615.98785
649.0 0.001541 518.97235 614.41223
683.0 0.001464 518.95654 612.96588
627.0 0.001595 518.93982 611.65601
603.0 0.001658 518.92218 610.48877
607.0 0.001647 518.90399 609.47009
588.0 0.001701 518.88483 608.60608
578.0 0.001730 518.86493 607.90149
571.0 0.001751 518.84418 607.36145
583.0 0.001715 518.82263 606.98987
587.0 0.001704 518.80023 606.79120
607.0 0.001647 518.77704 606.76825
640.0 0.001563 518.75317 606.92468
651.0 0.001536 518.72821 607.26263
642.0 0.001558 518.70264 607.78455
643.0 0.001555 518.67609 608.49146
609.0 0.001642 518.64874 609.38452
604.0 0.001656 518.62073 610.46503
612.0 0.001634 518.59167 611.73212
583.0 0.001715 518.56201 613.18549
598.0 0.001672 518.53131 614.82410
583.0 0.001715 518.50000 616.64587
614.0 0.001629 518.46771 618.64825
603.0 0.001658 518.43463 620.82837
583.0 0.001715 518.40070 623.18213
594.0 0.001684 518.36597 625.70508
617.0 0.001621 518.33044 628.39227
610.0 0.001639 518.29401 631.23682
616.0 0.001623 518.25690 634.23224
627.0 0.001595 518.21875 637.37067
625.0 0.001600 518.17993 640.64337
640.0 0.001563 518.14020 644.04077
665.0 0.001504 518.09955 647.55188
661.0 0.001513 518.05823 651.16693
667.0 0.001499 518.01611 654.86951
667.0 0.001499 517.97290 658.64709
660.0 0.001515 517.92896 662.48499
646.0 0.001548 517.88434 666.36639
649.0 0.001541 517.83875 670.27344
700.0 0.001429 517.79230 674.18689
693.0 0.001443 517.74512 678.08630
692.0 0.001445 517.69702 681.94983
681.0 0.001468 517.64819 685.75470
728.0 0.001374 517.59827 689.47650
700.0 0.001429 517.54773 693.09039
699.0 0.001431 517.49646 696.57013
699.0 0.001431 517.44403 699.88989
688.0 0.001453 517.39099 703.02319
689.0 0.001451 517.33710 705.94427
683.0 0.001464 517.28229 708.62823
707.0 0.001414 517.22662 711.05164
732.0 0.001366 517.17029 713.19318
749.0 0.001335 517.11292 715.03400
749.0 0.001335 517.05481 716.55872
752.0 0.001330 516.99579 717.75549
769.0 0.001300 516.93610 718.61676
732.0 0.001366 516.87549 719.13867
759.0 0.001318 516.81396 719.32239
732.0 0.001366 516.75171 719.17328
730.0 0.001370 516.68860 718.70111
749.0 0.001335 516.62457 717.91956
759.0 0.001318 516.55981 716.20776
772.0 0.001295 516.49420 714.86407
752.0 0.001330 516.42761 713.27063
759.0 0.001318 516.36041 711.45184
748.0 0.001337 516.29224 709.43396
705.0 0.001418 516.22327 707.24207
724.0 0.001381 516.15363 704.90344
727.0 0.001376 516.08295 702.44305
764.0 0.001309 516.01154 699.88684
741.0 0.001350 515.93927 697.25842
726.0 0.001377 515.86609 694.58057
727.0 0.001376 515.79218 691.87396
739.0 0.001353 515.71753 689.15924
732.0 0.001366 515.64191 686.45258
730.0 0.001370 515.56555 683.77094
707.0 0.001414 515.48840 681.12775
718.0 0.001393 515.41028 678.53583
730.0 0.001370 515.33148 676.00482
711.0 0.001406 515.25177 673.54364
706.0 0.001416 515.17139 671.15942
688.0 0.001453 515.09003 668.85699
713.0 0.001403 515.00793 666.63983
694.0 0.001441 514.92511 664.50964
694.0 0.001441 514.84137 662.46674
680.0 0.001471 514.75684 660.50964
652.0 0.001534 514.67151 658.63568
657.0 0.001522 514.58533 656.84009
689.0 0.001451 514.49841 655.11743
662.0 0.001511 514.41071 653.46051
655.0 0.001527 514.32214 651.86102
639.0 0.001565 514.23273 650.30969
700.0 0.001429 514.14264 648.79651
673.0 0.001486 514.05157 647.31036
627.0 0.001595 513.95984 645.83997
651.0 0.001536 513.86737 644.37366
641.0 0.001560 513.77399 642.89984
676.0 0.001479 513.67987 641.40686
660.0 0.001515 513.58502 639.88446
626.0 0.001597 513.48926 638.32214
619.0 0.001616 513.39288 636.71118
623.0 0.001605 513.29572 635.04395
653.0 0.001531 513.19763 633.31409
627.0 0.001595 513.09882 631.51733
630.0 0.001587 512.99921 629.65063
656.0 0.001524 512.89886 627.71307
647.0 0.001546 512.79785 625.70490
632.0 0.001582 512.69592 623.62799
648.0 0.001543 512.59320 621.48596
648.0 0.001543 512.48993 619.28363
656.0 0.001524 512.38562 617.02588
648.0 0.001543 512.28082 614.72015
649.0 0.001541 512.17511 612.37305
640.0 0.001563 512.06866 609.99188
645.0 0.001550 511.96161 607.58441
639.0 0.001565 511.85373 605.15833
618.0 0.001618 511.74487 602.72095
605.0 0.001653 511.63565 600.27991
605.0 0.001653 511.52539 597.84192
594.0 0.001684 511.41458 595.41382
612.0 0.001634 511.30301 593.00171
590.0 0.001695 511.19058 590.61121
626.0 0.001597 511.07758 588.24817
605.0 0.001653 510.96387 585.91669
605.0 0.001653 510.84933 583.62140
595.0 0.001681 510.73413 581.36639
555.0 0.001802 510.61829 579.15503
541.0 0.001848 510.50159 576.99017
550.0 0.001818 510.38419 574.87506
556.0 0.001799 510.26602 572.81195
567.0 0.001764 510.14740 570.80322
563.0 0.001776 510.02805 568.85004
547.0 0.001828 509.90778 566.95422
550.0 0.001818 509.78699 565.11725
539.0 0.001855 509.66550 563.33978
552.0 0.001812 509.54318 561.62244
563.0 0.001776 509.42041 559.96619
548.0 0.001825 509.29700 558.37122
529.0 0.001890 509.17261 556.83740
521.0 0.001919 509.04782 555.36505
514.0 0.001946 508.92227 553.95392
519.0 0.001927 508.79602 552.60345
511.0 0.001957 508.66916 551.31360
501.0 0.001996 508.54153 550.08319
495.0 0.002020 508.41342 548.91211
513.0 0.001949 508.28470 547.79950
515.0 0.001942 508.15521 546.74377
528.0 0.001894 508.02518 545.74493
510.0 0.001961 507.89450 544.80151
510.0 0.001961 507.76306 543.91254
543.0 0.001842 507.63116 543.07684
537.0 0.001862 507.49878 542.29346
528.0 0.001894 507.36533 541.56122
531.0 0.001883 507.23163 540.87952
527.0 0.001898 507.09717 540.24628
546.0 0.001832 506.96213 539.66150
511.0 0.001957 506.82669 539.12396
503.0 0.001988 506.69034 538.63226
521.0 0.001919 506.55362 538.18616
537.0 0.001862 506.41635 537.78473
548.0 0.001825 506.27829 537.42682
520.0 0.001923 506.13995 537.11255
511.0 0.001957 506.00098 536.84088
509.0 0.001965 505.86105 536.61133
504.0 0.001984 505.72095 536.42426
513.0 0.001949 505.58038 536.27930
524.0 0.001908 505.43890 536.17609
507.0 0.001972 505.29718 536.11511
515.0 0.001942 505.15463 536.09631
515.0 0.001942 505.01184 536.12036
541.0 0.001848 504.86844 536.18768
553.0 0.001808 504.72437 536.29883
539.0 0.001855 504.57996 536.45490
536.0 0.001866 504.43503 537.00562
513.0 0.001949 504.28940 537.25537
514.0 0.001946 504.14359 537.55347
497.0 0.002012 503.99716 537.90076
506.0 0.001976 503.85004 538.29913
507.0 0.001972 503.70264 538.75037
504.0 0.001984 503.55463 539.25586
529.0 0.001890 503.40637 539.81799
574.0 0.001742 503.25760 540.43866
532.0 0.001880 503.10803 541.11963
534.0 0.001873 502.95834 541.86389
526.0 0.001901 502.80817 542.67322
512.0 0.001953 502.65744 543.55023
520.0 0.001923 502.50635 544.49738
512.0 0.001953 502.35492 545.51727
527.0 0.001898 502.20276 546.61224
526.0 0.001901 502.05042 547.78503
541.0 0.001848 501.89774 549.03845
538.0 0.001859 501.74442 550.37421
514.0 0.001946 501.59088 551.79541
522.0 0.001916 501.43677 553.30432
541.0 0.001848 501.28244 554.90302
550.0 0.001818 501.12778 556.59369
553.0 0.001808 500.97238 558.37799
536.0 0.001866 500.81699 560.25787
526.0 0.001901 500.66125 562.23474
535.0 0.001869 500.50482 564.30939
544.0 0.001838 500.34836 566.09711
548.0 0.001825 500.19144 568.37238
547.0 0.001828 500.03406 569.82550
543.0 0.001842 499.87662 572.50592
556.0 0.001799 499.71851 575.08392
556.0 0.001799 499.56042 577.75989
580.0 0.001724 499.40189 580.53247
559.0 0.001789 499.24289 583.39923
553.0 0.001808 499.08383 586.35864
564.0 0.001773 498.92456 589.40753
557.0 0.001795 498.76462 592.54248
582.0 0.001718 498.60480 595.76025
567.0 0.001764 498.44461 599.05646
599.0 0.001669 498.28397 602.42621
614.0 0.001629 498.12332 605.86517
644.0 0.001553 497.96237 609.36713
635.0 0.001575 497.80099 612.92584
632.0 0.001582 497.63968 616.53510
624.0 0.001603 497.47778 620.18695
632.0 0.001582 497.31595 623.87384
636.0 0.001572 497.15396 627.58649
638.0 0.001567 496.99146 631.31537
656.0 0.001524 496.82898 635.04962
637.0 0.001570 496.66635 638.77753
653.0 0.001531 496.50333 642.48608
683.0 0.001464 496.34042 646.16156
693.0 0.001443 496.17731 649.78815
678.0 0.001475 496.01382 653.34937
666.0 0.001502 495.85034 656.82733
691.0 0.001447 495.68655 660.20264
683.0 0.001464 495.52301 663.45526
683.0 0.001464 495.35910 666.56323
678.0 0.001475 495.19489 669.50415
698.0 0.001433 495.03079 672.25537
710.0 0.001408 494.86673 674.79364
742.0 0.001348 494.70215 677.09509
743.0 0.001346 494.53799 679.13818
749.0 0.001335 494.37354 680.90070
736.0 0.001359 494.20880 682.36237
758.0 0.001319 494.04428 683.50586
755.0 0.001325 493.87976 684.31555
763.0 0.001311 493.71497 684.77838
763.0 0.001311 493.55038 684.88605
755.0 0.001325 493.38528 684.63287
775.0 0.001290 493.22064 684.01813
782.0 0.001279 493.05591 683.04388
765.0 0.001307 492.89090 681.71625
768.0 0.001302 492.72629 680.04651
761.0 0.001314 492.56165 678.04749
781.0 0.001280 492.39682 675.73578
740.0 0.001351 492.23209 673.13159
728.0 0.001374 492.06757 670.25543
741.0 0.001350 491.90274 667.13031
726.0 0.001377 491.73831 663.78046
726.0 0.001377 491.57373 660.23029
700.0 0.001429 491.40942 656.50494
711.0 0.001406 491.24518 652.62848
705.0 0.001418 491.08081 648.62494
688.0 0.001453 490.91684 644.51788
680.0 0.001471 490.75281 640.32874
668.0 0.001497 490.58875 636.07867
661.0 0.001513 490.42523 631.78760
646.0 0.001548 490.26163 627.47375
675.0 0.001481 490.09805 623.15375
640.0 0.001563 489.93491 618.84393
631.0 0.001585 489.77188 614.55823
613.0 0.001631 489.60861 610.30945
626.0 0.001597 489.44601 606.11041
603.0 0.001658 489.28333 601.97052
578.0 0.001730 489.12103 597.90076
580.0 0.001724 488.95892 593.90924
585.0 0.001709 488.79688 590.00293
589.0 0.001698 488.63531 586.18976
587.0 0.001704 488.47391 582.47485
591.0 0.001692 488.31262 578.86340
559.0 0.001789 488.15164 575.36029
548.0 0.001825 487.99115 571.96875
570.0 0.001754 487.83063 568.69165
567.0 0.001764 487.67059 565.53180
533.0 0.001876 487.51071 562.49109
532.0 0.001880 487.35135 559.57117
560.0 0.001786 487.19223 556.77258
558.0 0.001792 487.03320 554.09583
544.0 0.001838 486.87482 551.51288
567.0 0.001764 486.71677 549.08063
544.0 0.001838 486.55884 546.76971
542.0 0.001845 486.40143 544.57977
534.0 0.001873 486.24457 542.50989
539.0 0.001855 486.08762 540.55798
552.0 0.001812 485.93155 538.72363
542.0 0.001845 485.77576 537.00531
547.0 0.001828 485.62018 535.40112
544.0 0.001838 485.46527 533.90967
521.0 0.001919 485.31058 532.52917
524.0 0.001908 485.15656 531.25854
522.0 0.001916 485.00299 530.09589
506.0 0.001976 484.84964 529.03912
504.0 0.001984 484.69693 528.08789
512.0 0.001953 484.54489 527.23975
513.0 0.001949 484.39297 526.49414
497.0 0.002012 484.24185 525.84955
493.0 0.002028 484.09122 525.30530
498.0 0.002008 483.94083 524.85999
503.0 0.001988 483.79126 524.51355
522.0 0.001916 483.64209 524.26483
507.0 0.001972 483.49359 524.11377
514.0 0.001946 483.34573 524.06006
506.0 0.001976 483.19821 524.10321
516.0 0.001938 483.05161 524.24365
517.0 0.001934 482.90533 524.48132
519.0 0.001927 482.75967 524.81616
545.0 0.001835 482.61487 525.24890
544.0 0.001838 482.47070 525.77954
550.0 0.001818 482.32675 526.40845
553.0 0.001808 482.18384 527.13635
556.0 0.001799 482.04144 527.96350
557.0 0.001795 481.89960 528.89014
552.0 0.001812 481.75870 529.91687
557.0 0.001795 481.61823 531.04395
566.0 0.001767 481.47882 532.27142
556.0 0.001799 481.33990 533.59937
580.0 0.001724 481.20166 535.02747
559.0 0.001789 481.06433 536.55579
552.0 0.001812 480.92761 538.18359
550.0 0.001818 480.79156 539.90979
540.0 0.001852 480.65656 541.73407
552.0 0.001812 480.52222 543.65430
598.0 0.001672 480.38846 545.66870
575.0 0.001739 480.25571 547.80103
582.0 0.001718 480.12369 549.99835
560.0 0.001786 479.99252 552.28284
547.0 0.001828 479.86224 554.65100
565.0 0.001770 479.73270 557.09882
572.0 0.001748 479.60410 559.62219
574.0 0.001742 479.47644 562.21606
563.0 0.001776 479.34930 565.78735
588.0 0.001701 479.22336 568.50867
597.0 0.001675 479.09830 571.28156
585.0 0.001709 478.97397 574.09827
586.0 0.001706 478.85080 576.95081
600.0 0.001667 478.72845 579.72900
584.0 0.001712 478.60687 582.62463
606.0 0.001650 478.48654 585.52600
604.0 0.001656 478.36694 588.42139
596.0 0.001678 478.24826 591.29865
612.0 0.001634 478.13086 594.14532
613.0 0.001631 478.01410 596.94727
628.0 0.001592 477.89871 599.69189
613.0 0.001631 477.78400 602.36487
598.0 0.001672 477.67050 604.95258
646.0 0.001548 477.55804 607.44208
640.0 0.001563 477.44650 609.82098
604.0 0.001656 477.33606 612.07739
605.0 0.001653 477.22681 614.20197
628.0 0.001592 477.11844 616.18604
629.0 0.001590 477.01132 618.02344
618.0 0.001618 476.90518 619.71002
627.0 0.001595 476.80023 621.24359
631.0 0.001585 476.69644 622.93988
620.0 0.001613 476.59363 624.17352
621.0 0.001610 476.49207 625.26270
649.0 0.001541 476.39166 626.21527
626.0 0.001597 476.29242 627.03986
602.0 0.001661 476.19415 627.74652
634.0 0.001577 476.09714 628.34729
631.0 0.001585 476.00168 628.85394
630.0 0.001587 475.90698 629.27893
663.0 0.001508 475.81372 629.63513
705.0 0.001418 475.72153 629.93427
715.0 0.001399 475.63077 630.18781
683.0 0.001464 475.54138 630.40686
662.0 0.001511 475.45279 630.60010
681.0 0.001468 475.36581 630.77655
643.0 0.001555 475.27994 630.94244
632.0 0.001582 475.19537 631.10321
668.0 0.001497 475.11212 631.26282
661.0 0.001513 475.03036 631.42310
659.0 0.001517 474.94962 631.58411
657.0 0.001522 474.87051 631.74518
664.0 0.001506 474.79233 631.90265
663.0 0.001508 474.71579 632.05237
662.0 0.001511 474.64072 632.18781
682.0 0.001466 474.56674 632.30084
700.0 0.001429 474.49426 632.38257
690.0 0.001449 474.42334 632.42236
680.0 0.001471 474.35352 632.40814
664.0 0.001506 474.28531 632.32782
669.0 0.001495 474.21848 632.16772
654.0 0.001529 474.15286 631.91412
644.0 0.001553 474.08905 631.55371
670.0 0.001493 474.02646 631.07306
668.0 0.001497 473.96545 630.45929
693.0 0.001443 473.90579 629.70093
698.0 0.001433 473.84763 628.78766
692.0 0.001445 473.79114 627.71112
685.0 0.001460 473.73593 626.46490
684.0 0.001462 473.68234 625.04443
704.0 0.001420 473.63028 623.44824
695.0 0.001439 473.57965 621.67664
693.0 0.001443 473.53073 619.73218
713.0 0.001403 473.48309 617.62048
680.0 0.001471 473.43732 615.34827
660.0 0.001515 473.39282 612.92499
675.0 0.001481 473.35016 610.36096
658.0 0.001520 473.30881 607.66833
649.0 0.001541 473.26926 604.85956
665.0 0.001504 473.23132 601.94806
643.0 0.001555 473.19501 598.94788
638.0 0.001567 473.16016 595.87311
649.0 0.001541 473.12714 592.73706
679.0 0.001473 473.09564 589.55328
675.0 0.001481 473.06592 586.33533
642.0 0.001558 473.03778 583.09485
631.0 0.001585 473.01120 579.84430
643.0 0.001555 472.98636 576.59406
634.0 0.001577 472.96335 573.35480
609.0 0.001642 472.94202 570.13593
599.0 0.001669 472.92224 566.94611
629.0 0.001590 472.90414 563.79327
633.0 0.001580 472.88800 560.68469
636.0 0.001572 472.87350 557.62689
596.0 0.001678 472.86066 554.62561
582.0 0.001718 472.84970 551.68616
585.0 0.001709 472.84039 548.81293
538.0 0.001859 472.83295 546.01001
537.0 0.001862 472.82730 543.28070
522.0 0.001916 472.82333 540.62836
502.0 0.001992 472.82117 538.05469
513.0 0.001949 472.82068 535.56238
512.0 0.001953 472.82217 533.15259
517.0 0.001934 472.82544 530.82654
524.0 0.001908 472.83057 528.58502
542.0 0.001845 472.83749 526.42871
528.0 0.001894 472.84619 524.35724
533.0 0.001876 472.85706 522.37061
513.0 0.001949 472.86935 520.46838
516.0 0.001938 472.88376 518.64966
533.0 0.001876 472.89996 516.91327
510.0 0.001961 472.91821 515.25830
512.0 0.001953 472.93820 513.68311
514.0 0.001946 472.96011 512.18646
486.0 0.002058 472.98389 510.76593
485.0 0.002062 473.00961 509.41986
498.0 0.002008 473.03726 508.14627
484.0 0.002066 473.06683 506.94302
476.0 0.002101 473.09827 505.80771
475.0 0.002105 473.13187 504.73819
478.0 0.002092 473.16724 503.73184
475.0 0.002105 473.20453 502.78653
469.0 0.002132 473.24384 501.89981
476.0 0.002101 473.28519 501.06906
480.0 0.002083 473.32840 500.29178
509.0 0.001965 473.37360 499.56613
502.0 0.001992 473.42084 498.88910
495.0 0.002020 473.47003 498.25873
490.0 0.002041 473.52118 497.67252
491.0 0.002037 473.57452 497.12842
501.0 0.001996 473.62985 496.62393
504.0 0.001984 473.68695 496.15710
476.0 0.002101 473.74622 495.72607
499.0 0.002004 473.80762 495.32864
483.0 0.002070 473.87094 494.96274
484.0 0.002066 473.93619 494.62720
490.0 0.002041 474.00385 494.31955
474.0 0.002110 474.07330 494.03851
471.0 0.002123 474.14481 493.78223
470.0 0.002128 474.21838 493.54971
466.0 0.002146 474.29404 493.33899
453.0 0.002208 474.37192 493.14908
453.0 0.002208 474.45175 492.97839
473.0 0.002114 474.53354 492.82593
457.0 0.002188 474.61768 492.69080
457.0 0.002188 474.70370 492.57120
475.0 0.002105 474.79187 492.46646
462.0 0.002165 474.88245 492.37595
458.0 0.002183 474.97479 492.29843
472.0 0.002119 475.06931 492.23312
464.0 0.002155 475.16617 492.17914
453.0 0.002208 475.26474 492.13611
451.0 0.002217 475.36575 492.10269
443.0 0.002257 475.46875 492.07855
446.0 0.002242 475.57379 492.06305
457.0 0.002188 475.68121 492.05576
467.0 0.002141 475.79062 492.05591
451.0 0.002217 475.90228 492.06305
462.0 0.002165 476.01608 492.07693
465.0 0.002151 476.13177 492.09671
472.0 0.002119 476.24976 492.12253
488.0 0.002049 476.37003 492.15384
485.0 0.002062 476.49243 492.19040
492.0 0.002033 476.61685 492.23172
471.0 0.002123 476.74384 492.27808
471.0 0.002123 476.87247 492.32895
470.0 0.002128 477.00372 492.38467
463.0 0.002160 477.13687 492.44452
473.0 0.002114 477.27209 492.50888
462.0 0.002165 477.40991 492.57800
473.0 0.002114 477.54950 492.65097
474.0 0.002110 477.69138 492.45258
470.0 0.002128 477.83545 492.53586
478.0 0.002092 477.98157 492.62329
490.0 0.002041 478.13010 492.71533
475.0 0.002105 478.28085 492.81216
480.0 0.002083 478.43359 492.91339
479.0 0.002088 478.58875 493.01971
486.0 0.002058 478.74606 493.13049
479.0 0.002088 478.90524 493.24606
491.0 0.002037 479.06708 493.36676
494.0 0.002024 479.23077 493.49249
487.0 0.002053 479.39664 493.62320
493.0 0.002028 479.56500 493.75885
488.0 0.002049 479.73538 493.61865
485.0 0.002062 479.90778 493.76581
483.0 0.002070 480.08267 493.91824
471.0 0.002123 480.25955 494.07571
467.0 0.002141 480.43851 494.23840
470.0 0.002128 480.62000 494.40683
492.0 0.002033 480.80344 494.58005
483.0 0.002070 480.98926 494.75891
475.0 0.002105 481.17697 494.94281
470.0 0.002128 481.36703 495.13226
477.0 0.002096 481.55957 495.32718
478.0 0.002092 481.75381 495.52734
467.0 0.002141 481.95029 495.73279
462.0 0.002165 482.14944 495.94382
465.0 0.002151 482.35016 496.16034
470.0 0.002128 482.55322 496.38190
476.0 0.002101 482.75882 496.60941
473.0 0.002114 482.96622 496.84213
473.0 0.002114 483.17603 497.08038
494.0 0.002024 483.38776 497.32397
501.0 0.001996 483.60159 497.57278
520.0 0.001923 483.81802 497.82721
513.0 0.001949 484.03629 498.08710
505.0 0.001980 484.25644 498.35239
515.0 0.001942 484.47931 498.62338
504.0 0.001984 484.70404 498.89954
500.0 0.002000 484.93069 499.18106
500.0 0.002000 485.16006 499.46857
492.0 0.002033 485.39114 499.76123
503.0 0.001988 485.62424 500.05930
489.0 0.002045 485.85983 500.36325
470.0 0.002128 486.09729 500.67245
469.0 0.002132 486.33713 500.98743
475.0 0.002105 486.57883 501.30771
498.0 0.002008 486.82263 501.63367
484.0 0.002066 487.06885 501.96564
488.0 0.002049 487.31683 502.30273
499.0 0.002004 487.56662 502.64578
480.0 0.002083 487.81915 502.99475
483.0 0.002070 488.07343 503.34912
484.0 0.002066 488.32956 503.70935
481.0 0.002079 488.58832 504.07596
473.0 0.002114 488.84854 504.44656
485.0 0.002062 489.11136 504.82510
485.0 0.002062 489.37585 505.20920
487.0 0.002053 489.64240 505.59973
474.0 0.002110 489.91122 505.99686
475.0 0.002105 490.18179 506.25635
463.0 0.002160 490.45425 506.66641
467.0 0.002141 490.72946 507.08359
461.0 0.002169 491.00589 507.50714
481.0 0.002079 491.28430 507.93759
485.0 0.002062 491.56537 508.37524
498.0 0.002008 491.84769 508.81992
488.0 0.002049 492.13220 509.27200
473.0 0.002114 492.41895 509.73190
482.0 0.002075 492.70734 510.19934
517.0 0.001934 492.99792 510.67526
509.0 0.001965 493.29025 511.15878
499.0 0.002004 493.58414 511.65115
480.0 0.002083 493.88055 512.15253
477.0 0.002096 494.17841 512.66278
482.0 0.002075 494.47824 513.18280
476.0 0.002101 494.78046 513.71295
483.0 0.002070 495.08386 514.25317
495.0 0.002020 495.38919 514.80432
486.0 0.002058 495.69684 515.36700
495.0 0.002020 496.00598 515.94116
495.0 0.002020 496.31726 516.52838
519.0 0.001927 496.62982 517.12823
511.0 0.001957 496.94415 517.74188
483.0 0.002070 497.26077 518.37054
490.0 0.002041 497.57880 519.01404
481.0 0.002079 497.89862 519.67371
494.0 0.002024 498.22055 520.35095
490.0 0.002041 498.54373 521.04590
492.0 0.002033 498.86874 521.75964
481.0 0.002079 499.19562 522.49451
516.0 0.001938 499.52402 523.25024
512.0 0.001953 499.85391 524.02863
492.0 0.002033 500.18628 524.83142
503.0 0.001988 500.51947 525.65955
492.0 0.002033 500.85489 526.51508
500.0 0.002000 501.19150 527.39850
503.0 0.001988 501.52948 528.31250
477.0 0.002096 501.86972 529.25885
484.0 0.002066 502.21103 530.23846
467.0 0.002141 502.55392 531.34399
485.0 0.002062 502.89893 532.39838
489.0 0.002045 503.24469 533.49213
489.0 0.002045 503.59216 534.62775
497.0 0.002012 503.94168 535.80823
486.0 0.002058 504.29193 537.03503
503.0 0.001988 504.64432 538.31085
509.0 0.001965 504.99765 539.63776
491.0 0.002037 505.35229 541.01849
497.0 0.002012 505.70901 542.45575
504.0 0.001984 506.06647 543.95148
518.0 0.001931 506.42529 545.50818
508.0 0.001969 506.78616 547.12921
524.0 0.001908 507.14777 548.81635
517.0 0.001934 507.51074 550.57257
517.0 0.001934 507.87540 552.40063
551.0 0.001815 508.24094 554.30219
564.0 0.001773 508.60754 556.45367
534.0 0.001873 508.97604 558.54877
512.0 0.001953 509.34531 560.68665
511.0 0.001957 509.71619 562.90839
524.0 0.001908 510.08774 565.21503
527.0 0.001898 510.46063 567.60864
517.0 0.001934 510.83502 570.09198
514.0 0.001946 511.20975 572.66541
530.0 0.001887 511.58606 575.33063
539.0 0.001855 511.96368 578.09033
538.0 0.001859 512.34198 580.94409
523.0 0.001912 512.72107 583.89301
517.0 0.001934 513.10193 586.93890
523.0 0.001912 513.48322 590.08087
540.0 0.001852 513.86591 593.31958
535.0 0.001869 514.24908 596.65466
557.0 0.001795 514.63330 600.08533
576.0 0.001736 515.01862 603.61182
566.0 0.001767 515.40454 607.23181
569.0 0.001757 515.79138 610.94373
562.0 0.001779 516.17938 614.74646
552.0 0.001812 516.56781 618.63599
607.0 0.001647 516.95685 622.60974
592.0 0.001689 517.34735 626.66504
584.0 0.001712 517.73798 630.79596
595.0 0.001681 518.12927 634.99835
609.0 0.001642 518.52185 639.26703
603.0 0.001658 518.91443 643.59454
583.0 0.001715 519.30835 647.97546
591.0 0.001692 519.70239 652.40027
624.0 0.001603 520.09674 656.86176
636.0 0.001572 520.49243 661.35077
669.0 0.001495 520.88794 665.85687
684.0 0.001462 521.28412 670.37054
687.0 0.001456 521.68103 674.88135
702.0 0.001425 522.07806 679.37769
669.0 0.001495 522.47552 683.84930
669.0 0.001495 522.87372 688.28619
688.0 0.001453 523.27216 692.67688
671.0 0.001490 523.67120 697.01337
685.0 0.001460 524.06995 701.28613
735.0 0.001361 524.46906 705.48810
718.0 0.001393 524.86890 709.61450
712.0 0.001404 525.26855 713.65991
734.0 0.001362 525.66833 717.63171
756.0 0.001323 526.06891 721.51202
748.0 0.001337 526.46912 725.31055
748.0 0.001337 526.86914 729.03033
732.0 0.001366 527.27008 732.67767
723.0 0.001383 527.67029 736.25793
779.0 0.001284 528.07050 739.77887
746.0 0.001340 528.47150 743.24976
752.0 0.001330 528.87201 746.67896
749.0 0.001335 529.27240 750.07672
775.0 0.001290 529.67267 753.45154
748.0 0.001337 530.07269 756.81262
745.0 0.001342 530.47308 760.16907
760.0 0.001316 530.87280 763.52625
774.0 0.001292 531.27197 766.89081
777.0 0.001287 531.67169 770.26758
799.0 0.001252 532.07037 773.65741
798.0 0.001253 532.46899 777.06171
801.0 0.001248 532.86774 780.47937
787.0 0.001271 533.26544 783.90552
776.0 0.001289 533.66327 787.33563
759.0 0.001318 534.06012 790.75977
780.0 0.001282 534.45660 794.16827
803.0 0.001245 534.85284 797.54865
810.0 0.001235 535.24823 800.88464
819.0 0.001221 535.64270 804.15900
842.0 0.001188 536.03748 807.35291
857.0 0.001167 536.43097 810.44305
860.0 0.001163 536.82349 813.40784
855.0 0.001170 537.21619 816.22144
861.0 0.001161 537.60730 818.85779
859.0 0.001164 537.99762 821.29059
884.0 0.001131 538.38788 823.49365
932.0 0.001073 538.77655 825.43903
917.0 0.001091 539.16492 827.10266
887.0 0.001127 539.55170 828.45935
967.0 0.001034 539.93750 829.48792
928.0 0.001078 540.32294 830.16992
923.0 0.001083 540.70667 830.48859
913.0 0.001095 541.08936 830.43298
913.0 0.001095 541.47156 829.99634
950.0 0.001053 541.85199 829.17456
943.0 0.001060 542.23102 827.96979
1011.0 0.000989 542.60968 826.38965
995.0 0.001005 542.98633 824.44318
994.0 0.001006 543.36243 822.14691
957.0 0.001045 543.73639 819.51929
954.0 0.001048 544.10901 816.58252
935.0 0.001070 544.48071 813.36237
904.0 0.001106 544.85046 809.88531
868.0 0.001152 545.21875 806.18066
906.0 0.001104 545.58582 802.27942
910.0 0.001099 545.95123 798.21106
890.0 0.001124 546.31464 794.00671
880.0 0.001136 546.67700 789.69818
859.0 0.001164 547.03729 785.31409
863.0 0.001159 547.39563 780.88507
872.0 0.001147 547.75281 776.43909
864.0 0.001157 548.10760 772.00287
852.0 0.001174 548.46118 767.60382
819.0 0.001221 548.81226 763.26563
825.0 0.001212 549.16138 759.01227
824.0 0.001214 549.50916 754.86780
796.0 0.001256 549.85425 750.85187
783.0 0.001277 550.19739 746.98608
821.0 0.001218 550.53882 743.29059
786.0 0.001272 550.87775 739.78302
750.0 0.001333 551.21448 736.48199
793.0 0.001261 551.54968 733.40552
778.0 0.001285 551.88190 730.56879
781.0 0.001280 552.21234 727.98962
765.0 0.001307 552.53992 725.91113
766.0 0.001305 552.86523 723.89264
770.0 0.001299 553.18842 722.17743
751.0 0.001332 553.50885 720.77838
765.0 0.001307 553.82660 719.71075
759.0 0.001318 554.14252 718.98846
752.0 0.001330 554.45508 718.62421
735.0 0.001361 554.76526 718.63129
745.0 0.001342 555.07324 719.02344
729.0 0.001372 555.37817 719.81189
734.0 0.001362 555.67999 721.00897
749.0 0.001335 555.97961 722.32446
754.0 0.001326 556.27594 724.37476
792.0 0.001263 556.57001 726.86700
787.0 0.001271 556.86041 729.81049
754.0 0.001326 557.14807 733.21533
760.0 0.001316 557.43311 737.08978
781.0 0.001280 557.71454 741.44128
765.0 0.001307 557.99310 746.27643
752.0 0.001330 558.26892 751.60168
777.0 0.001287 558.54102 757.42023
791.0 0.001264 558.81012 763.73663
868.0 0.001152 559.07617 770.55219
869.0 0.001151 559.33868 777.86713
838.0 0.001193 559.59814 785.68103
810.0 0.001235 559.85364 793.99048
835.0 0.001198 560.10583 802.79059
853.0 0.001172 560.35535 812.07599
880.0 0.001136 560.60059 821.83661
929.0 0.001076 560.84241 832.06226
883.0 0.001133 561.08099 842.73981
905.0 0.001105 561.31555 853.85291
898.0 0.001114 561.54633 865.38416
891.0 0.001122 561.77380 877.31226
889.0 0.001125 561.99725 889.61310
909.0 0.001100 562.21686 902.25989
900.0 0.001111 562.43304 915.22266
876.0 0.001142 562.64484 928.46777
932.0 0.001073 562.85315 941.95856
937.0 0.001067 563.05707 955.65393
972.0 0.001029 563.25720 969.50934
963.0 0.001038 563.45331 983.47662
953.0 0.001049 563.64520 997.50287
973.0 0.001028 563.83295 1011.53076
973.0 0.001028 564.01654 1025.49976
1022.0 0.000978 564.19617 1039.34302
1014.0 0.000986 564.37115 1052.99072
1059.0 0.000944 564.54218 1066.36829
1066.0 0.000938 564.70862 1079.39771
1085.0 0.000922 564.87091 1091.99670
1153.0 0.000867 565.02863 1104.08020
1115.0 0.000897 565.18182 1115.56177
1152.0 0.000868 565.33063 1126.35400
1159.0 0.000863 565.47491 1136.36816
1117.0 0.000895 565.61444 1145.51880
1102.0 0.000907 565.74969 1153.72400
1128.0 0.000887 565.88013 1160.90491
1073.0 0.000932 566.00555 1166.99219
1090.0 0.000917 566.12683 1171.92395
1084.0 0.000923 566.24292 1175.64868
1096.0 0.000912 566.35400 1178.12744
1098.0 0.000911 566.46088 1179.33398
1066.0 0.000938 566.56238 1179.25623
1042.0 0.000960 566.65918 1177.89709
1023.0 0.000978 566.75085 1175.27209
1049.0 0.000953 566.83765 1171.41309
1063.0 0.000941 566.91937 1166.36230
1037.0 0.000964 566.99579 1160.17505
1048.0 0.000954 567.06738 1152.91626
1054.0 0.000949 567.13379 1144.65833
1061.0 0.000943 567.19482 1135.48083
1062.0 0.000942 567.25079 1125.46814
1045.0 0.000957 567.30151 1114.70605
1033.0 0.000968 567.34680 1103.28308
1022.0 0.000978 567.38708 1091.28674
1083.0 0.000923 567.42175 1078.80298
1131.0 0.000884 567.45099 1065.91614
1089.0 0.000918 567.47485 1052.70667
1032.0 0.000969 567.49329 1039.25183
1025.0 0.000976 567.50604 1025.62451
1066.0 0.000938 567.51361 1011.89313
1038.0 0.000963 567.51532 998.12207
1035.0 0.000966 567.51154 984.22473
1009.0 0.000991 567.50208 970.54919
988.0 0.001012 567.48706 956.99976
1019.0 0.000981 567.46631 943.62280
999.0 0.001001 567.43958 930.46106
1035.0 0.000966 567.40765 917.55316
1018.0 0.000982 567.36951 904.93402
964.0 0.001037 567.32568 892.63519
984.0 0.001016 567.27582 880.68469
931.0 0.001074 567.22034 869.10663
963.0 0.001038 567.15887 857.92358
939.0 0.001065 567.09161 847.15356
934.0 0.001071 567.01831 836.81250
907.0 0.001103 566.93890 826.91217
867.0 0.001153 566.85382 817.46674
883.0 0.001133 566.76245 808.48236
851.0 0.001175 566.66492 800.00153
841.0 0.001189 566.56146 791.95581
849.0 0.001178 566.45197 784.38293
827.0 0.001209 566.33643 777.28302
803.0 0.001245 566.21429 770.65387
811.0 0.001233 566.08661 764.49194
843.0 0.001186 565.95239 758.79260
789.0 0.001267 565.81195 753.54901
817.0 0.001224 565.66547 748.75360
763.0 0.001311 565.51263 744.39709
757.0 0.001321 565.35315 740.46918
731.0 0.001368 565.18805 736.95990
713.0 0.001403 565.01636 733.85626
703.0 0.001422 564.83820 731.14581
725.0 0.001379 564.65405 728.81561
724.0 0.001381 564.46307 726.85156
727.0 0.001376 564.26611 725.23944
721.0 0.001387 564.06268 723.96460
703.0 0.001422 563.85260 723.01141
691.0 0.001447 563.63647 722.36536
704.0 0.001420 563.41400 722.01068
702.0 0.001425 563.18488 721.93176
714.0 0.001401 562.94946 722.11365
690.0 0.001449 562.70746 722.54095
726.0 0.001377 562.45862 722.98926
723.0 0.001383 562.20416 723.86145
700.0 0.001429 561.94226 724.93250
684.0 0.001462 561.67468 726.18817
701.0 0.001427 561.40070 727.61322
727.0 0.001376 561.11951 729.19189
714.0 0.001401 560.83252 730.91046
759.0 0.001318 560.53894 732.75336
748.0 0.001337 560.23846 734.70453
721.0 0.001387 559.93182 736.75012
735.0 0.001361 559.61884 738.86621
705.0 0.001418 559.29889 741.15045
707.0 0.001414 558.97296 743.38031
701.0 0.001427 558.64026 745.63715
737.0 0.001357 558.30096 747.90234
778.0 0.001285 557.95557 750.15881
796.0 0.001256 557.60321 752.38507
795.0 0.001258 557.24500 754.56268
787.0 0.001271 556.88025 756.66931
762.0 0.001312 556.50842 758.68304
796.0 0.001256 556.13104 760.58246
845.0 0.001183 555.74701 762.34473
829.0 0.001206 555.35620 763.94617
846.0 0.001182 554.95941 765.36603
844.0 0.001185 554.55640 766.58112
835.0 0.001198 554.14655 767.56952
835.0 0.001198 553.73059 768.31268
823.0 0.001215 553.30792 768.79059
833.0 0.001200 552.87976 768.98810
845.0 0.001183 552.44525 768.89020
856.0 0.001168 552.00385 768.48462
876.0 0.001142 551.55682 767.76440
854.0 0.001171 551.10364 766.72302
835.0 0.001198 550.64380 765.35822
892.0 0.001121 550.17828 763.67188
897.0 0.001115 549.70660 761.66815
906.0 0.001104 549.22858 759.35400
878.0 0.001139 548.74493 756.74158
871.0 0.001148 548.25531 753.84302
835.0 0.001198 547.75909 750.67334
809.0 0.001236 547.25769 747.25110
814.0 0.001229 546.74976 743.59375
854.0 0.001171 546.23633 739.72321
827.0 0.001209 545.71753 735.65887
804.0 0.001244 545.19208 731.42181
767.0 0.001304 544.66180 727.03406
771.0 0.001297 544.12573 722.51563
764.0 0.001309 543.58350 717.88623
761.0 0.001314 543.03638 713.16711
737.0 0.001357 542.48389 708.37592
743.0 0.001346 541.92480 703.52991
730.0 0.001370 541.36139 698.64716
710.0 0.001408 540.79175 693.74164
702.0 0.001425 540.21771 688.82983
698.0 0.001433 539.63861 683.92352
676.0 0.001479 539.05322 679.03467
660.0 0.001515 538.46381 674.17609
691.0 0.001447 537.86926 669.35693
663.0 0.001508 537.26910 664.58582
635.0 0.001575 536.66492 659.87244
632.0 0.001582 536.05585 655.22327
619.0 0.001616 535.44128 650.64441
593.0 0.001686 534.82281 646.14288
558.0 0.001792 534.19989 641.72345
552.0 0.001812 533.57147 637.38879
565.0 0.001770 532.93970 633.14532
570.0 0.001754 532.30261 628.99365
581.0 0.001721 531.66235 624.93890
570.0 0.001754 531.01788 620.98163
548.0 0.001825 530.36829 617.12274
585.0 0.001709 529.71582 613.36493
584.0 0.001712 529.05969 609.70801
545.0 0.001835 528.39844 606.15216
540.0 0.001852 527.73474 602.69788
544.0 0.001838 527.06744 599.34473
539.0 0.001855 526.39587 596.09094
550.0 0.001818 525.72174 592.93689
540.0 0.001852 525.04358 589.87970
564.0 0.001773 524.36298 586.91998
537.0 0.001862 523.67975 584.05481
541.0 0.001848 522.99255 581.28119
562.0 0.001779 522.30341 578.59918
525.0 0.001905 521.61163 576.00549
535.0 0.001869 520.91663 573.49634
537.0 0.001862 520.22028 571.08167
578.0 0.001730 519.52136 568.73804
577.0 0.001733 518.81934 566.47180
559.0 0.001789 518.11670 564.28253
561.0 0.001783 517.41187 562.16547
542.0 0.001845 516.70428 560.11798
542.0 0.001845 515.99652 558.13904
536.0 0.001866 515.28595 556.22333
517.0 0.001934 514.57532 554.37134
508.0 0.001969 513.86359 552.57642
496.0 0.002016 513.14978 550.83887
500.0 0.002000 512.43634 549.15692
520.0 0.001923 511.72223 547.52661
511.0 0.001957 511.00638 545.94440
502.0 0.001992 510.29141 544.41022
494.0 0.002024 509.57651 542.92102
483.0 0.002070 508.86050 541.48981
509.0 0.001965 508.14575 540.08386
510.0 0.001961 507.43015 538.71484
517.0 0.001934 506.71631 537.38391
516.0 0.001938 506.00339 536.08765
506.0 0.001976 505.29031 534.82379
503.0 0.001988 504.57932 533.59247
488.0 0.002049 503.86972 532.39148
504.0 0.001984 503.16068 531.21820
527.0 0.001898 502.45438 530.07336
487.0 0.002053 501.75000 528.95514
512.0 0.001953 501.04703 527.86121
526.0 0.001901 500.34714 526.79248
531.0 0.001883 499.65002 525.74725
515.0 0.001942 498.95450 524.72394
504.0 0.001984 498.26334 523.72339
501.0 0.001996 497.57422 522.74316
520.0 0.001923 496.88962 521.78497
523.0 0.001912 496.20883 520.84705
509.0 0.001965 495.53091 519.92822
534.0 0.001873 494.85822 519.03027
506.0 0.001976 494.19012 518.15167
506.0 0.001976 493.52579 517.29175
514.0 0.001946 492.86734 516.45203
499.0 0.002004 492.21414 515.63184
506.0 0.001976 491.56537 514.83014
481.0 0.002079 490.92325 514.04907
485.0 0.002062 490.28644 513.28680
491.0 0.002037 489.65680 512.54578
492.0 0.002033 489.03381 511.82556
505.0 0.001980 488.41675 511.12534
486.0 0.002058 487.80771 510.44772
478.0 0.002092 487.20615 509.79211
480.0 0.002083 486.61130 509.43927
471.0 0.002123 486.02545 508.83109
481.0 0.002079 485.44800 508.24762
495.0 0.002020 484.87830 507.68817
507.0 0.001972 484.31854 507.15598
503.0 0.001988 483.76804 506.65054
492.0 0.002033 483.22635 506.17249
501.0 0.001996 482.69531 505.72440
507.0 0.001972 482.17404 505.30591
501.0 0.001996 481.66391 504.91974
489.0 0.002045 481.16479 504.56650
492.0 0.002033 480.67627 504.24658
499.0 0.002004 480.20007 503.96307
491.0 0.002037 479.73593 503.71597
498.0 0.002008 479.28348 503.50714
486.0 0.002058 478.84451 503.33838
483.0 0.002070 478.41861 503.21097
500.0 0.002000 478.00562 503.12558
497.0 0.002012 477.60712 503.08521
508.0 0.001969 477.22238 503.09003
520.0 0.001923 476.85272 503.14261
506.0 0.001976 476.49820 503.24390
509.0 0.001965 476.15854 503.39478
508.0 0.001969 475.83545 503.59793
500.0 0.002000 475.52838 503.85376
511.0 0.001957 475.23776 504.16360
492.0 0.002033 474.96457 504.52902
539.0 0.001855 474.70914 504.95117
515.0 0.001942 474.47144 505.43057
522.0 0.001916 474.25235 505.96906
526.0 0.001901 474.05203 506.56653
515.0 0.001942 473.87103 507.22400
523.0 0.001912 473.70996 507.94226
561.0 0.001783 473.56894 508.72131
543.0 0.001842 473.44901 509.56158
544.0 0.001838 473.35025 510.46286
535.0 0.001869 473.27307 511.42496
539.0 0.001855 473.21823 512.44769
526.0 0.001901 473.18604 513.53052
518.0 0.001931 473.17719 514.67242
521.0 0.001919 473.19193 515.87183
524.0 0.001908 473.23099 517.12805
522.0 0.001916 473.29489 518.43927
526.0 0.001901 473.38394 519.80334
536.0 0.001866 473.49902 521.21820
540.0 0.001852 473.64029 522.68127
540.0 0.001852 473.80847 524.18964
533.0 0.001876 474.00449 525.74011
525.0 0.001905 474.22812 527.32892
535.0 0.001869 474.48038 528.95197
544.0 0.001838 474.76239 530.60559
530.0 0.001887 475.07364 532.54370
526.0 0.001901 475.41522 534.24329
523.0 0.001912 475.78839 535.95813
534.0 0.001873 476.19257 537.68121
534.0 0.001873 476.62900 539.40643
530.0 0.001887 477.09875 541.12830
521.0 0.001919 477.60135 543.24890
506.0 0.001976 478.13882 544.94354
532.0 0.001880 478.71014 546.61230
555.0 0.001802 479.31693 548.24915
565.0 0.001770 479.96075 549.84790
583.0 0.001715 480.64008 551.40039
563.0 0.001776 481.35693 552.90094
583.0 0.001715 482.11298 554.34576
572.0 0.001748 482.90643 555.72760
566.0 0.001767 483.73953 557.04401
580.0 0.001724 484.61389 558.29333
581.0 0.001721 485.52802 559.47223
573.0 0.001745 486.48495 560.58252
602.0 0.001661 487.48297 561.62274
594.0 0.001684 488.52399 562.59686
597.0 0.001675 489.61035 563.51025
591.0 0.001692 490.73962 564.36469
570.0 0.001754 491.91440 565.16748
580.0 0.001724 493.13696 565.92792
565.0 0.001770 494.40448 566.64996
573.0 0.001745 495.71951 567.34454
568.0 0.001761 497.08563 568.02197
561.0 0.001783 498.49866 568.68817
583.0 0.001715 499.96176 569.35437
584.0 0.001712 501.47812 570.03302
578.0 0.001730 503.04385 570.72858
589.0 0.001698 504.66476 571.45636
572.0 0.001748 506.33670 572.22009
572.0 0.001748 508.06293 573.03137
577.0 . . .
