#------------------------------------------------------------------------------
#$Date: 2021-05-17 12:33:52 +0300 (Mon, 17 May 2021) $
#$Revision: 265278 $
#$URL: file:///home/coder/svn-repositories/cod/cif/1/56/26/1562613.cif $
#------------------------------------------------------------------------------
#
# This file is available in the Crystallography Open Database (COD),
# http://www.crystallography.net/
#
# All data on this site have been placed in the public domain by the
# contributors.
#
data_1562613
loop_
_publ_author_name
'Zibrov, Igor P.'
'Filonenko, Vladimir P.'
'Zakharov, Nikolai D.'
'Werner, Peter'
'Drobot, Dmitrii V.'
'Nikishina, Elena E.'
'Lebedeva, Elena N.'
_publ_section_title
;
 New high pressure rare earth tantalates RExTa2O5+1.5x (RE=La, Eu, Yb)
;
_journal_name_full               'Journal of Solid State Chemistry'
_journal_page_first              240
_journal_page_last               246
_journal_paper_doi               10.1016/j.jssc.2013.03.057
_journal_volume                  203
_journal_year                    2013
_chemical_formula_structural     'EU0.089 TA2 O5.134 (H2O)0.28'
_chemical_formula_sum            'Eu0.13 O8.41 Ta3'
_chemical_formula_weight         697.88
_chemical_name_common            'Europium Tantalate Hydrate'
_space_group_IT_number           72
_space_group_name_Hall           '-I 2 2c'
_space_group_name_H-M_alt        'I b a m'
_symmetry_cell_setting           orthorhombic
_symmetry_space_group_name_Hall  '-I 2 2c'
_symmetry_space_group_name_H-M   'I b a m'
_cell_angle_alpha                90.0
_cell_angle_beta                 90.0
_cell_angle_gamma                90.0
_cell_formula_units_Z            4
_cell_length_a                   10.88124(11)
_cell_length_b                   7.26808(7)
_cell_length_c                   6.84922(6)
_cell_measurement_temperature    298(2)
_cell_volume                     541.676(9)
_computing_structure_refinement  GSAS
_diffrn_ambient_temperature      298
_diffrn_detector                 'imaging plate'
_diffrn_measurement_device_type  'Imaging Plate Guinier Camera 670 (Huber)'
_diffrn_radiation_monochromator  'Primary, curved Ge (111)'
_diffrn_radiation_polarisn_ratio 0.8
_diffrn_radiation_probe          x-ray
_diffrn_radiation_type           'Cu K\a~1~'
_diffrn_radiation_wavelength     1.5406
_diffrn_source                   'sealed X-ray tube'
_diffrn_source_target            Cu
_exptl_absorpt_correction_T_max  1.00000
_exptl_absorpt_correction_T_min  1.00000
_exptl_absorpt_process_details
;   GSAS Absorption/surface roughness correction: function number 0
 No correction is applied.
;
_exptl_crystal_density_diffrn    8.558
_exptl_crystal_density_method    'not measured'
_pd_calc_method                  'Rietveld Refinement'
_pd_char_colour                  grey
_pd_instr_location               ' ?'
_pd_meas_2theta_range_inc        0.01
_pd_meas_2theta_range_max        100.49
_pd_meas_2theta_range_min        3.0
_pd_meas_number_of_points        9750
_pd_meas_scan_method             fixed
_pd_prep_cool_rate               100
_pd_prep_pressure                7000000
_pd_prep_temperature             1323
_pd_proc_2theta_range_inc        0.01
_pd_proc_2theta_range_max        100.5019
_pd_proc_2theta_range_min        3.0119
_pd_proc_info_datetime           2013-03-02T13:01:46
_pd_proc_info_excluded_regions   ' ?'
_pd_proc_ls_background_function
;   GSAS Background function number 1 with 30 terms.
 Shifted Chebyshev function of 1st kind
      1:    2412.34     2:   -975.716     3:    497.038     4:    76.2027    
      5:   -207.332     6:    136.457     7:   -83.5879     8:    7.17535    
      9:   -31.8501    10:    25.2256    11:   -79.0586    12:   -11.2776    
     13:   -6.42474    14:   -39.7680    15:   -11.3149    16:   -11.3566    
     17:   -29.0492    18:   -6.25765    19:   -13.6197    20:   -23.8618    
     21:   -2.28751    22:   -14.0355    23:  -0.720815    24:   -5.99761    
     25:   -25.1445    26:   -2.77242    27:   -3.49350    28:   -9.97324    
     29:    17.6245    30:   -16.5622    
;
_pd_proc_ls_peak_cutoff          0.00200
_pd_proc_ls_profile_function
;
 CW Profile function number 2 with  18 terms
 Profile coefficients for Simpson's rule integration of pseudovoigt function
 C.J. Howard (1982). J. Appl. Cryst.,15,615-620.
 P. Thompson, D.E. Cox & J.B. Hastings (1987). J. Appl. Cryst.,20,79-83.
 #1(GU)   =   44.453 #2(GV)   =   -4.905 #3(GW)   =    5.111
 #4(LX)   =   10.082 #5(LY)   =    0.000 #6(trns) =   -0.945
 #7(asym) =   7.5444 #8(shft) =  -4.1713 #9(GP)   =    0.000
 #10(stec)=     0.00 #11(ptec)=    -2.94 #12(sfec)=     0.00
 #13(L11) =    0.000 #14(L22) =    0.000 #15(L33) =    0.000
 #16(L12) =    0.000 #17(L13) =    0.000 #18(L23) =    0.000
 Peak tails are ignored  where the intensity is below 0.0020 times the peak
   Aniso. broadening axis   0.0   0.0   1.0
;
_pd_proc_ls_prof_R_factor        0.0616
_pd_proc_ls_prof_wR_expected     0.0162
_pd_proc_ls_prof_wR_factor       0.0876
_pd_proc_number_of_points        9750
_pd_spec_mounting                'powder on Mylar film'
_pd_spec_mount_mode              transmission
_pd_spec_shape                   flat_sheet
_pd_spec_size_axial              8
_pd_spec_size_equat              0.1
_refine_ls_goodness_of_fit_all   5.43
_refine_ls_matrix_type           full
_refine_ls_number_parameters     51
_refine_ls_number_restraints     0
_refine_ls_R_Fsqd_factor         0.05574
_refine_ls_shift/su_max          0.02
_refine_ls_shift/su_mean         0.00
_cod_data_source_file            Eu0089Ta2O5134H2O028.cif
_cod_data_source_block           EU0.089TA2O5.134(0.28H2O)_publ
_cod_depositor_comments
;
The following automatic conversions were performed:

data item '_geom_angle_publ_flag' value 'N' was changed to 'n' in
accordance with the built-in table derived from the CIF Core
dictionary named 'cif_core.dic' version 2.4.5 last updated on
2014-11-21 (109 times).

data item '_geom_bond_publ_flag' value 'N' was changed to 'n' in
accordance with the built-in table derived from the CIF Core
dictionary named 'cif_core.dic' version 2.4.5 last updated on
2014-11-21 (58 times).

Automatic conversion script
Id: cif_fix_values 8369 2020-08-20 11:38:08Z andrius 
;
_cod_original_cell_volume        541.676(7)
_cod_database_code               1562613
_gsas_exptl_extinct_corr_t_min   1.00000
_gsas_exptl_extinct_corr_t_max   1.00000
loop_
_symmetry_equiv_pos_site_id
_symmetry_equiv_pos_as_xyz
1 +x,+y,+z
2 -x+1/2,+y+1/2,+z
3 +x+1/2,-y+1/2,+z
4 -x,-y,+z
-1 -x,-y,-z
-2 +x+1/2,-y+1/2,-z
-3 -x+1/2,+y+1/2,-z
-4 +x,+y,-z
101 +x+1/2,+y+1/2,+z+1/2
102 -x,+y,+z+1/2
103 +x,-y,+z+1/2
104 -x+1/2,-y+1/2,+z+1/2
-101 -x+1/2,-y+1/2,-z+1/2
-102 +x,-y,-z+1/2
-103 -x,+y,-z+1/2
-104 +x+1/2,+y+1/2,-z+1/2
loop_
_atom_site_type_symbol
_atom_site_label
_atom_site_fract_x
_atom_site_fract_y
_atom_site_fract_z
_atom_site_occupancy
_atom_site_thermal_displace_type
_atom_site_U_iso_or_equiv
_atom_site_symmetry_multiplicity
Ta Ta1 0.22940(7) 0.23156(13) 0.0 1.0 Uiso 0.01015(33) 8
Ta Ta2 0.0 0.0 0.25 1.0 Uiso 0.0110(4) 4
O O1 0.1509(6) 0.1921(10) 0.2892(10) 1.0 Uiso 0.0214(18) 16
O O2 0.1906(9) 0.5081(16) 0.0 1.0 Uiso 0.0214(18) 8
O O3 0.0571(9) 0.1287(13) 0.0 1.0 Uiso 0.0214(18) 8
Eu Eu 0.0 0.5 0.25 0.1342(26) Uiso 0.037 4
O H2O 0.0 0.5 0.25 0.415 Uiso 0.037 4
loop_
_atom_type_symbol
_atom_type_number_in_cell
_atom_type_scat_dispersion_real
_atom_type_scat_dispersion_imag
_atom_type_scat_Cromer_Mann_a1
_atom_type_scat_Cromer_Mann_a2
_atom_type_scat_Cromer_Mann_a3
_atom_type_scat_Cromer_Mann_a4
_atom_type_scat_Cromer_Mann_b1
_atom_type_scat_Cromer_Mann_b2
_atom_type_scat_Cromer_Mann_b3
_atom_type_scat_Cromer_Mann_b4
_atom_type_scat_Cromer_Mann_c
_atom_type_scat_source
Ta 12.0 0.000 0.000 29.2024 1.77333 15.2293 9.37046 14.5135 0.29598 4.76492
63.3644 9.24354 International_Tables_Vol_C
O 33.66 0.000 0.000 3.04850 13.2771 2.28680 5.70110 1.54630 0.32390 0.86700
32.9089 0.25080 International_Tables_Vol_C
Eu 0.537 0.000 0.000 24.6274 2.38790 19.0886 0.19420 13.7603 13.7546 2.92270
123.174 2.57450 International_Tables_Vol_C
loop_
_geom_angle_atom_site_label_1
_geom_angle_atom_site_label_2
_geom_angle_atom_site_label_3
_geom_angle
_geom_angle_site_symmetry_1
_geom_angle_site_symmetry_2
_geom_angle_site_symmetry_3
_geom_angle_publ_flag
O1 Ta1 O1 131.08(35) 1_555 . -4_555 n
O1 Ta1 O1 159.88(22) 1_555 . 104_554 n
O1 Ta1 O1 68.84(28) 1_555 . -101_665 n
O1 Ta1 O2 92.77(21) 1_555 . 1_555 n
O1 Ta1 O2 93.97(21) 1_555 . 2_545 n
O1 Ta1 O3 65.58(17) 1_555 . 1_555 n
O1 Ta1 O1 68.84(28) -4_555 . 104_554 n
O1 Ta1 O1 159.88(22) -4_555 . -101_665 n
O1 Ta1 O2 92.77(21) -4_555 . 1_555 n
O1 Ta1 O2 93.97(21) -4_555 . 2_545 n
O1 Ta1 O3 65.58(17) -4_555 . 1_555 n
O1 Ta1 O1 91.1(4) 104_554 . -101_665 n
O1 Ta1 O2 82.17(25) 104_554 . 1_555 n
O1 Ta1 O2 86.42(27) 104_554 . 2_545 n
O1 Ta1 O3 134.42(18) 104_554 . 1_555 n
O1 Ta1 O2 82.17(25) -101_665 . 1_555 n
O1 Ta1 O2 86.42(27) -101_665 . 2_545 n
O1 Ta1 O3 134.42(18) -101_444 . 1_555 n
O2 Ta1 O2 163.67(24) 1_555 . 2_545 n
O2 Ta1 O3 99.9(4) 1_555 . 1_555 n
O2 Ta1 O3 96.4(4) 2_545 . 1_555 n
O1 Ta2 O1 165.8(4) 1_555 . 4_555 n
O1 Ta2 O1 81.8(4) 1_555 . -102_665 n
O1 Ta2 O1 100.0(4) 1_555 . -103_665 n
O1 Ta2 O3 65.18(28) 1_555 . 1_555 n
O1 Ta2 O3 128.78(29) 1_555 . 4_555 n
O1 Ta2 O3 80.36(32) 1_555 . 102_334 n
O1 Ta2 O3 87.76(33) 1_555 . 103_334 n
O1 Ta2 O1 100.0(4) 4_555 . -102_665 n
O1 Ta2 O1 81.8(4) 4_555 . -103_665 n
O1 Ta2 O3 128.78(29) 4_555 . 1_555 n
O1 Ta2 O3 65.18(28) 4_555 . 4_555 n
O1 Ta2 O3 87.76(33) 4_555 . 102_334 n
O1 Ta2 O3 80.36(32) 4_555 . 103_334 n
O1 Ta2 O1 165.8(4) -102_665 . -103_665 n
O1 Ta2 O3 87.76(33) -102_444 . 1_555 n
O1 Ta2 O3 80.36(32) -102_444 . 4_555 n
O1 Ta2 O3 128.78(29) -102_444 . 102_334 n
O1 Ta2 O3 65.18(28) -102_444 . 103_334 n
O1 Ta2 O3 80.36(32) -103_444 . 1_555 n
O1 Ta2 O3 87.76(33) -103_444 . 4_555 n
O1 Ta2 O3 65.18(28) -103_444 . 102_334 n
O1 Ta2 O3 128.78(29) -103_444 . 103_334 n
O3 Ta2 O3 66.5(4) 1_555 . 4_555 n
O3 Ta2 O3 125.6(5) 1_555 . 102_334 n
O3 Ta2 O3 144.7(5) 1_555 . 103_334 n
O3 Ta2 O3 144.7(5) 4_555 . 102_334 n
O3 Ta2 O3 125.6(5) 4_555 . 103_334 n
O3 Ta2 O3 66.5(4) 102_334 . 103_334 n
Ta1 O1 Ta1 111.16(28) 1_555 . 104_555 n
Ta1 O1 Ta2 105.61(30) 1_555 . 1_555 n
Ta1 O1 Eu 92.16(23) 1_555 . 1_555 n
Ta1 O1 Ta2 138.72(34) 104_555 . 1_555 n
Ta1 O1 Eu 103.17(28) 104_555 . 1_555 n
Ta2 O1 Eu 93.37(23) 1_555 . 1_555 n
Ta1 O2 Ta1 140.0(5) 1_555 . 2_555 n
Ta1 O2 Eu 97.87(35) 1_555 . 1_555 n
Ta1 O2 Eu 97.87(35) 1_555 . -1_565 n
Ta1 O2 Eu 112.6(4) 2_555 . 1_555 n
Ta1 O2 Eu 112.6(4) 2_555 . -1_565 n
Eu O2 Eu 79.06(27) 1_555 . -1_565 n
Ta1 O3 Ta2 116.81(29) 1_555 . 1_555 n
Ta1 O3 Ta2 116.81(29) 1_555 . -1_555 n
Ta2 O3 Ta2 113.5(4) 1_555 . -1_555 n
O1 Eu O1 168.96(29) 1_555 . 4_565 n
O1 Eu O1 107.85(25) 1_555 . -102_675 n
O1 Eu O1 73.26(26) 1_555 . -103_665 n
O1 Eu O2 67.97(26) 1_555 . 1_555 n
O1 Eu O2 119.84(28) 1_555 . 4_565 n
O1 Eu O2 114.23(26) 1_555 . 102_555 n
O1 Eu O2 57.80(27) 1_555 . 103_565 n
O1 Eu Eu 95.52(14) 1_555 . -1_565 n
O1 Eu Eu 84.48(14) 1_555 . -1_566 n
O1 Eu O1 73.26(26) 4_565 . -102_675 n
O1 Eu O1 107.85(25) 4_565 . -103_665 n
O1 Eu O2 119.84(28) 4_565 . 1_555 n
O1 Eu O2 67.97(26) 4_565 . 4_565 n
O1 Eu O2 57.80(27) 4_565 . 102_555 n
O1 Eu O2 114.23(26) 4_565 . 103_565 n
O1 Eu Eu 95.52(14) 4_565 . -1_565 n
O1 Eu Eu 84.48(14) 4_565 . -1_566 n
O1 Eu O1 168.96(29) -102_675 . -103_665 n
O1 Eu O2 57.80(27) -102_675 . 1_555 n
O1 Eu O2 114.23(26) -102_675 . 4_565 n
O1 Eu O2 119.84(28) -102_675 . 102_555 n
O1 Eu O2 67.97(26) -102_675 . 103_565 n
O1 Eu Eu 84.48(14) -102_454 . -1_565 n
O1 Eu Eu 95.52(14) -102_454 . -1_566 n
O1 Eu O2 114.23(26) -103_665 . 1_555 n
O1 Eu O2 57.80(27) -103_665 . 4_565 n
O1 Eu O2 67.97(26) -103_665 . 102_555 n
O1 Eu O2 119.84(28) -103_665 . 103_565 n
O1 Eu Eu 84.48(14) -103_444 . -1_565 n
O1 Eu Eu 95.52(14) -103_444 . -1_566 n
O2 Eu O2 100.94(27) 1_555 . 4_565 n
O2 Eu O2 177.5(5) 1_555 . 102_555 n
O2 Eu O2 79.12(27) 1_555 . 103_565 n
O2 Eu Eu 50.47(13) 1_555 . -1_565 n
O2 Eu Eu 129.53(13) 1_555 . -1_566 n
O2 Eu O2 79.12(27) 4_565 . 102_555 n
O2 Eu O2 177.5(5) 4_565 . 103_565 n
O2 Eu Eu 50.47(13) 4_565 . -1_565 n
O2 Eu Eu 129.53(13) 4_565 . -1_566 n
O2 Eu O2 100.94(27) 102_555 . 103_565 n
O2 Eu Eu 129.53(13) 102_334 . -1_565 n
O2 Eu Eu 50.47(13) 102_334 . -1_566 n
O2 Eu Eu 129.53(13) 103_344 . -1_565 n
O2 Eu Eu 50.47(13) 103_344 . -1_566 n
Eu Eu Eu 180.0 -1_565 . -1_566 n
loop_
_geom_bond_atom_site_label_1
_geom_bond_atom_site_label_2
_geom_bond_distance
_geom_bond_site_symmetry_1
_geom_bond_site_symmetry_2
_geom_bond_publ_flag
Ta1 O1 2.176(7) . 1_555 n
Ta1 O1 2.176(7) . -4_555 n
Ta1 O1 2.022(7) . 104_554 n
Ta1 O1 2.022(7) . -101_444 n
Ta1 O2 2.054(11) . 1_555 n
Ta1 O2 1.843(11) . 2_545 n
Ta1 O3 2.018(9) . 1_555 n
Ta1 Eu 3.6013(8) . 1_555 n
Ta1 Eu 3.7993(8) . 2_545 n
Ta1 Eu 3.6013(8) . -1_565 n
Ta1 Eu 3.7993(8) . -2_555 n
Ta2 O1 2.172(6) . 1_555 n
Ta2 O1 2.172(6) . 4_555 n
Ta2 O1 2.172(6) . -102_444 n
Ta2 O1 2.172(6) . -103_444 n
Ta2 O3 2.048(5) . 1_555 n
Ta2 O3 2.048(5) . 4_555 n
Ta2 O3 2.048(5) . 102_555 n
Ta2 O3 2.048(5) . 103_555 n
Ta2 Eu 3.634040(30) . 1_545 n
Ta2 Eu 3.634040(30) . 1_555 n
O1 Ta1 2.176(7) . 1_555 n
O1 Ta1 2.022(7) . 104_555 n
O1 Ta2 2.172(6) . 1_555 n
O1 Eu 2.789(7) . 1_555 n
O2 Ta1 2.054(11) . 1_555 n
O2 Ta1 1.843(11) . 2_555 n
O2 Eu 2.690(8) . 1_555 n
O2 Eu 2.690(8) . -1_565 n
O3 Ta1 2.018(9) . 1_555 n
O3 Ta2 2.048(5) . 1_555 n
O3 Ta2 2.048(5) . -1_555 n
O3 Eu 3.256(8) . 1_555 n
O3 Eu 3.256(8) . -1_565 n
Eu Ta1 3.6013(8) . 1_555 n
Eu Ta1 3.7993(8) . 2_555 n
Eu Ta1 3.7993(8) . 3_455 n
Eu Ta1 3.6013(8) . 4_565 n
Eu Ta1 3.7993(8) . 101_455 n
Eu Ta1 3.6013(8) . 102_555 n
Eu Ta1 3.6013(8) . 103_565 n
Eu Ta1 3.7993(8) . 104_555 n
Eu Ta2 3.634040(30) . 1_555 n
Eu Ta2 3.634040(30) . 1_565 n
Eu O1 2.789(7) . 1_555 n
Eu O1 2.789(7) . 4_565 n
Eu O1 2.789(7) . -102_454 n
Eu O1 2.789(7) . -103_444 n
Eu O2 2.690(8) . 1_555 n
Eu O2 2.690(8) . 4_565 n
Eu O2 2.690(8) . 102_555 n
Eu O2 2.690(8) . 103_565 n
Eu O3 3.256(8) . 1_555 n
Eu O3 3.256(8) . 4_565 n
Eu O3 3.256(8) . 102_555 n
Eu O3 3.256(8) . 103_565 n
Eu Eu 3.424610(30) . -1_565 n
Eu Eu 3.424610(30) . -1_566 n
loop_
_pd_meas_counts_total
_pd_proc_ls_weight
_pd_proc_intensity_bkg_calc
_pd_calc_intensity_total
3141.0 0.0003184 3305.63721 3305.61646
3278.0 0.0003051 3302.86865 3302.85010
3329.0 0.0003004 3300.41284 3300.39624
3233.0 0.0003093 3298.26025 3298.24585
3178.0 0.0003147 3296.40063 3296.38721
3182.0 0.0003143 3294.82275 3294.81128
3212.0 0.0003113 3293.51636 3293.50684
3267.0 0.0003061 3292.47266 3292.46509
3256.0 0.0003071 3291.68311 3291.67627
3420.0 0.0002924 3291.13599 3291.13110
3278.0 0.0003051 3290.82397 3290.82056
3220.0 0.0003106 3290.73901 3290.73682
3219.0 0.0003107 3290.87061 3290.86987
3362.0 0.0002974 3291.21143 3291.21118
3368.0 0.0002969 3291.75366 3291.75439
3254.0 0.0003073 3292.48828 3292.49121
3254.0 0.0003073 3293.40918 3293.41138
3290.0 0.0003040 3294.50781 3294.51123
3294.0 0.0003036 3295.77637 3295.78076
3301.0 0.0003029 3297.20874 3297.21313
3381.0 0.0002958 3298.79761 3298.80249
3277.0 0.0003052 3300.53564 3300.54199
3305.0 0.0003026 3302.41748 3302.42383
3390.0 0.0002950 3304.43604 3304.44312
3291.0 0.0003039 3306.58325 3306.59131
3376.0 0.0002962 3308.85571 3308.86548
3409.0 0.0002933 3311.24731 3311.25684
3310.0 0.0003021 3313.75122 3313.76025
3406.0 0.0002936 3316.36133 3316.37158
3294.0 0.0003036 3319.07446 3319.08423
3398.0 0.0002943 3321.88232 3321.89331
3352.0 0.0002983 3324.78296 3324.79297
3317.0 0.0003015 3327.76831 3327.77954
3324.0 0.0003008 3330.83545 3330.84595
3371.0 0.0002966 3333.97974 3333.99072
3428.0 0.0002917 3337.19556 3337.20654
3405.0 0.0002937 3340.47974 3340.48999
3462.0 0.0002889 3343.82690 3343.83740
3393.0 0.0002947 3347.23340 3347.24390
3331.0 0.0003002 3350.69360 3350.70459
3414.0 0.0002929 3354.20679 3354.21826
3472.0 0.0002880 3357.76709 3357.77759
3481.0 0.0002873 3361.36963 3361.38184
3373.0 0.0002965 3365.01489 3365.02515
3375.0 0.0002963 3368.69482 3368.70532
3463.0 0.0002888 3372.40869 3372.41919
3391.0 0.0002949 3376.15234 3376.16382
3374.0 0.0002964 3379.92383 3379.93433
3294.0 0.0003036 3383.71899 3383.72876
3368.0 0.0002969 3387.53442 3387.54541
3372.0 0.0002966 3391.36914 3391.37915
3472.0 0.0002880 3395.21948 3395.22900
3523.0 0.0002838 3399.08301 3399.09106
3505.0 0.0002853 3402.95508 3402.96460
3453.0 0.0002896 3406.83618 3406.84595
3480.0 0.0002874 3410.72266 3410.73145
3543.0 0.0002822 3414.61328 3414.62158
3504.0 0.0002854 3418.50415 3418.51196
3451.0 0.0002898 3422.39355 3422.40137
3442.0 0.0002905 3426.28076 3426.28857
3469.0 0.0002883 3430.16260 3430.17041
3529.0 0.0002834 3434.03857 3434.04468
3525.0 0.0002837 3437.90479 3437.91064
3500.0 0.0002857 3441.76025 3441.76685
3469.0 0.0002883 3445.60449 3445.61060
3604.0 0.0002775 3449.43506 3449.43994
3510.0 0.0002849 3453.25073 3453.25659
3435.0 0.0002911 3457.05005 3457.05396
3468.0 0.0002884 3460.83032 3460.83496
3435.0 0.0002911 3464.59253 3464.59692
3507.0 0.0002851 3468.33325 3468.33740
3528.0 0.0002834 3472.05273 3472.05615
3496.0 0.0002860 3475.75000 3475.75317
3485.0 0.0002869 3479.42163 3479.42578
3457.0 0.0002893 3483.07007 3483.07373
3417.0 0.0002927 3486.69312 3486.69531
3389.0 0.0002951 3490.28784 3490.29004
3428.0 0.0002917 3493.85498 3493.85718
3358.0 0.0002978 3497.39404 3497.39624
3391.0 0.0002949 3500.90356 3500.90601
3471.0 0.0002881 3504.38354 3504.38452
3480.0 0.0002874 3507.83301 3507.83374
3494.0 0.0002862 3511.24976 3511.25098
3434.0 0.0002912 3514.63599 3514.63672
3435.0 0.0002911 3517.99023 3517.98999
3560.0 0.0002809 3521.30981 3521.31055
3480.0 0.0002874 3524.59741 3524.59692
3463.0 0.0002888 3527.85034 3527.85034
3452.0 0.0002897 3531.07007 3531.06909
3508.0 0.0002851 3534.25415 3534.25342
3471.0 0.0002881 3537.40405 3537.40356
3402.0 0.0002939 3540.51758 3540.51709
3459.0 0.0002891 3543.59692 3543.59644
3490.0 0.0002865 3546.64014 3546.63892
3431.0 0.0002915 3549.64746 3549.64648
3407.0 0.0002935 3552.61914 3552.61670
3456.0 0.0002894 3555.55493 3555.55176
3557.0 0.0002811 3558.45288 3558.45093
3575.0 0.0002797 3561.31641 3561.31348
3511.0 0.0002848 3564.14233 3564.13916
3531.0 0.0002832 3566.93213 3566.92896
3470.0 0.0002882 3569.68604 3569.68311
3530.0 0.0002833 3572.40356 3572.39966
3516.0 0.0002844 3575.08350 3575.08008
3534.0 0.0002830 3577.72852 3577.72485
3475.0 0.0002878 3580.33691 3580.33276
3513.0 0.0002847 3582.90967 3582.90576
3497.0 0.0002860 3585.44580 3585.44189
3490.0 0.0002865 3587.94702 3587.94238
3487.0 0.0002868 3590.41187 3590.40820
3669.0 0.0002726 3592.84204 3592.83716
3620.0 0.0002762 3595.23657 3595.23193
3637.0 0.0002750 3597.59595 3597.59058
3675.0 0.0002721 3599.92041 3599.91528
3688.0 0.0002711 3602.21069 3602.20605
3558.0 0.0002811 3604.46680 3604.46143
3550.0 0.0002817 3606.68970 3606.68433
3505.0 0.0002853 3608.87744 3608.87231
3548.0 0.0002818 3611.03320 3611.02759
3596.0 0.0002781 3613.15454 3613.14893
3578.0 0.0002795 3615.24414 3615.23853
3558.0 0.0002811 3617.30078 3617.29517
3589.0 0.0002786 3619.32544 3619.32007
3568.0 0.0002803 3621.31885 3621.31348
3609.0 0.0002771 3623.28052 3623.27515
3573.0 0.0002799 3625.21191 3625.20630
3545.0 0.0002821 3627.11182 3627.10596
3585.0 0.0002789 3628.98193 3628.97607
3731.0 0.0002680 3630.82251 3630.81641
3716.0 0.0002691 3632.63281 3632.62720
3692.0 0.0002709 3634.41553 3634.40967
3774.0 0.0002650 3636.16870 3636.16284
3673.0 0.0002723 3637.89380 3637.88843
3707.0 0.0002698 3639.59082 3639.58472
3684.0 0.0002714 3641.26147 3641.25562
3689.0 0.0002711 3642.90454 3642.89917
3669.0 0.0002726 3644.52100 3644.51587
3763.0 0.0002657 3646.11230 3646.10669
3770.0 0.0002653 3647.67773 3647.67236
3576.0 0.0002796 3649.21753 3649.21265
3534.0 0.0002830 3650.73389 3650.72827
3573.0 0.0002799 3652.22510 3652.21899
3608.0 0.0002772 3653.69214 3653.68701
3695.0 0.0002706 3655.13745 3655.13159
3671.0 0.0002724 3656.55859 3656.55347
3620.0 0.0002762 3657.95850 3657.95288
3553.0 0.0002815 3659.33545 3659.33032
3713.0 0.0002693 3660.69092 3660.68579
3640.0 0.0002747 3662.02539 3662.02075
3603.0 0.0002775 3663.34009 3663.33569
3715.0 0.0002692 3664.63379 3664.62915
3787.0 0.0002641 3665.90820 3665.90381
3635.0 0.0002751 3667.16382 3667.15894
3707.0 0.0002698 3668.40039 3668.39502
3708.0 0.0002697 3669.61914 3669.61401
3679.0 0.0002718 3670.81836 3670.81494
3660.0 0.0002732 3672.00171 3671.99805
3665.0 0.0002729 3673.16772 3673.16455
3683.0 0.0002715 3674.31763 3674.31372
3613.0 0.0002768 3675.45142 3675.44775
3600.0 0.0002778 3676.56958 3676.56592
3568.0 0.0002803 3677.67236 3677.66748
3533.0 0.0002830 3678.76050 3678.75708
3520.0 0.0002841 3679.83325 3679.83130
3612.0 0.0002769 3680.89355 3680.89038
3707.0 0.0002698 3681.93970 3681.93677
3656.0 0.0002735 3682.97339 3682.97046
3683.0 0.0002715 3683.99390 3683.99072
3758.0 0.0002661 3685.00220 3685.00000
3727.0 0.0002683 3685.99902 3685.99634
3565.0 0.0002805 3686.98389 3686.98169
3646.0 0.0002743 3687.95825 3687.95654
3640.0 0.0002747 3688.92163 3688.91992
3613.0 0.0002768 3689.87573 3689.87354
3623.0 0.0002760 3690.81860 3690.81689
3699.0 0.0002703 3691.75269 3691.75098
3659.0 0.0002733 3692.67749 3692.67627
3777.0 0.0002648 3693.59351 3693.59155
3780.0 0.0002646 3694.50195 3694.50098
3787.0 0.0002641 3695.40137 3695.40039
3670.0 0.0002725 3696.29321 3696.29272
3671.0 0.0002724 3697.17847 3697.17749
3685.0 0.0002714 3698.05640 3698.05542
3677.0 0.0002720 3698.92725 3698.92749
3614.0 0.0002767 3699.79346 3699.79248
3737.0 0.0002676 3700.65234 3700.65210
3619.0 0.0002763 3701.50586 3701.50586
3581.0 0.0002793 3702.35449 3702.35449
3710.0 0.0002695 3703.19727 3703.19824
3642.0 0.0002746 3704.03638 3704.03662
3648.0 0.0002741 3704.87085 3704.87158
3752.0 0.0002665 3705.70093 3705.70142
3731.0 0.0002680 3706.52734 3706.52808
3785.0 0.0002642 3707.35034 3707.35229
3736.0 0.0002677 3708.17139 3708.17188
3861.0 0.0002590 3708.98804 3708.98926
3823.0 0.0002616 3709.80225 3709.80420
3727.0 0.0002683 3710.61475 3710.61621
3750.0 0.0002667 3711.42407 3711.42603
3800.0 0.0002632 3712.23242 3712.23438
3752.0 0.0002665 3713.03833 3713.04102
3725.0 0.0002685 3713.84351 3713.84668
3886.0 0.0002573 3714.64746 3714.64941
3875.0 0.0002581 3715.45044 3715.45239
3844.0 0.0002601 3716.25269 3716.25513
3747.0 0.0002669 3717.05396 3717.05786
3723.0 0.0002686 3717.85571 3717.85889
3766.0 0.0002655 3718.65649 3718.66064
3688.0 0.0002711 3719.45850 3719.46240
3655.0 0.0002736 3720.26099 3720.26392
3618.0 0.0002764 3721.06274 3721.06641
3734.0 0.0002678 3721.86646 3721.87061
3794.0 0.0002636 3722.67065 3722.67407
3811.0 0.0002624 3723.47559 3723.47998
3717.0 0.0002690 3724.28174 3724.28564
3757.0 0.0002662 3725.08984 3725.09399
3745.0 0.0002670 3725.89917 3725.90308
3722.0 0.0002687 3726.70972 3726.71436
3809.0 0.0002625 3727.52295 3727.52783
3800.0 0.0002632 3728.33740 3728.34253
3881.0 0.0002577 3729.15430 3729.15869
3786.0 0.0002641 3729.97363 3729.97803
3772.0 0.0002651 3730.79565 3730.80078
3848.0 0.0002599 3731.61914 3731.62500
3748.0 0.0002668 3732.44580 3732.45117
3733.0 0.0002679 3733.27612 3733.28174
3746.0 0.0002670 3734.10815 3734.11377
3832.0 0.0002610 3734.94287 3734.94922
3736.0 0.0002677 3735.78198 3735.78735
3695.0 0.0002706 3736.62231 3736.62939
3730.0 0.0002681 3737.46680 3737.47388
3796.0 0.0002634 3738.31543 3738.32129
3671.0 0.0002724 3739.16675 3739.17285
3585.0 0.0002789 3740.02075 3740.02759
3707.0 0.0002698 3740.87891 3740.88574
3798.0 0.0002633 3741.74023 3741.74707
3740.0 0.0002674 3742.60522 3742.61230
3734.0 0.0002678 3743.47437 3743.48120
3706.0 0.0002698 3744.34692 3744.35400
3811.0 0.0002624 3745.22314 3745.22974
3740.0 0.0002674 3746.10254 3746.11060
3810.0 0.0002625 3746.98730 3746.99414
3849.0 0.0002598 3747.87427 3747.88184
3880.0 0.0002577 3748.76563 3748.77344
3837.0 0.0002606 3749.66040 3749.66797
3829.0 0.0002612 3750.56006 3750.56763
3864.0 0.0002588 3751.46313 3751.47095
3882.0 0.0002576 3752.37036 3752.37817
3941.0 0.0002537 3753.28149 3753.28931
3780.0 0.0002646 3754.19653 3754.20410
3745.0 0.0002670 3755.11450 3755.12305
3759.0 0.0002660 3756.03760 3756.04590
3743.0 0.0002672 3756.96387 3756.97241
3759.0 0.0002660 3757.89380 3757.90283
3772.0 0.0002651 3758.82910 3758.83716
3751.0 0.0002666 3759.76733 3759.77539
3805.0 0.0002628 3760.70947 3760.71777
3695.0 0.0002706 3761.65454 3761.66235
3678.0 0.0002719 3762.60449 3762.61353
3762.0 0.0002658 3763.55835 3763.56592
3761.0 0.0002659 3764.51440 3764.52319
3768.0 0.0002654 3765.47559 3765.48340
3799.0 0.0002632 3766.43896 3766.44751
3797.0 0.0002634 3767.40723 3767.41577
3790.0 0.0002639 3768.37842 3768.38623
3816.0 0.0002621 3769.35278 3769.36060
3709.0 0.0002696 3770.33008 3770.33887
3723.0 0.0002686 3771.31152 3771.32129
3749.0 0.0002667 3772.29614 3772.30493
3809.0 0.0002625 3773.28418 3773.29321
3868.0 0.0002585 3774.27490 3774.28320
3841.0 0.0002603 3775.26855 3775.27832
3806.0 0.0002627 3776.26538 3776.27417
3808.0 0.0002626 3777.26489 3777.27417
3845.0 0.0002601 3778.26855 3778.27686
3794.0 0.0002636 3779.27393 3779.28223
3885.0 0.0002574 3780.28247 3780.28955
3811.0 0.0002624 3781.29272 3781.30127
3718.0 0.0002690 3782.30518 3782.31396
3761.0 0.0002659 3783.32129 3783.32935
3689.0 0.0002711 3784.33911 3784.34790
3872.0 0.0002583 3785.35840 3785.36768
3837.0 0.0002606 3786.38013 3786.38916
3836.0 0.0002607 3787.40552 3787.41357
3808.0 0.0002626 3788.43140 3788.44092
3861.0 0.0002590 3789.45923 3789.46826
3882.0 0.0002576 3790.48950 3790.49756
3784.0 0.0002643 3791.52100 3791.52930
3830.0 0.0002611 3792.55347 3792.56226
3831.0 0.0002610 3793.58789 3793.59644
3845.0 0.0002601 3794.62354 3794.63184
3766.0 0.0002655 3795.66113 3795.66895
3890.0 0.0002571 3796.69849 3796.70630
4013.0 0.0002492 3797.73828 3797.74561
3872.0 0.0002583 3798.77734 3798.78613
3796.0 0.0002634 3799.81836 3799.82593
3763.0 0.0002657 3800.85938 3800.86743
3783.0 0.0002643 3801.90186 3801.90991
3855.0 0.0002594 3802.94287 3802.95044
3862.0 0.0002589 3803.98584 3803.99341
3835.0 0.0002608 3805.02832 3805.03735
3882.0 0.0002576 3806.07153 3806.07935
3834.0 0.0002608 3807.11401 3807.12207
3863.0 0.0002589 3808.15698 3808.16431
3860.0 0.0002591 3809.19922 3809.20654
3783.0 0.0002643 3810.24072 3810.24854
3744.0 0.0002671 3811.28198 3811.28931
3867.0 0.0002586 3812.32324 3812.33057
3882.0 0.0002576 3813.36255 3813.36987
3791.0 0.0002638 3814.40112 3814.40918
3778.0 0.0002647 3815.43921 3815.44678
3874.0 0.0002581 3816.47583 3816.48315
3923.0 0.0002549 3817.51099 3817.51855
3805.0 0.0002628 3818.54565 3818.55200
3758.0 0.0002661 3819.57764 3819.58545
3745.0 0.0002670 3820.60864 3820.61523
3789.0 0.0002639 3821.63770 3821.64404
3752.0 0.0002665 3822.66431 3822.67090
4032.0 0.0002480 3823.68896 3823.69604
4017.0 0.0002489 3824.71216 3824.71875
3912.0 0.0002556 3825.73193 3825.73901
3815.0 0.0002621 3826.75073 3826.75732
3813.0 0.0002623 3827.76563 3827.77295
3872.0 0.0002583 3828.77905 3828.78540
3786.0 0.0002641 3829.78906 3829.79541
3697.0 0.0002705 3830.79614 3830.80200
3709.0 0.0002696 3831.79956 3831.80591
3867.0 0.0002586 3832.80151 3832.80664
3763.0 0.0002657 3833.79883 3833.80396
3761.0 0.0002659 3834.79126 3834.79785
3770.0 0.0002653 3835.78296 3835.78857
3811.0 0.0002624 3836.76904 3836.77490
3860.0 0.0002591 3837.75317 3837.75830
3915.0 0.0002554 3838.73218 3838.73682
3859.0 0.0002591 3839.70679 3839.71265
3827.0 0.0002613 3840.67749 3840.68335
3778.0 0.0002647 3841.64453 3841.64966
3772.0 0.0002651 3842.60596 3842.61108
3810.0 0.0002625 3843.56396 3843.56909
3796.0 0.0002634 3844.51709 3844.52148
3870.0 0.0002584 3845.46484 3845.47021
3807.0 0.0002627 3846.40796 3846.41309
3838.0 0.0002606 3847.34668 3847.35181
3851.0 0.0002597 3848.27881 3848.28442
3834.0 0.0002608 3849.20703 3849.21289
3779.0 0.0002646 3850.13013 3850.13354
3751.0 0.0002666 3851.04736 3851.05103
3654.0 0.0002737 3851.95923 3851.96362
3762.0 0.0002658 3852.86401 3852.86841
3938.0 0.0002539 3853.76465 3853.76758
3868.0 0.0002585 3854.65845 3854.66260
3821.0 0.0002617 3855.54663 3855.55005
3865.0 0.0002587 3856.42822 3856.43213
3890.0 0.0002571 3857.30420 3857.30859
3864.0 0.0002588 3858.17334 3858.17725
3890.0 0.0002571 3859.03662 3859.04053
3831.0 0.0002610 3859.89331 3859.89575
3797.0 0.0002634 3860.74243 3860.74585
3751.0 0.0002666 3861.58545 3861.58789
3715.0 0.0002692 3862.42188 3862.42456
3791.0 0.0002638 3863.25122 3863.25391
3770.0 0.0002653 3864.07275 3864.07568
3850.0 0.0002597 3864.88818 3864.89038
3884.0 0.0002575 3865.69580 3865.69800
3846.0 0.0002600 3866.49561 3866.49829
3869.0 0.0002585 3867.28882 3867.29102
3906.0 0.0002560 3868.07422 3868.07690
3808.0 0.0002626 3868.85229 3868.85474
3914.0 0.0002555 3869.62134 3869.62476
3841.0 0.0002603 3870.38477 3870.38672
3794.0 0.0002636 3871.13892 3871.14136
3774.0 0.0002650 3871.88550 3871.88745
3895.0 0.0002567 3872.62500 3872.62622
3821.0 0.0002617 3873.35498 3873.35645
3893.0 0.0002569 3874.07666 3874.07837
3924.0 0.0002548 3874.79053 3874.79272
3860.0 0.0002591 3875.49585 3875.49780
3906.0 0.0002560 3876.19287 3876.19434
3924.0 0.0002548 3876.88208 3876.88281
3892.0 0.0002569 3877.56177 3877.56348
3863.0 0.0002589 3878.23438 3878.23486
3971.0 0.0002518 3878.89551 3878.89673
3966.0 0.0002521 3879.54932 3879.55127
3889.0 0.0002571 3880.19507 3880.19629
3770.0 0.0002653 3880.83105 3880.83154
3851.0 0.0002597 3881.45825 3881.45850
3862.0 0.0002589 3882.07593 3882.07690
3761.0 0.0002659 3882.68555 3882.68506
3912.0 0.0002556 3883.28442 3883.28564
3851.0 0.0002597 3883.87524 3883.87573
3869.0 0.0002585 3884.45605 3884.45728
3814.0 0.0002622 3885.02905 3885.02905
3804.0 0.0002629 3885.59155 3885.59082
3852.0 0.0002596 3886.14429 3886.14380
3723.0 0.0002686 3886.68823 3886.68750
3765.0 0.0002656 3887.22168 3887.22144
3914.0 0.0002555 3887.74683 3887.74609
3909.0 0.0002558 3888.26147 3888.25977
3980.0 0.0002513 3888.76636 3888.76636
3915.0 0.0002554 3889.26221 3889.26123
3758.0 0.0002661 3889.74780 3889.74756
3825.0 0.0002614 3890.22363 3890.22314
3833.0 0.0002609 3890.68921 3890.68872
3938.0 0.0002539 3891.14551 3891.14429
3827.0 0.0002613 3891.59155 3891.59082
3841.0 0.0002603 3892.02832 3892.02661
3839.0 0.0002605 3892.45386 3892.45313
3769.0 0.0002653 3892.87109 3892.86963
3854.0 0.0002595 3893.27710 3893.27563
3756.0 0.0002662 3893.67310 3893.67188
3888.0 0.0002572 3894.06006 3894.05835
3886.0 0.0002573 3894.43530 3894.43335
3900.0 0.0002564 3894.80200 3894.79980
3863.0 0.0002589 3895.15723 3895.15552
3877.0 0.0002579 3895.50317 3895.50146
3924.0 0.0002548 3895.83838 3895.83618
3858.0 0.0002592 3896.16284 3896.16113
3966.0 0.0002521 3896.47925 3896.47632
3966.0 0.0002521 3896.78345 3896.78174
3960.0 0.0002525 3897.07788 3897.07544
3958.0 0.0002527 3897.36157 3897.36011
3910.0 0.0002558 3897.63599 3897.63306
3811.0 0.0002624 3897.89966 3897.89648
3822.0 0.0002616 3898.15283 3898.15015
3836.0 0.0002607 3898.39648 3898.39307
3940.0 0.0002538 3898.62866 3898.62646
3843.0 0.0002602 3898.85229 3898.84912
3924.0 0.0002548 3899.06396 3899.06104
3938.0 0.0002539 3899.26514 3899.26294
3916.0 0.0002554 3899.45752 3899.45483
3985.0 0.0002509 3899.63843 3899.63672
3905.0 0.0002561 3899.81055 3899.80664
3928.0 0.0002546 3899.97021 3899.96875
3975.0 0.0002516 3900.12109 3900.11841
3960.0 0.0002525 3900.26245 3900.25928
4018.0 0.0002489 3900.39331 3900.38940
3913.0 0.0002556 3900.51221 3900.50903
3894.0 0.0002568 3900.62231 3900.61963
3857.0 0.0002593 3900.72168 3900.71826
3855.0 0.0002594 3900.81128 3900.80786
3855.0 0.0002594 3900.89014 3900.88696
3932.0 0.0002543 3900.95972 3900.95581
3928.0 0.0002546 3901.01855 3901.01587
3866.0 0.0002587 3901.06787 3901.06519
3858.0 0.0002592 3901.10645 3901.10303
3866.0 0.0002587 3901.13574 3901.13232
3900.0 0.0002564 3901.15503 3901.15137
3970.0 0.0002519 3901.16406 3901.16064
3897.0 0.0002566 3901.16235 3901.15918
3869.0 0.0002585 3901.15161 3901.14819
3913.0 0.0002556 3901.13037 3901.12695
3905.0 0.0002561 3901.09863 3901.09668
3993.0 0.0002504 3901.05933 3901.05542
3809.0 0.0002625 3901.00928 3901.00586
3865.0 0.0002587 3900.94873 3900.94458
3922.0 0.0002550 3900.87842 3900.87476
3811.0 0.0002624 3900.79932 3900.79565
3857.0 0.0002593 3900.71094 3900.70703
3819.0 0.0002618 3900.61255 3900.60840
3822.0 0.0002616 3900.50391 3900.50049
3958.0 0.0002527 3900.38574 3900.38208
3943.0 0.0002536 3900.25879 3900.25415
3888.0 0.0002572 3900.12183 3900.11792
3928.0 0.0002546 3899.97656 3899.97192
3950.0 0.0002532 3899.82104 3899.81665
3922.0 0.0002550 3899.65625 3899.65234
3982.0 0.0002511 3899.48120 3899.47827
4015.0 0.0002491 3899.29907 3899.29541
3910.0 0.0002558 3899.10718 3899.10400
3861.0 0.0002590 3898.90576 3898.90186
3733.0 0.0002679 3898.69531 3898.69214
3757.0 0.0002662 3898.47583 3898.47339
3870.0 0.0002584 3898.24854 3898.24438
3892.0 0.0002569 3898.01074 3898.00732
3972.0 0.0002518 3897.76611 3897.76221
3942.0 0.0002537 3897.51172 3897.50732
3873.0 0.0002582 3897.24805 3897.24463
3860.0 0.0002591 3896.97656 3896.97290
3834.0 0.0002608 3896.69629 3896.69287
3885.0 0.0002574 3896.40698 3896.40454
3836.0 0.0002607 3896.11035 3896.10693
3832.0 0.0002610 3895.80469 3895.80127
3855.0 0.0002594 3895.49170 3895.48706
3815.0 0.0002621 3895.16943 3895.16577
3706.0 0.0002698 3894.83960 3894.83521
3626.0 0.0002758 3894.50098 3894.49634
3754.0 0.0002664 3894.15356 3894.15088
3757.0 0.0002662 3893.79980 3893.79712
3879.0 0.0002578 3893.43750 3893.43481
3859.0 0.0002591 3893.06787 3893.06421
3942.0 0.0002537 3892.68970 3892.68628
3883.0 0.0002575 3892.30396 3892.30103
3877.0 0.0002579 3891.91138 3891.90723
3848.0 0.0002599 3891.51001 3891.50659
3852.0 0.0002596 3891.10278 3891.09937
3879.0 0.0002578 3890.68701 3890.68311
3834.0 0.0002608 3890.26392 3890.26099
3809.0 0.0002625 3889.83423 3889.83057
3761.0 0.0002659 3889.39697 3889.39331
3824.0 0.0002615 3888.95288 3888.94971
3880.0 0.0002577 3888.50122 3888.49805
3903.0 0.0002562 3888.04370 3888.04053
3893.0 0.0002569 3887.57861 3887.57520
3850.0 0.0002597 3887.10669 3887.10352
3905.0 0.0002561 3886.62744 3886.62476
3855.0 0.0002594 3886.14282 3886.13989
3862.0 0.0002589 3885.65137 3885.64844
3839.0 0.0002605 3885.15332 3885.15015
3873.0 0.0002582 3884.64795 3884.64526
3781.0 0.0002645 3884.13672 3884.13477
3744.0 0.0002671 3883.61938 3883.61743
3859.0 0.0002591 3883.09692 3883.09399
3934.0 0.0002542 3882.56738 3882.56519
3906.0 0.0002560 3882.03296 3882.02979
3957.0 0.0002527 3881.49121 3881.48975
3957.0 0.0002527 3880.94409 3880.94141
3874.0 0.0002581 3880.39185 3880.38965
3873.0 0.0002582 3879.83374 3879.83130
3830.0 0.0002611 3879.26880 3879.26709
3898.0 0.0002565 3878.70020 3878.69800
3902.0 0.0002563 3878.12524 3878.12329
3818.0 0.0002619 3877.54517 3877.54272
3913.0 0.0002556 3876.96045 3876.95776
3981.0 0.0002512 3876.37012 3876.36792
3915.0 0.0002554 3875.77393 3875.77197
3847.0 0.0002599 3875.17383 3875.17139
3807.0 0.0002627 3874.56885 3874.56665
3883.0 0.0002575 3873.95825 3873.95605
3836.0 0.0002607 3873.34351 3873.34155
3720.0 0.0002688 3872.72388 3872.72192
3838.0 0.0002606 3872.10034 3872.09888
3767.0 0.0002655 3871.47266 3871.46973
3685.0 0.0002714 3870.83911 3870.83813
3758.0 0.0002661 3870.20166 3870.20044
3913.0 0.0002556 3869.56104 3869.55933
3858.0 0.0002592 3868.91602 3868.91455
3870.0 0.0002584 3868.26587 3868.26489
3794.0 0.0002636 3867.61304 3867.61108
3838.0 0.0002606 3866.95605 3866.95483
3841.0 0.0002603 3866.29443 3866.29321
3915.0 0.0002554 3865.63135 3865.63013
3816.0 0.0002621 3864.96191 3864.96143
3825.0 0.0002614 3864.29175 3864.29028
3860.0 0.0002591 3863.61572 3863.61572
3994.0 0.0002504 3862.93774 3862.93652
3842.0 0.0002603 3862.25610 3862.25537
3719.0 0.0002689 3861.57178 3861.57056
3805.0 0.0002628 3860.88354 3860.88232
3864.0 0.0002588 3860.19238 3860.19287
3810.0 0.0002625 3859.49927 3859.49927
3803.0 0.0002630 3858.80298 3858.80298
3786.0 0.0002641 3858.10352 3858.10352
3868.0 0.0002585 3857.40161 3857.40088
3990.0 0.0002506 3856.69727 3856.69751
3925.0 0.0002548 3855.99097 3855.99097
3923.0 0.0002549 3855.28174 3855.28149
3909.0 0.0002558 3854.57031 3854.57031
3868.0 0.0002585 3853.85620 3853.85620
3853.0 0.0002595 3853.14087 3853.14038
3780.0 0.0002646 3852.42261 3852.42285
3728.0 0.0002682 3851.70337 3851.70313
3864.0 0.0002588 3850.98145 3850.98145
3797.0 0.0002634 3850.25806 3850.25806
3967.0 0.0002521 3849.53174 3849.53320
3938.0 0.0002539 3848.80615 3848.80566
3948.0 0.0002533 3848.07813 3848.07788
3949.0 0.0002532 3847.34741 3847.34839
3865.0 0.0002587 3846.61694 3846.61743
3844.0 0.0002601 3845.88428 3845.88477
3880.0 0.0002577 3845.15039 3845.15137
3875.0 0.0002581 3844.41504 3844.41772
3904.0 0.0002561 3843.67969 3843.68115
3786.0 0.0002641 3842.94312 3842.94409
3873.0 0.0002582 3842.20459 3842.20703
3866.0 0.0002587 3841.46655 3841.46753
3886.0 0.0002573 3840.72681 3840.72876
3822.0 0.0002616 3839.98730 3839.98853
3901.0 0.0002563 3839.24658 3839.24829
4009.0 0.0002494 3838.50537 3838.50708
3881.0 0.0002577 3837.76367 3837.76611
3823.0 0.0002616 3837.02197 3837.02417
3696.0 0.0002706 3836.28076 3836.28223
3727.0 0.0002683 3835.53809 3835.54028
3858.0 0.0002592 3834.79541 3834.79761
3854.0 0.0002595 3834.05322 3834.05469
3857.0 0.0002593 3833.31128 3833.31372
3828.0 0.0002612 3832.56860 3832.57104
3826.0 0.0002614 3831.82690 3831.82886
3765.0 0.0002656 3831.08472 3831.08716
3737.0 0.0002676 3830.34277 3830.34546
3788.0 0.0002640 3829.60205 3829.60449
3798.0 0.0002633 3828.86133 3828.86475
3913.0 0.0002556 3828.12085 3828.12427
4012.0 0.0002493 3827.38159 3827.38379
3954.0 0.0002529 3826.64185 3826.64526
3920.0 0.0002551 3825.90479 3825.90723
3785.0 0.0002642 3825.16748 3825.16992
3880.0 0.0002577 3824.43042 3824.43311
3831.0 0.0002610 3823.69507 3823.69800
3759.0 0.0002660 3822.96045 3822.96436
3855.0 0.0002594 3822.22705 3822.23096
3890.0 0.0002571 3821.49561 3821.49854
3792.0 0.0002637 3820.76440 3820.76807
3823.0 0.0002616 3820.03467 3820.03833
3831.0 0.0002610 3819.30615 3819.30957
3857.0 0.0002593 3818.57886 3818.58301
3868.0 0.0002585 3817.85327 3817.85693
3866.0 0.0002587 3817.12866 3817.13330
3942.0 0.0002537 3816.40674 3816.41089
3869.0 0.0002585 3815.68579 3815.69067
3813.0 0.0002623 3814.96704 3814.97119
3817.0 0.0002620 3814.24951 3814.25391
3817.0 0.0002620 3813.53442 3813.53760
3858.0 0.0002592 3812.82056 3812.82495
3731.0 0.0002680 3812.10840 3812.11377
3842.0 0.0002603 3811.39844 3811.40332
3880.0 0.0002577 3810.69165 3810.69629
3830.0 0.0002611 3809.98608 3809.99097
3872.0 0.0002583 3809.28320 3809.28760
3713.0 0.0002693 3808.58276 3808.58643
3700.0 0.0002703 3807.88257 3807.88770
3791.0 0.0002638 3807.18628 3807.19067
3815.0 0.0002621 3806.49243 3806.49707
3832.0 0.0002610 3805.80078 3805.80542
3793.0 0.0002636 3805.11206 3805.11670
3866.0 0.0002587 3804.42505 3804.43042
3846.0 0.0002600 3803.74072 3803.74561
3793.0 0.0002636 3803.05908 3803.06421
3747.0 0.0002669 3802.38062 3802.38672
3810.0 0.0002625 3801.70410 3801.71021
3964.0 0.0002523 3801.03101 3801.03662
3869.0 0.0002585 3800.36060 3800.36646
3921.0 0.0002550 3799.69312 3799.69873
3806.0 0.0002627 3799.02832 3799.03345
3946.0 0.0002534 3798.36646 3798.37207
3817.0 0.0002620 3797.70776 3797.71362
3828.0 0.0002612 3797.05151 3797.05786
3775.0 0.0002649 3796.39893 3796.40479
3857.0 0.0002593 3795.74951 3795.75562
3829.0 0.0002612 3795.10278 3795.10913
3894.0 0.0002568 3794.46021 3794.46606
3923.0 0.0002549 3793.82031 3793.82568
3881.0 0.0002577 3793.18335 3793.18945
3829.0 0.0002612 3792.54980 3792.55591
3891.0 0.0002570 3791.91968 3791.92578
3887.0 0.0002573 3791.29272 3791.29956
3855.0 0.0002594 3790.66919 3790.67578
3889.0 0.0002571 3790.04980 3790.05615
3901.0 0.0002563 3789.43359 3789.44043
3909.0 0.0002558 3788.81982 3788.82690
3899.0 0.0002565 3788.21069 3788.21753
3833.0 0.0002609 3787.60498 3787.61230
3872.0 0.0002583 3787.00293 3787.00977
3924.0 0.0002548 3786.40405 3786.41162
3947.0 0.0002534 3785.80981 3785.81665
3844.0 0.0002601 3785.21875 3785.22510
3738.0 0.0002675 3784.63086 3784.63770
3838.0 0.0002606 3784.04712 3784.05396
3831.0 0.0002610 3783.46704 3783.47437
3734.0 0.0002678 3782.89160 3782.89819
3892.0 0.0002569 3782.31787 3782.32593
3887.0 0.0002573 3781.75024 3781.75732
3775.0 0.0002649 3781.18530 3781.19312
3813.0 0.0002623 3780.62427 3780.63184
3910.0 0.0002558 3780.06763 3780.07446
3960.0 0.0002525 3779.51465 3779.52173
3903.0 0.0002562 3778.96509 3778.97290
3923.0 0.0002549 3778.42041 3778.42798
3927.0 0.0002546 3777.87866 3777.88647
3847.0 0.0002599 3777.34253 3777.34985
4000.0 0.0002500 3776.80835 3776.81616
3992.0 0.0002505 3776.28027 3776.28711
3849.0 0.0002598 3775.75415 3775.76270
3890.0 0.0002571 3775.23340 3775.24097
3849.0 0.0002598 3774.71631 3774.72437
3889.0 0.0002571 3774.20337 3774.21118
3748.0 0.0002668 3773.69482 3773.70239
3674.0 0.0002722 3773.18994 3773.19824
3824.0 0.0002615 3772.69043 3772.69751
3794.0 0.0002636 3772.19409 3772.20166
3807.0 0.0002627 3771.70117 3771.70923
3834.0 0.0002608 3771.21289 3771.22070
3835.0 0.0002608 3770.72852 3770.73608
3823.0 0.0002616 3770.24829 3770.25708
3767.0 0.0002655 3769.77344 3769.78125
3717.0 0.0002690 3769.30127 3769.30981
3769.0 0.0002653 3768.83423 3768.84253
3857.0 0.0002593 3768.37158 3768.37891
3858.0 0.0002592 3767.91260 3767.92041
3887.0 0.0002573 3767.45703 3767.46558
3811.0 0.0002624 3767.00659 3767.01465
3862.0 0.0002589 3766.56030 3766.56860
3743.0 0.0002672 3766.11719 3766.12646
3704.0 0.0002700 3765.68042 3765.68774
3760.0 0.0002660 3765.24634 3765.25439
3739.0 0.0002675 3764.81641 3764.82520
3843.0 0.0002602 3764.39087 3764.39917
3872.0 0.0002583 3763.96948 3763.97754
3952.0 0.0002530 3763.55200 3763.56079
3780.0 0.0002646 3763.13940 3763.14697
3700.0 0.0002703 3762.73022 3762.73828
3736.0 0.0002677 3762.32593 3762.33398
3850.0 0.0002597 3761.92505 3761.93311
3750.0 0.0002667 3761.52808 3761.53687
3819.0 0.0002618 3761.13696 3761.14429
3813.0 0.0002623 3760.74731 3760.75635
3788.0 0.0002640 3760.36353 3760.37207
3748.0 0.0002668 3759.98438 3759.99292
3813.0 0.0002623 3759.60840 3759.61694
3851.0 0.0002597 3759.23657 3759.24463
3784.0 0.0002643 3758.86865 3758.87769
3912.0 0.0002556 3758.50415 3758.51343
3882.0 0.0002576 3758.14551 3758.15381
3841.0 0.0002603 3757.79028 3757.79858
3907.0 0.0002560 3757.43872 3757.44751
3850.0 0.0002597 3757.09106 3757.09961
3874.0 0.0002581 3756.74780 3756.75635
3855.0 0.0002594 3756.40796 3756.41602
3781.0 0.0002645 3756.07251 3756.08105
3786.0 0.0002641 3755.74072 3755.75024
3827.0 0.0002613 3755.41431 3755.42261
3805.0 0.0002628 3755.09009 3755.09888
3762.0 0.0002658 3754.76953 3754.77832
3735.0 0.0002677 3754.45435 3754.46240
3790.0 0.0002639 3754.14185 3754.15039
3767.0 0.0002655 3753.83398 3753.84229
3720.0 0.0002688 3753.52954 3753.53760
3754.0 0.0002664 3753.22827 3753.23706
3811.0 0.0002624 3752.93115 3752.93994
3750.0 0.0002667 3752.63794 3752.64746
3785.0 0.0002642 3752.34839 3752.35693
3750.0 0.0002667 3752.06250 3752.07153
3796.0 0.0002634 3751.78052 3751.78882
3773.0 0.0002650 3751.50244 3751.51050
3733.0 0.0002679 3751.22729 3751.23584
3672.0 0.0002723 3750.95605 3750.96509
3808.0 0.0002626 3750.68823 3750.69751
3845.0 0.0002601 3750.42407 3750.43311
3749.0 0.0002667 3750.16382 3750.17261
3792.0 0.0002637 3749.90576 3749.91455
3760.0 0.0002660 3749.65259 3749.66089
3676.0 0.0002720 3749.40234 3749.41113
3740.0 0.0002674 3749.15601 3749.16455
3872.0 0.0002583 3748.91187 3748.92139
3768.0 0.0002654 3748.67261 3748.68042
3726.0 0.0002684 3748.43555 3748.44434
3744.0 0.0002671 3748.20117 3748.20996
3802.0 0.0002630 3747.97192 3747.97974
3741.0 0.0002673 3747.74463 3747.75293
3773.0 0.0002650 3747.52075 3747.52979
3683.0 0.0002715 3747.30005 3747.30835
3771.0 0.0002652 3747.08252 3747.09106
3724.0 0.0002685 3746.86768 3746.87598
3832.0 0.0002610 3746.65674 3746.66553
3900.0 0.0002564 3746.44775 3746.45679
3883.0 0.0002575 3746.24268 3746.25049
3766.0 0.0002655 3746.04004 3746.04858
3656.0 0.0002735 3745.84058 3745.84790
3761.0 0.0002659 3745.64380 3745.65186
3769.0 0.0002653 3745.45020 3745.45801
3733.0 0.0002679 3745.25879 3745.26685
3761.0 0.0002659 3745.07007 3745.07886
3807.0 0.0002627 3744.88477 3744.89282
3696.0 0.0002706 3744.70142 3744.70972
3691.0 0.0002709 3744.52148 3744.52954
3736.0 0.0002677 3744.34351 3744.35132
3725.0 0.0002685 3744.16895 3744.17627
3843.0 0.0002602 3743.99683 3744.00415
3780.0 0.0002646 3743.82617 3743.83398
3786.0 0.0002641 3743.65894 3743.66528
3836.0 0.0002607 3743.49292 3743.50146
3852.0 0.0002596 3743.33057 3743.33838
3768.0 0.0002654 3743.16992 3743.17700
3672.0 0.0002723 3743.01147 3743.01929
3696.0 0.0002706 3742.85547 3742.86328
3878.0 0.0002579 3742.70166 3742.70923
3887.0 0.0002573 3742.54980 3742.55713
3856.0 0.0002593 3742.40063 3742.40869
3629.0 0.0002756 3742.25317 3742.26050
3701.0 0.0002702 3742.10767 3742.11597
3775.0 0.0002649 3741.96411 3741.97119
3724.0 0.0002685 3741.82251 3741.82983
3669.0 0.0002726 3741.68359 3741.69116
3759.0 0.0002660 3741.54590 3741.55322
3708.0 0.0002697 3741.40967 3741.41724
3794.0 0.0002636 3741.27490 3741.28247
3670.0 0.0002725 3741.14355 3741.15063
3717.0 0.0002690 3741.01318 3741.01953
3621.0 0.0002762 3740.88330 3740.89038
3578.0 0.0002795 3740.75586 3740.76270
3591.0 0.0002785 3740.63013 3740.63672
3716.0 0.0002691 3740.50537 3740.51245
3783.0 0.0002643 3740.38208 3740.38940
3757.0 0.0002662 3740.26099 3740.26782
3681.0 0.0002717 3740.14160 3740.14771
3655.0 0.0002736 3740.02173 3740.02881
3703.0 0.0002701 3739.90332 3739.91089
3663.0 0.0002730 3739.78760 3739.79419
3740.0 0.0002674 3739.67236 3739.67969
3765.0 0.0002656 3739.55786 3739.56470
3733.0 0.0002679 3739.44507 3739.45239
3694.0 0.0002707 3739.33350 3739.33984
3724.0 0.0002685 3739.22217 3739.22900
3791.0 0.0002638 3739.11206 3739.11865
3689.0 0.0002711 3739.00317 3739.00928
3826.0 0.0002614 3738.89429 3738.90039
3805.0 0.0002628 3738.78687 3738.79395
3675.0 0.0002721 3738.67969 3738.68677
3709.0 0.0002696 3738.57397 3738.58081
3781.0 0.0002645 3738.46851 3738.47485
3774.0 0.0002650 3738.36377 3738.36938
3735.0 0.0002677 3738.25903 3738.26587
3830.0 0.0002611 3738.15552 3738.16187
3608.0 0.0002772 3738.05225 3738.05811
3647.0 0.0002742 3737.94873 3737.95557
3638.0 0.0002749 3737.84644 3737.85229
3662.0 0.0002731 3737.74414 3737.75000
3674.0 0.0002722 3737.64233 3737.64819
3704.0 0.0002700 3737.54053 3737.54590
3718.0 0.0002690 3737.43872 3737.44409
3752.0 0.0002665 3737.33691 3737.34277
3744.0 0.0002671 3737.23560 3737.24146
3732.0 0.0002680 3737.13550 3737.14014
3827.0 0.0002613 3737.03320 3737.03882
3775.0 0.0002649 3736.93213 3736.93750
3641.0 0.0002746 3736.82983 3736.83521
3639.0 0.0002748 3736.72803 3736.73315
3717.0 0.0002690 3736.62646 3736.63208
3631.0 0.0002754 3736.52417 3736.52905
3725.0 0.0002685 3736.42090 3736.42676
3743.0 0.0002672 3736.31812 3736.32275
3702.0 0.0002701 3736.21558 3736.21948
3712.0 0.0002694 3736.11108 3736.11597
3598.0 0.0002779 3736.00659 3736.01196
3658.0 0.0002734 3735.90137 3735.90649
3681.0 0.0002717 3735.79614 3735.80005
3671.0 0.0002724 3735.68872 3735.69458
3665.0 0.0002729 3735.58276 3735.58691
3774.0 0.0002650 3735.47510 3735.47949
3792.0 0.0002637 3735.36646 3735.37134
3707.0 0.0002698 3735.25610 3735.26123
3759.0 0.0002660 3735.14648 3735.15039
3732.0 0.0002680 3735.03516 3735.03955
3683.0 0.0002715 3734.92358 3734.92749
3614.0 0.0002767 3734.80957 3734.81396
3706.0 0.0002698 3734.69507 3734.69995
3713.0 0.0002693 3734.57935 3734.58447
3748.0 0.0002668 3734.46216 3734.46704
3663.0 0.0002730 3734.34497 3734.34888
3573.0 0.0002799 3734.22559 3734.22925
3625.0 0.0002759 3734.10547 3734.10938
3747.0 0.0002669 3733.98267 3733.98682
3675.0 0.0002721 3733.85962 3733.86353
3735.0 0.0002677 3733.73511 3733.73950
3723.0 0.0002686 3733.60889 3733.61255
3735.0 0.0002677 3733.48071 3733.48462
3623.0 0.0002760 3733.35132 3733.35498
3629.0 0.0002756 3733.21973 3733.22290
3639.0 0.0002748 3733.08740 3733.09009
3667.0 0.0002727 3732.95239 3732.95605
3715.0 0.0002692 3732.81592 3732.82007
3793.0 0.0002636 3732.67798 3732.68140
3718.0 0.0002690 3732.53784 3732.54150
3723.0 0.0002686 3732.39551 3732.39868
3740.0 0.0002674 3732.25146 3732.25439
3795.0 0.0002635 3732.10547 3732.10864
3789.0 0.0002639 3731.95752 3731.96045
3717.0 0.0002690 3731.80737 3731.81030
3764.0 0.0002657 3731.65430 3731.65820
3752.0 0.0002665 3731.50024 3731.50317
3647.0 0.0002742 3731.34302 3731.34595
3655.0 0.0002736 3731.18359 3731.18726
3759.0 0.0002660 3731.02246 3731.02563
3814.0 0.0002622 3730.85864 3730.86230
3695.0 0.0002706 3730.69263 3730.69531
3735.0 0.0002677 3730.52417 3730.52661
3675.0 0.0002721 3730.35327 3730.35522
3513.0 0.0002847 3730.17944 3730.18115
3640.0 0.0002747 3730.00269 3730.00513
3669.0 0.0002726 3729.82397 3729.82642
3828.0 0.0002612 3729.64233 3729.64404
3791.0 0.0002638 3729.45825 3729.46045
3815.0 0.0002621 3729.27051 3729.27319
3691.0 0.0002709 3729.08252 3729.08350
3635.0 0.0002751 3728.88940 3728.89063
3654.0 0.0002737 3728.69263 3728.69434
3596.0 0.0002781 3728.49487 3728.49585
3624.0 0.0002759 3728.29395 3728.29541
3645.0 0.0002743 3728.08911 3728.09033
3680.0 0.0002717 3727.88159 3727.88379
3756.0 0.0002662 3727.67139 3727.67212
3652.0 0.0002738 3727.45801 3727.45923
3595.0 0.0002782 3727.24243 3727.24316
3682.0 0.0002716 3727.02197 3727.02271
3644.0 0.0002744 3726.79834 3726.80005
3597.0 0.0002780 3726.57275 3726.57349
3681.0 0.0002717 3726.34326 3726.34424
3646.0 0.0002743 3726.11011 3726.11084
3622.0 0.0002761 3725.87451 3725.87476
3674.0 0.0002722 3725.63477 3725.63574
3632.0 0.0002753 3725.39160 3725.39282
3639.0 0.0002748 3725.14526 3725.14600
3778.0 0.0002647 3724.89551 3724.89624
3643.0 0.0002745 3724.64160 3724.64185
3614.0 0.0002767 3724.38428 3724.38501
3638.0 0.0002749 3724.12402 3724.12500
3580.0 0.0002793 3723.85913 3723.86035
3639.0 0.0002748 3723.59155 3723.59277
3598.0 0.0002779 3723.32007 3723.32056
3586.0 0.0002789 3723.04492 3723.04590
3670.0 0.0002725 3722.76563 3722.76636
3738.0 0.0002675 3722.48267 3722.48291
3543.0 0.0002822 3722.19629 3722.19653
3625.0 0.0002759 3721.90527 3721.90601
3660.0 0.0002732 3721.61182 3721.61133
3685.0 0.0002714 3721.31226 3721.31299
3654.0 0.0002737 3721.01074 3721.01050
3589.0 0.0002786 3720.70337 3720.70410
3567.0 0.0002803 3720.39404 3720.39404
3551.0 0.0002816 3720.07959 3720.08032
3660.0 0.0002732 3719.76074 3719.76172
3668.0 0.0002726 3719.43945 3719.43896
3586.0 0.0002789 3719.11230 3719.11206
3504.0 0.0002854 3718.78174 3718.78101
3633.0 0.0002753 3718.44702 3718.44678
3572.0 0.0002800 3718.10767 3718.10693
3563.0 0.0002807 3717.76440 3717.76416
3608.0 0.0002772 3717.41724 3717.41577
3661.0 0.0002731 3717.06470 3717.06470
3585.0 0.0002789 3716.70898 3716.70850
3664.0 0.0002729 3716.34766 3716.34790
3666.0 0.0002728 3715.98364 3715.98267
3643.0 0.0002745 3715.61499 3715.61450
3739.0 0.0002675 3715.24048 3715.24023
3656.0 0.0002735 3714.86304 3714.86182
3667.0 0.0002727 3714.48022 3714.47949
3717.0 0.0002690 3714.09326 3714.09229
3646.0 0.0002743 3713.70190 3713.70020
3626.0 0.0002758 3713.30591 3713.30469
3628.0 0.0002756 3712.90576 3712.90479
3561.0 0.0002808 3712.50073 3712.50000
3643.0 0.0002745 3712.09058 3712.09009
3682.0 0.0002716 3711.67676 3711.67578
3597.0 0.0002780 3711.25830 3711.25708
3576.0 0.0002796 3710.83545 3710.83350
3635.0 0.0002751 3710.40698 3710.40503
3674.0 0.0002722 3709.97412 3709.97266
3580.0 0.0002793 3709.53711 3709.53467
3535.0 0.0002829 3709.09473 3709.09351
3525.0 0.0002837 3708.64795 3708.64624
3517.0 0.0002843 3708.19653 3708.19458
3617.0 0.0002765 3707.74048 3707.73853
3581.0 0.0002793 3707.27905 3707.27759
3635.0 0.0002751 3706.81323 3706.81177
3635.0 0.0002751 3706.34277 3706.34082
3570.0 0.0002801 3705.86768 3705.86499
3506.0 0.0002852 3705.38696 3705.38574
3564.0 0.0002806 3704.90186 3704.90063
3618.0 0.0002764 3704.41309 3704.40967
3575.0 0.0002797 3703.91675 3703.91577
3525.0 0.0002837 3703.41846 3703.41553
3637.0 0.0002750 3702.91284 3702.91040
3667.0 0.0002727 3702.40356 3702.40161
3497.0 0.0002860 3701.88989 3701.88770
3617.0 0.0002765 3701.37012 3701.36768
3597.0 0.0002780 3700.84595 3700.84351
3588.0 0.0002787 3700.31665 3700.31494
3615.0 0.0002766 3699.78271 3699.78052
3575.0 0.0002797 3699.24268 3749.90845
3624.0 0.0002759 3698.69946 3749.90479
3666.0 0.0002728 3698.15088 3749.90454
3677.0 0.0002720 3697.59692 3749.90894
3607.0 0.0002772 3697.03687 3749.91626
3580.0 0.0002793 3696.47363 3749.92920
3601.0 0.0002777 3695.90454 3749.94556
3709.0 0.0002696 3695.33057 3749.96802
3583.0 0.0002791 3694.75000 3749.99390
3547.0 0.0002819 3694.16650 3750.02539
3535.0 0.0002829 3693.57764 3750.06250
3682.0 0.0002716 3692.98389 3750.10498
3657.0 0.0002734 3692.38477 3750.15283
3635.0 0.0002751 3691.78101 3750.20752
3672.0 0.0002723 3691.16992 3750.26807
3694.0 0.0002707 3690.55640 3750.33545
3578.0 0.0002795 3689.93726 3750.40942
3628.0 0.0002756 3689.31250 3750.49146
3650.0 0.0002740 3688.68335 3750.57959
3617.0 0.0002765 3688.04883 3750.67554
3501.0 0.0002856 3687.40918 3750.78027
3529.0 0.0002834 3686.76392 3750.89258
3549.0 0.0002818 3686.11523 3751.01392
3645.0 0.0002743 3685.45996 3751.14429
3619.0 0.0002763 3684.80078 3751.28394
3571.0 0.0002800 3684.13501 3751.43286
3668.0 0.0002726 3683.46533 3751.59229
3620.0 0.0002762 3682.79053 3751.76147
3640.0 0.0002747 3682.11060 3751.94189
3703.0 0.0002701 3681.42505 3752.13501
3689.0 0.0002711 3680.73535 3752.33691
3680.0 0.0002717 3680.04004 3752.55249
3621.0 0.0002762 3679.34058 3752.78003
3519.0 0.0002842 3678.63428 3753.02124
3529.0 0.0002834 3677.92383 3753.27515
3608.0 0.0002772 3677.20898 3753.54321
3693.0 0.0002708 3676.48853 3753.82544
3651.0 0.0002739 3675.76318 3754.12378
3657.0 0.0002734 3675.03296 3754.43677
3566.0 0.0002804 3674.29785 3754.76440
3658.0 0.0002734 3673.55688 3755.11108
3579.0 0.0002794 3672.81226 3755.47314
3641.0 0.0002746 3672.06177 3755.85400
3526.0 0.0002836 3671.30688 3756.25366
3601.0 0.0002777 3670.54639 3756.67139
3635.0 0.0002751 3669.78125 3757.10864
3625.0 0.0002759 3669.01196 3757.56787
3636.0 0.0002750 3668.23535 3758.04785
3624.0 0.0002759 3667.45630 3758.55005
3604.0 0.0002775 3666.67188 3759.07495
3623.0 0.0002760 3665.88208 3759.62329
3682.0 0.0002716 3665.08740 3760.19702
3668.0 0.0002726 3664.28784 3760.79419
3642.0 0.0002746 3663.48462 3761.41919
3565.0 0.0002805 3662.67529 3762.07202
3610.0 0.0002770 3661.86084 3762.75171
3702.0 0.0002701 3661.04224 3763.46094
3762.0 0.0002658 3660.21826 3764.20142
3699.0 0.0002703 3659.38965 3764.97168
3599.0 0.0002779 3658.55640 3765.77588
3571.0 0.0002800 3657.71802 3766.61304
3627.0 0.0002757 3656.87598 3767.48608
3667.0 0.0002727 3656.02905 3768.39551
3677.0 0.0002720 3655.17603 3769.34058
3604.0 0.0002775 3654.31909 3770.32715
3605.0 0.0002774 3653.45825 3771.35327
3752.0 0.0002665 3652.59253 3772.42114
3660.0 0.0002732 3651.72095 3773.53247
3506.0 0.0002852 3650.84595 3774.68970
3586.0 0.0002789 3649.96582 3775.89331
3708.0 0.0002697 3649.08032 3777.14600
3629.0 0.0002756 3648.19116 3778.44922
3682.0 0.0002716 3647.29736 3779.80542
3683.0 0.0002715 3646.39990 3781.21509
3666.0 0.0002728 3645.49658 3782.68164
3656.0 0.0002735 3644.58887 3784.20801
3541.0 0.0002824 3643.67749 3785.79492
3614.0 0.0002767 3642.76123 3787.44580
3646.0 0.0002743 3641.84082 3789.16260
3683.0 0.0002715 3640.91528 3790.94751
3624.0 0.0002759 3639.98560 3792.80566
3670.0 0.0002725 3639.05176 3794.73730
3773.0 0.0002650 3638.11426 3796.74585
3695.0 0.0002706 3637.17090 3798.83618
3711.0 0.0002695 3636.22388 3801.00928
3670.0 0.0002725 3635.27295 3803.27148
3735.0 0.0002677 3634.31787 3805.62476
3766.0 0.0002655 3633.35791 3808.07349
3733.0 0.0002679 3632.39429 3810.62012
3758.0 0.0002661 3631.42676 3813.27173
3838.0 0.0002606 3630.45459 3816.03101
3832.0 0.0002610 3629.47827 3818.90283
3746.0 0.0002670 3628.49756 3821.89258
3850.0 0.0002597 3627.51270 3825.00464
3846.0 0.0002600 3626.52490 3828.24658
3775.0 0.0002649 3625.53223 3831.62256
3841.0 0.0002603 3624.53589 3835.13892
3912.0 0.0002556 3623.53589 3838.80322
4081.0 0.0002450 3622.53101 3842.62109
3917.0 0.0002553 3621.52173 3846.60107
3997.0 0.0002502 3620.50977 3850.75049
3939.0 0.0002539 3619.49438 3855.07739
4070.0 0.0002457 3618.47437 3859.59009
3977.0 0.0002514 3617.44946 3864.29785
4009.0 0.0002494 3616.42236 3869.21118
4056.0 0.0002465 3615.39087 3874.34058
4140.0 0.0002415 3614.35596 3879.69727
4173.0 0.0002396 3613.31738 3885.29150
4168.0 0.0002399 3612.27539 3891.13843
4188.0 0.0002388 3611.22949 3897.24829
4207.0 0.0002377 3610.17993 3903.63770
4272.0 0.0002341 3609.12622 3910.32300
4442.0 0.0002251 3608.06982 3917.31738
4323.0 0.0002313 3607.00977 3924.64014
4483.0 0.0002231 3605.94556 3932.30957
4295.0 0.0002328 3604.87793 3940.34717
4286.0 0.0002333 3603.80786 3948.77197
4380.0 0.0002283 3602.73462 3957.61035
4435.0 0.0002255 3601.65674 3966.88501
4472.0 0.0002236 3600.57642 3976.62354
4486.0 0.0002229 3599.49268 3986.85425
4521.0 0.0002212 3598.40527 3997.61035
4535.0 0.0002205 3597.31567 4008.92456
4505.0 0.0002220 3596.22192 4020.83398
4541.0 0.0002202 3595.12427 4033.37793
4675.0 0.0002139 3594.02490 4046.59961
4804.0 0.0002082 3592.92236 4060.54712
4797.0 0.0002085 3591.81592 4075.27246
4839.0 0.0002067 3590.70801 4090.82886
4910.0 0.0002037 3589.59570 4107.27979
5094.0 0.0001963 3588.48022 4124.69238
5291.0 0.0001890 3587.36279 4143.13916
5385.0 0.0001857 3586.24268 4162.70166
5388.0 0.0001856 3585.11914 4183.46973
5331.0 0.0001876 3583.99292 4205.54004
5398.0 0.0001853 3582.86377 4229.02344
5546.0 0.0001803 3581.73218 4254.04004
5632.0 0.0001776 3580.59741 4280.72412
5786.0 0.0001728 3579.46069 4309.22656
5858.0 0.0001707 3578.32056 4339.71338
5909.0 0.0001692 3577.17822 4372.37256
6016.0 0.0001662 3576.03296 4407.41602
6118.0 0.0001635 3574.88696 4445.08105
6339.0 0.0001578 3573.73584 4485.63916
6474.0 0.0001545 3572.58447 4529.39551
6492.0 0.0001540 3571.42993 4576.69824
6908.0 0.0001448 3570.27271 4627.95313
6824.0 0.0001465 3569.11377 4683.62061
7098.0 0.0001409 3567.95166 4744.23926
7317.0 0.0001367 3566.78857 4810.44629
7377.0 0.0001356 3565.62280 4882.98779
7521.0 0.0001330 3564.45361 4962.76953
7732.0 0.0001293 3563.28394 5050.89258
8143.0 0.0001228 3562.11133 5148.71436
8120.0 0.0001232 3560.93726 5257.93652
8325.0 0.0001201 3559.76025 5380.69531
8655.0 0.0001155 3558.58179 5519.69141
8832.0 0.0001132 3557.40161 5678.32715
8852.0 0.0001130 3556.21899 5860.86084
9178.0 0.0001090 3555.03442 6072.55811
9590.0 0.0001043 3553.84912 6319.84570
9840.0 0.0001016 3552.66089 6610.42725
10163.0 0.0000984 3551.47095 6953.35400
10406.0 0.0000961 3550.28052 7358.98145
10620.0 0.0000942 3549.08716 7854.56006
10973.0 0.0000911 3547.89307 8420.11914
11457.0 0.0000873 3546.69751 9081.62012
11729.0 0.0000853 3545.49902 9845.15723
12144.0 0.0000823 3544.30078 10709.04492
12694.0 0.0000788 3543.09961 11661.54492
13008.0 0.0000769 3541.89795 12684.13379
13373.0 0.0000748 3540.69409 13762.53711
13832.0 0.0000723 3539.48999 14898.15820
14496.0 0.0000690 3538.28296 16105.03125
15013.0 0.0000666 3537.07642 17386.91797
15446.0 0.0000647 3535.86694 18708.40234
15925.0 0.0000628 3534.65796 19982.79102
16449.0 0.0000608 3533.44727 21096.34375
17086.0 0.0000585 3532.23584 21968.56641
17878.0 0.0000559 3531.02271 22608.73047
18791.0 0.0000532 3529.80884 23114.22461
19478.0 0.0000513 3528.59399 23609.63477
20049.0 0.0000499 3527.37842 24183.63672
20855.0 0.0000480 3526.16162 24870.89453
22458.0 0.0000445 3524.94360 25675.68750
23963.0 0.0000417 3523.72607 26598.06445
25186.0 0.0000397 3522.50635 27629.12695
26292.0 0.0000380 3521.28662 28727.46289
28373.0 0.0000352 3520.06567 29821.16797
30363.0 0.00003293 3518.84497 30851.90234
32758.0 0.00003053 3517.62329 31817.71680
34860.0 0.00002869 3516.40161 32761.58789
37587.0 0.00002660 3515.17773 33716.94922
40747.0 0.00002454 3513.95483 34664.95313
43196.0 0.00002315 3512.73071 35525.14844
44661.0 0.00002239 3511.50659 36165.27344
44905.0 0.00002227 3510.28174 36424.86719
43627.0 0.00002292 3509.05786 36150.35156
41597.0 0.00002404 3507.83276 35226.19531
38155.0 0.00002621 3506.60742 33604.29297
34670.0 0.00002884 3505.38159 31341.30078
30874.0 0.00003239 3504.15576 28613.36133
27326.0 0.0000366 3502.93042 25670.43945
23515.0 0.0000425 3501.70386 22754.24023
19698.0 0.0000508 3500.47827 20038.96484
16639.0 0.0000601 3499.25244 17619.08984
13933.0 0.0000718 3498.02734 15526.73535
11833.0 0.0000845 3496.80225 13755.13184
10263.0 0.0000974 3495.57666 12276.89844
8858.0 0.0001129 3494.35107 11055.61133
7931.0 0.0001261 3493.12524 10052.50391
7246.0 0.0001380 3491.90088 9230.27051
6608.0 0.0001513 3490.67603 8555.15820
6196.0 0.0001614 3489.45288 7997.98975
5856.0 0.0001708 3488.22876 7534.46631
5518.0 0.0001812 3487.00586 7144.96582
5281.0 0.0001894 3485.78320 6814.03711
5131.0 0.0001949 3484.56030 6529.74121
4782.0 0.0002091 3483.33813 6282.95703
4799.0 0.0002084 3482.11743 6066.74316
4634.0 0.0002158 3480.89648 5875.79346
4646.0 0.0002152 3479.67700 5706.01318
4604.0 0.0002172 3478.45801 5554.18896
4503.0 0.0002221 3477.23926 5417.75488
4424.0 0.0002260 3476.02246 5294.63330
4378.0 0.0002284 3474.80518 5183.10547
4304.0 0.0002323 3473.58911 5081.73486
4257.0 0.0002349 3472.37476 4989.31006
4197.0 0.0002383 3471.16040 4904.79590
4083.0 0.0002449 3469.94751 4827.30713
4149.0 0.0002410 3468.73511 4756.07910
4052.0 0.0002468 3467.52466 4690.45117
4082.0 0.0002450 3466.31519 4629.84375
3988.0 0.0002508 3465.10645 4573.75391
3840.0 0.0002604 3463.89893 4521.74316
3797.0 0.0002634 3462.69360 4473.41992
3912.0 0.0002556 3461.48828 4428.44189
3765.0 0.0002656 3460.28491 4386.50781
3731.0 0.0002680 3459.08252 4347.34521
3652.0 0.0002738 3457.88208 4310.71826
3750.0 0.0002667 3456.68213 4276.41016
3731.0 0.0002680 3455.48462 4244.23047
3748.0 0.0002668 3454.28760 4214.00830
3785.0 0.0002642 3453.09351 4185.58887
3798.0 0.0002633 3451.90039 4158.83447
3705.0 0.0002699 3450.70850 4133.61768
3606.0 0.0002773 3449.51807 4109.82813
3613.0 0.0002768 3448.33032 4087.36084
3634.0 0.0002752 3447.14380 4066.12354
3622.0 0.0002761 3445.95898 4046.03101
3613.0 0.0002768 3444.77686 4027.00757
3660.0 0.0002732 3443.59546 4008.98218
3574.0 0.0002798 3442.41626 3991.89136
3670.0 0.0002725 3441.23926 3975.67603
3836.0 0.0002607 3440.06396 3960.28271
3761.0 0.0002659 3438.89014 3945.66333
3617.0 0.0002765 3437.71948 3931.76953
3548.0 0.0002818 3436.55029 3918.56567
3629.0 0.0002756 3435.38354 3906.00879
3609.0 0.0002771 3434.21826 3894.06616
3582.0 0.0002792 3433.05664 3882.70679
3566.0 0.0002804 3431.89551 3871.89966
3578.0 0.0002795 3430.73682 3861.61792
3728.0 0.0002682 3429.58179 3851.83838
3836.0 0.0002607 3428.42700 3842.53613
3713.0 0.0002693 3427.27710 3833.69141
3748.0 0.0002668 3426.12817 3825.28564
3597.0 0.0002780 3424.98145 3817.30029
3506.0 0.0002852 3423.83765 3809.71826
3535.0 0.0002829 3422.69653 3802.52881
3628.0 0.0002756 3421.55762 3795.71387
3682.0 0.0002716 3420.42163 3789.26514
3599.0 0.0002779 3419.28833 3783.17017
3619.0 0.0002763 3418.15747 3777.42017
3615.0 0.0002766 3417.02856 3772.00439
3630.0 0.0002755 3415.90283 3766.91797
3614.0 0.0002767 3414.78052 3762.15283
3834.0 0.0002608 3413.66089 3757.70459
3698.0 0.0002704 3412.54297 3753.56812
3539.0 0.0002826 3411.42822 3749.73950
3686.0 0.0002713 3410.31714 3746.21777
3656.0 0.0002735 3409.20874 3742.99878
3699.0 0.0002703 3408.10254 3740.08398
3589.0 0.0002786 3407.00073 3737.47290
3700.0 0.0002703 3405.90063 3735.16724
3772.0 0.0002651 3404.80420 3733.16846
3722.0 0.0002687 3403.71143 3731.48120
3581.0 0.0002793 3402.61987 3730.10986
3649.0 0.0002740 3401.53271 3729.05811
3617.0 0.0002765 3400.44873 3728.33716
3762.0 0.0002658 3399.36792 3727.95020
3830.0 0.0002611 3398.28979 3727.91138
3874.0 0.0002581 3397.21606 3728.22827
3876.0 0.0002580 3396.14404 3728.91602
3837.0 0.0002606 3395.07593 3729.98755
3714.0 0.0002693 3394.01221 3731.46289
3806.0 0.0002627 3392.95117 3733.35645
3844.0 0.0002601 3391.89233 3735.69238
3885.0 0.0002574 3390.83911 3738.49268
3948.0 0.0002533 3389.78833 3741.78540
3912.0 0.0002556 3388.74072 3745.59937
3967.0 0.0002521 3387.69678 3749.96802
4020.0 0.0002488 3386.65747 3754.93066
4022.0 0.0002486 3385.62012 3760.52783
4034.0 0.0002479 3384.58716 3766.80786
3950.0 0.0002532 3383.55786 3773.82324
3974.0 0.0002516 3382.53125 3781.63574
4025.0 0.0002484 3381.50928 3790.31250
4068.0 0.0002458 3380.49146 3799.93213
4286.0 0.0002333 3379.47656 3810.58008
4195.0 0.0002384 3378.46655 3822.35864
4188.0 0.0002388 3377.45825 3835.38135
4298.0 0.0002327 3376.45581 3849.77710
4399.0 0.0002273 3375.45654 3865.70020
4413.0 0.0002266 3374.46143 3883.32446
4504.0 0.0002220 3373.46924 3902.85645
4455.0 0.0002245 3372.48145 3924.53735
4738.0 0.0002111 3371.49756 3948.65894
4786.0 0.0002089 3370.51758 3975.57129
4722.0 0.0002118 3369.54297 4005.70508
4816.0 0.0002076 3368.57056 4039.59619
4888.0 0.0002046 3367.60229 4077.91333
4956.0 0.0002018 3366.63916 4121.50537
5060.0 0.0001976 3365.67993 4171.43994
5091.0 0.0001964 3364.72388 4229.06689
5273.0 0.0001896 3363.77246 4296.07471
5233.0 0.0001911 3362.82593 4374.54736
5386.0 0.0001857 3361.88257 4467.02490
5415.0 0.0001847 3360.94312 4576.54883
5550.0 0.0001802 3360.00879 4706.67139
5603.0 0.0001785 3359.07959 4861.40723
5664.0 0.0001766 3358.15308 5045.06592
5852.0 0.0001709 3357.23047 5261.86230
5837.0 0.0001713 3356.31372 5515.18408
6023.0 0.0001660 3355.40039 5806.50195
6273.0 0.0001594 3354.49146 6134.26904
6397.0 0.0001563 3353.58691 6493.81348
6356.0 0.0001573 3352.68750 6879.38721
6573.0 0.0001521 3351.79150 7287.57275
6655.0 0.0001503 3350.90039 7718.11279
7044.0 0.0001420 3350.01343 8168.76465
7313.0 0.0001367 3349.13184 8626.87695
7608.0 0.0001314 3348.25317 9065.95117
7763.0 0.0001288 3347.38037 9454.42676
7889.0 0.0001268 3346.51123 9774.52051
8179.0 0.0001223 3345.64844 10035.99805
8460.0 0.0001182 3344.78809 10270.41797
8821.0 0.0001134 3343.93213 10511.39355
9326.0 0.0001072 3343.08179 10779.84766
10043.0 0.0000996 3342.23560 11083.52637
10627.0 0.0000941 3341.39478 11422.91797
11171.0 0.0000895 3340.55835 11792.05176
11708.0 0.0000854 3339.72607 12175.35156
12370.0 0.0000808 3338.89868 12551.67871
12969.0 0.0000771 3338.07617 12907.02441
13957.0 0.0000716 3337.25781 13241.10352
14745.0 0.0000678 3336.44531 13557.89453
15517.0 0.0000644 3335.63599 13849.93359
16131.0 0.0000620 3334.83301 14090.15820
16183.0 0.0000618 3334.03345 14233.67969
16157.0 0.0000619 3333.23877 14227.01758
15785.0 0.0000634 3332.45068 14021.67285
14990.0 0.0000667 3331.66431 13526.15234
13981.0 0.0000715 3330.88599 12867.37012
12838.0 0.0000779 3330.11011 12025.25000
11660.0 0.0000858 3329.33960 11074.94727
10528.0 0.0000950 3328.57373 10100.17480
9506.0 0.0001052 3327.81348 9169.10547
8432.0 0.0001186 3327.05811 8324.00098
7441.0 0.0001344 3326.30737 7583.67529
6620.0 0.0001511 3325.56177 6950.91211
6103.0 0.0001639 3324.81982 6419.32764
5696.0 0.0001756 3324.08374 5978.06738
5198.0 0.0001924 3323.35303 5614.62158
4770.0 0.0002096 3322.62622 5316.43701
4571.0 0.0002188 3321.90503 5071.83398
4346.0 0.0002301 3321.18848 4870.49219
4230.0 0.0002364 3320.47705 4703.65576
4109.0 0.0002434 3319.77100 4564.14404
3987.0 0.0002508 3319.06885 4446.23340
3978.0 0.0002514 3318.37231 4345.45947
3904.0 0.0002561 3317.68164 4258.39063
3813.0 0.0002623 3316.99512 4182.41602
3739.0 0.0002675 3316.31323 4115.54004
3725.0 0.0002685 3315.63599 4056.24072
3691.0 0.0002709 3314.96484 4003.32300
3777.0 0.0002648 3314.29858 3955.84937
3622.0 0.0002761 3313.63647 3913.06396
3616.0 0.0002765 3312.97998 3874.34619
3774.0 0.0002650 3312.32886 3839.18262
3731.0 0.0002680 3311.68262 3807.13989
3705.0 0.0002699 3311.04077 3777.85229
3554.0 0.0002814 3310.40479 3751.00610
3474.0 0.0002879 3309.77393 3726.33105
3633.0 0.0002753 3309.14746 3703.59399
3529.0 0.0002834 3308.52661 3682.59253
3620.0 0.0002762 3307.91064 3663.15088
3570.0 0.0002801 3307.29907 3645.11133
3539.0 0.0002826 3306.69336 3628.34033
3359.0 0.0002977 3306.09277 3612.71704
3374.0 0.0002964 3305.49707 3598.13672
3415.0 0.0002928 3304.90649 3584.50513
3428.0 0.0002917 3304.32104 3571.73828
3500.0 0.0002857 3303.74048 3559.76294
3368.0 0.0002969 3303.16504 3548.51050
3393.0 0.0002947 3302.59448 3537.92383
3551.0 0.0002816 3302.02905 3527.94800
3456.0 0.0002894 3301.46899 3518.53467
3497.0 0.0002860 3300.91382 3509.64038
3462.0 0.0002889 3300.36328 3501.22681
3435.0 0.0002911 3299.81934 3493.25708
3502.0 0.0002856 3299.27979 3485.70117
3435.0 0.0002911 3298.74463 3478.52710
3514.0 0.0002846 3298.21533 3471.70947
3520.0 0.0002841 3297.69092 3465.22314
3399.0 0.0002942 3297.17139 3459.04639
3478.0 0.0002875 3296.65747 3453.15601
3545.0 0.0002821 3296.14844 3447.53955
3466.0 0.0002885 3295.64404 3442.17334
3478.0 0.0002875 3295.14502 3437.04468
3430.0 0.0002915 3294.65112 3432.13916
3399.0 0.0002942 3294.16187 3427.44189
3426.0 0.0002919 3293.67847 3422.94067
3461.0 0.0002889 3293.19873 3418.62524
3413.0 0.0002930 3292.72510 3414.48291
3342.0 0.0002992 3292.25635 3410.50684
3338.0 0.0002996 3291.79321 3406.68579
3448.0 0.0002900 3291.33398 3403.01050
3499.0 0.0002858 3290.88135 3399.47510
3489.0 0.0002866 3290.43262 3396.07104
3418.0 0.0002926 3289.98853 3392.79126
3490.0 0.0002865 3289.54980 3389.62939
3445.0 0.0002903 3289.11646 3386.58130
3525.0 0.0002837 3288.68799 3383.63794
3480.0 0.0002874 3288.26489 3380.79834
3643.0 0.0002745 3287.84619 3378.05371
3437.0 0.0002910 3287.43286 3375.40112
3403.0 0.0002939 3287.02417 3372.83618
3321.0 0.0003011 3286.62036 3370.35522
3348.0 0.0002987 3286.22217 3367.95337
3472.0 0.0002880 3285.82764 3365.62939
3416.0 0.0002927 3285.44019 3363.37793
3438.0 0.0002909 3285.05664 3361.19531
3308.0 0.0003023 3284.67773 3359.07983
3493.0 0.0002863 3284.30298 3357.02783
3549.0 0.0002818 3283.93506 3355.03735
3452.0 0.0002897 3283.57153 3353.10620
3415.0 0.0002928 3283.21240 3351.23071
3454.0 0.0002895 3282.85718 3349.40894
3477.0 0.0002876 3282.50903 3347.64087
3460.0 0.0002890 3282.16357 3345.92090
3373.0 0.0002965 3281.82446 3344.25000
3418.0 0.0002926 3281.49023 3342.62549
3415.0 0.0002928 3281.16040 3341.04492
3406.0 0.0002936 3280.83521 3339.50708
3335.0 0.0002999 3280.51465 3338.01172
3408.0 0.0002934 3280.19971 3336.55542
3399.0 0.0002942 3279.88867 3335.13843
3495.0 0.0002861 3279.58203 3333.75757
3425.0 0.0002920 3279.28223 3332.41333
3428.0 0.0002917 3278.98584 3331.10327
3445.0 0.0002903 3278.69360 3329.82690
3436.0 0.0002910 3278.40601 3328.58228
3505.0 0.0002853 3278.12451 3327.37012
3451.0 0.0002898 3277.84692 3326.18799
3424.0 0.0002921 3277.57446 3325.03589
3470.0 0.0002882 3277.30615 3323.91211
3417.0 0.0002927 3277.04297 3322.81470
3577.0 0.0002796 3276.78320 3321.74585
3611.0 0.0002769 3276.52979 3320.70166
3597.0 0.0002780 3276.28052 3319.68457
3537.0 0.0002827 3276.03589 3318.69043
3482.0 0.0002872 3275.79468 3317.71973
3410.0 0.0002933 3275.55859 3316.77368
3453.0 0.0002896 3275.32788 3315.84985
3485.0 0.0002869 3275.10059 3314.94678
3503.0 0.0002855 3274.87817 3314.06616
3423.0 0.0002921 3274.66064 3313.20581
3473.0 0.0002879 3274.44800 3312.36499
3367.0 0.0002970 3274.23901 3311.54541
3419.0 0.0002925 3274.03516 3310.74365
3386.0 0.0002953 3273.83496 3309.96167
3326.0 0.0003007 3273.63965 3309.19678
3564.0 0.0002806 3273.44849 3308.45020
3521.0 0.0002840 3273.26196 3307.72119
3407.0 0.0002935 3273.07886 3307.00806
3402.0 0.0002939 3272.90161 3306.31323
3231.0 0.0003095 3272.72778 3305.63330
3363.0 0.0002974 3272.55859 3304.96973
3399.0 0.0002942 3272.39331 3304.32080
3417.0 0.0002927 3272.23267 3303.68726
3365.0 0.0002972 3272.07666 3303.06812
3321.0 0.0003011 3271.92480 3302.46411
3344.0 0.0002990 3271.77515 3301.87329
3423.0 0.0002921 3271.63184 3301.29614
3423.0 0.0002921 3271.49194 3300.73413
3321.0 0.0003011 3271.35596 3300.18311
3340.0 0.0002994 3271.22559 3299.64551
3349.0 0.0002986 3271.09814 3299.12158
3341.0 0.0002993 3270.97461 3298.60913
3447.0 0.0002901 3270.85522 3298.10938
3408.0 0.0002934 3270.74121 3297.62109
3338.0 0.0002996 3270.62915 3297.14478
3385.0 0.0002954 3270.52246 3296.67944
3390.0 0.0002950 3270.41919 3296.22583
3387.0 0.0002952 3270.32080 3295.78247
3506.0 0.0002852 3270.22510 3295.35107
3468.0 0.0002884 3270.13354 3294.92944
3470.0 0.0002882 3270.04663 3294.51782
3317.0 0.0003015 3269.96338 3294.11646
3382.0 0.0002957 3269.88330 3293.72632
3440.0 0.0002907 3269.80811 3293.34521
3441.0 0.0002906 3269.73584 3292.97290
3314.0 0.0003018 3269.66772 3292.61084
3327.0 0.0003006 3269.60352 3292.25879
3402.0 0.0002939 3269.54321 3291.91431
3500.0 0.0002857 3269.48633 3291.58008
3390.0 0.0002950 3269.43237 3291.25464
3479.0 0.0002874 3269.38330 3290.93726
3460.0 0.0002890 3269.33813 3290.62866
3467.0 0.0002884 3269.29443 3290.32861
3450.0 0.0002899 3269.25635 3290.03735
3367.0 0.0002970 3269.22119 3289.75269
3395.0 0.0002946 3269.19043 3289.47705
3455.0 0.0002894 3269.16113 3289.20898
3478.0 0.0002875 3269.13599 3269.12622
3411.0 0.0002932 3269.11548 3269.10449
3452.0 0.0002897 3269.09766 3269.08691
3363.0 0.0002974 3269.08374 3269.07324
3326.0 0.0003007 3269.07275 3269.06128
3344.0 0.0002990 3269.06592 3269.05444
3376.0 0.0002962 3269.06079 3269.05103
3371.0 0.0002966 3269.06055 3269.04932
3491.0 0.0002865 3269.06274 3269.05176
3490.0 0.0002865 3269.06860 3269.05664
3527.0 0.0002835 3269.07764 3269.06641
3437.0 0.0002910 3269.09058 3269.07861
3406.0 0.0002936 3269.10547 3269.09521
3353.0 0.0002982 3269.12402 3269.11279
3392.0 0.0002948 3269.14624 3269.13525
3402.0 0.0002939 3269.17065 3269.16040
3283.0 0.0003046 3269.19824 3269.18774
3358.0 0.0002978 3269.23022 3269.21875
3304.0 0.0003027 3269.26392 3269.25244
3269.0 0.0003059 3269.30103 3269.28882
3302.0 0.0003028 3269.34155 3269.32983
3448.0 0.0002900 3269.38379 3269.37207
3330.0 0.0003003 3269.42993 3269.41772
3420.0 0.0002924 3269.47925 3269.46777
3438.0 0.0002909 3269.53003 3269.51855
3445.0 0.0002903 3269.58423 3269.57251
3366.0 0.0002971 3269.64209 3269.63037
3349.0 0.0002986 3269.70215 3269.68970
3408.0 0.0002934 3269.76514 3269.75366
3294.0 0.0003036 3269.83008 3269.81934
3256.0 0.0003071 3269.89819 3269.88770
3298.0 0.0003032 3269.96973 3269.95850
3319.0 0.0003013 3270.04370 3270.03198
3254.0 0.0003073 3270.11987 3270.10815
3220.0 0.0003106 3270.19824 3270.18726
3421.0 0.0002923 3270.27954 3270.26831
3363.0 0.0002974 3270.36328 3270.35205
3295.0 0.0003035 3270.45020 3270.43799
3327.0 0.0003006 3270.53809 3270.52710
3310.0 0.0003021 3270.63013 3270.61792
3307.0 0.0003024 3270.72339 3270.71191
3355.0 0.0002981 3270.81934 3270.80859
3489.0 0.0002866 3270.91846 3270.90723
3323.0 0.0003009 3271.01807 3271.00781
3337.0 0.0002997 3271.12134 3271.11108
3309.0 0.0003022 3271.22607 3271.21582
3254.0 0.0003073 3271.33521 3271.32300
3253.0 0.0003074 3271.44434 3271.43311
3300.0 0.0003030 3271.55688 3271.54443
3329.0 0.0003004 3271.67041 3271.65894
3445.0 0.0002903 3271.78613 3271.77539
3308.0 0.0003023 3271.90454 3271.89404
3319.0 0.0003013 3272.02563 3272.01514
3470.0 0.0002882 3272.14795 3272.13770
3428.0 0.0002917 3272.27222 3272.26099
3286.0 0.0003043 3272.39868 3272.38721
3211.0 0.0003114 3272.52612 3272.51587
3251.0 0.0003076 3272.65771 3272.64648
3316.0 0.0003016 3272.78955 3272.77759
3409.0 0.0002933 3272.92358 3272.91211
3390.0 0.0002950 3273.05933 3273.04761
3305.0 0.0003026 3273.19702 3273.18481
3314.0 0.0003018 3273.33618 3273.32471
3387.0 0.0002952 3273.47705 3273.46606
3279.0 0.0003050 3273.61938 3273.60889
3265.0 0.0003063 3273.76416 3273.75293
3335.0 0.0002999 3273.91064 3273.89966
3370.0 0.0002967 3274.05786 3274.04639
3308.0 0.0003023 3274.20654 3274.19580
3268.0 0.0003060 3274.35840 3274.34692
3315.0 0.0003017 3274.50952 3274.49854
3326.0 0.0003007 3274.66431 3274.65283
3305.0 0.0003026 3274.81909 3274.80811
3226.0 0.0003100 3274.97534 3274.96460
3189.0 0.0003136 3275.13403 3275.12256
3343.0 0.0002991 3275.29272 3275.28271
3222.0 0.0003104 3275.45410 3275.44312
3200.0 0.0003125 3275.61646 3275.60571
3280.0 0.0003049 3275.77905 3275.76831
3242.0 0.0003085 3275.94336 3275.93335
3372.0 0.0002966 3276.10962 3276.09888
3270.0 0.0003058 3276.27612 3276.26611
3256.0 0.0003071 3276.44507 3276.43359
3217.0 0.0003108 3276.61377 3276.60303
3085.0 0.0003241 3276.78394 3276.77271
3184.0 0.0003141 3276.95532 3276.94531
3199.0 0.0003126 3277.12769 3277.11719
3217.0 0.0003108 3277.30103 3277.29077
3330.0 0.0003003 3277.47534 3277.46484
3261.0 0.0003067 3277.65112 3277.64038
3130.0 0.0003195 3277.82764 3277.81616
3205.0 0.0003120 3278.00415 3277.99292
3216.0 0.0003109 3278.18237 3278.17212
3206.0 0.0003119 3278.36084 3278.35010
3208.0 0.0003117 3278.54004 3278.52954
3246.0 0.0003081 3278.71973 3278.70996
3274.0 0.0003054 3278.90088 3278.88989
3273.0 0.0003055 3279.08301 3279.07227
3219.0 0.0003107 3279.26538 3279.25464
3233.0 0.0003093 3279.44824 3279.43774
3194.0 0.0003131 3279.63135 3279.62061
3152.0 0.0003173 3279.81494 3279.80518
3225.0 0.0003101 3280.00024 3279.99023
3162.0 0.0003163 3280.18530 3280.17480
3122.0 0.0003203 3280.37036 3280.36133
3294.0 0.0003036 3280.55688 3280.54688
3290.0 0.0003040 3280.74365 3280.73315
3245.0 0.0003082 3280.93042 3280.92017
3262.0 0.0003066 3281.11670 3281.10693
3154.0 0.0003171 3281.30396 3281.29419
3204.0 0.0003121 3281.49268 3281.48267
3202.0 0.0003123 3281.68066 3281.67090
3282.0 0.0003047 3281.86865 3281.85864
3304.0 0.0003027 3282.05664 3282.04688
3327.0 0.0003006 3282.24536 3282.23462
3292.0 0.0003038 3282.43408 3282.42407
3304.0 0.0003027 3282.62256 3282.61304
3252.0 0.0003075 3282.81104 3282.80225
3174.0 0.0003151 3283.00098 3282.99121
3154.0 0.0003171 3283.19019 3283.17993
3206.0 0.0003119 3283.37866 3283.36841
3221.0 0.0003105 3283.56738 3283.55762
3269.0 0.0003059 3283.75708 3283.74658
3366.0 0.0002971 3283.94458 3283.93555
3241.0 0.0003085 3284.13354 3284.12329
3193.0 0.0003132 3284.32251 3284.31274
3249.0 0.0003078 3284.51001 3284.50073
3305.0 0.0003026 3284.69849 3284.68896
3232.0 0.0003094 3284.88623 3284.87744
3294.0 0.0003036 3285.07373 3285.06421
3218.0 0.0003108 3285.26074 3285.25195
3254.0 0.0003073 3285.44751 3285.43872
3287.0 0.0003042 3285.63403 3285.62476
3225.0 0.0003101 3285.82056 3285.81104
3238.0 0.0003088 3286.00562 3285.99658
3270.0 0.0003058 3286.19092 3286.18115
3286.0 0.0003043 3286.37500 3286.36621
3291.0 0.0003039 3286.55957 3286.55151
3308.0 0.0003023 3286.74341 3286.73486
3290.0 0.0003040 3286.92603 3286.91772
3318.0 0.0003014 3287.10889 3287.10059
3341.0 0.0002993 3287.29053 3287.28174
3301.0 0.0003029 3287.47217 3287.46362
3209.0 0.0003116 3287.65234 3287.64380
3141.0 0.0003184 3287.83228 3287.82324
3170.0 0.0003155 3288.01099 3288.00195
3230.0 0.0003096 3288.18945 3288.18066
3155.0 0.0003170 3288.36670 3288.35840
3177.0 0.0003148 3288.54297 3288.53467
3196.0 0.0003129 3288.71851 3288.70996
3155.0 0.0003170 3288.89355 3288.88525
3100.0 0.0003226 3289.06714 3289.06030
3147.0 0.0003178 3289.24023 3289.23291
3189.0 0.0003136 3289.41187 3289.40454
3155.0 0.0003170 3289.58398 3289.57568
3096.0 0.0003230 3289.75342 3289.74561
3102.0 0.0003224 3289.92212 3289.91479
3055.0 0.0003273 3290.09033 3290.08228
3138.0 0.0003187 3290.25732 3290.24951
3184.0 0.0003141 3290.42285 3290.41455
3227.0 0.0003099 3290.58716 3290.57910
3164.0 0.0003161 3290.75049 3290.74243
3234.0 0.0003092 3290.91260 3290.90454
3158.0 0.0003167 3291.07300 3291.06567
3183.0 0.0003142 3291.23193 3291.22461
3225.0 0.0003101 3291.39038 3291.38330
3191.0 0.0003134 3291.54688 3291.54028
3183.0 0.0003142 3291.70313 3291.69580
3182.0 0.0003143 3291.85669 3291.85083
3178.0 0.0003147 3292.00928 3292.00269
3259.0 0.0003068 3292.16089 3292.15356
3183.0 0.0003142 3292.31030 3292.30322
3241.0 0.0003085 3292.45923 3292.45288
3293.0 0.0003037 3292.60547 3292.59937
3140.0 0.0003185 3292.75146 3292.74463
3044.0 0.0003285 3292.89526 3292.88843
3119.0 0.0003206 3293.03711 3293.03052
3136.0 0.0003189 3293.17749 3293.17188
3193.0 0.0003132 3293.31641 3293.31079
3070.0 0.0003257 3293.45313 3293.44751
3150.0 0.0003175 3293.58936 3293.58228
3104.0 0.0003222 3293.72314 3293.71753
3228.0 0.0003098 3293.85498 3293.84912
3321.0 0.0003011 3293.98560 3293.98022
3249.0 0.0003078 3294.11401 3294.10815
3236.0 0.0003090 3294.23999 3294.23535
3215.0 0.0003110 3294.36548 3294.36011
3340.0 0.0002994 3294.48926 3294.48267
3147.0 0.0003178 3294.60962 3294.60498
3198.0 0.0003127 3294.72974 3294.72363
3069.0 0.0003258 3294.84717 3294.84131
3085.0 0.0003241 3294.96216 3294.95654
3108.0 0.0003218 3295.07593 3295.07031
3208.0 0.0003117 3295.18677 3295.18237
3182.0 0.0003143 3295.29614 3295.29102
3107.0 0.0003219 3295.40332 3295.39868
3162.0 0.0003163 3295.50879 3295.50366
3120.0 0.0003205 3295.61206 3295.60620
3180.0 0.0003145 3295.71289 3295.70825
3153.0 0.0003172 3295.81104 3295.80737
3179.0 0.0003146 3295.90869 3295.90332
3270.0 0.0003058 3296.00269 3295.99805
3184.0 0.0003141 3296.09497 3296.08984
3102.0 0.0003224 3296.18530 3296.18115
3307.0 0.0003024 3296.27271 3296.26855
3246.0 0.0003081 3296.35889 3296.35498
3194.0 0.0003131 3296.44165 3296.43799
3395.0 0.0002946 3296.52246 3296.51929
3316.0 0.0003016 3296.60083 3296.59668
3268.0 0.0003060 3296.67725 3296.67383
3097.0 0.0003229 3296.75098 3296.74731
3145.0 0.0003180 3296.82202 3296.81982
3239.0 0.0003087 3296.89136 3296.88721
3212.0 0.0003113 3296.95801 3296.95532
3177.0 0.0003148 3297.02173 3297.01904
3171.0 0.0003154 3297.08398 3297.08105
3110.0 0.0003215 3297.14307 3297.13989
3091.0 0.0003235 3297.19995 3297.19629
3093.0 0.0003233 3297.25269 3297.25098
3103.0 0.0003223 3297.30493 3297.30225
3148.0 0.0003177 3297.35449 3297.35132
3146.0 0.0003179 3297.40015 3297.39746
3165.0 0.0003160 3297.44312 3297.44092
3278.0 0.0003051 3297.48462 3297.48169
3269.0 0.0003059 3297.52319 3297.51953
3169.0 0.0003156 3297.55835 3297.55591
3017.0 0.0003315 3297.59180 3297.58887
3022.0 0.0003309 3297.62109 3297.61963
2951.0 0.0003389 3297.64941 3297.64697
3035.0 0.0003295 3297.67358 3297.67139
3122.0 0.0003203 3297.69556 3297.69360
3181.0 0.0003144 3297.71436 3297.71289
3152.0 0.0003173 3297.73096 3297.72974
3202.0 0.0003123 3297.74390 3297.74292
3049.0 0.0003280 3297.75464 3297.75317
3080.0 0.0003247 3297.76196 3297.76147
3162.0 0.0003163 3297.76758 3297.76563
3244.0 0.0003083 3297.76880 3297.76782
3176.0 0.0003149 3297.76831 3297.76709
3043.0 0.0003286 3297.76416 3297.76392
3093.0 0.0003233 3297.75708 3297.75635
3152.0 0.0003173 3297.74731 3297.74634
3197.0 0.0003128 3297.73438 3297.73438
3080.0 0.0003247 3297.71851 3297.71802
3244.0 0.0003083 3297.69946 3297.69922
3173.0 0.0003152 3297.67725 3297.67725
3173.0 0.0003152 3297.65259 3297.65210
3232.0 0.0003094 3297.62451 3297.62549
3134.0 0.0003191 3297.59326 3297.59375
3029.0 0.0003301 3297.55981 3297.55957
3060.0 0.0003268 3297.52148 3297.52197
3083.0 0.0003244 3297.48218 3297.48120
3016.0 0.0003316 3297.43750 3297.43799
2972.0 0.0003365 3297.39063 3297.39111
3134.0 0.0003191 3297.34082 3297.34082
3151.0 0.0003174 3297.28687 3297.28809
3130.0 0.0003195 3297.23071 3297.23242
3124.0 0.0003201 3297.17090 3297.17236
3110.0 0.0003215 3297.10840 3297.11060
3163.0 0.0003162 3297.04199 3297.04370
3155.0 0.0003170 3296.97290 3296.97437
3157.0 0.0003168 3296.89990 3296.90161
3105.0 0.0003221 3296.82397 3296.82593
3236.0 0.0003090 3296.74512 3296.74683
3221.0 0.0003105 3296.66235 3296.66357
3142.0 0.0003183 3296.57666 3296.57837
3159.0 0.0003166 3296.48682 3296.48901
3104.0 0.0003222 3296.39478 3296.39697
3114.0 0.0003211 3296.29858 3296.30103
3075.0 0.0003252 3296.19922 3296.20166
3220.0 0.0003106 3296.09619 3296.09863
3168.0 0.0003157 3295.99072 3295.99268
3096.0 0.0003230 3295.88086 3295.88379
3067.0 0.0003261 3295.76782 3295.77100
3106.0 0.0003220 3295.65161 3295.65381
3106.0 0.0003220 3295.53149 3295.53418
3128.0 0.0003197 3295.40845 3295.41040
3135.0 0.0003190 3295.28076 3295.28442
3161.0 0.0003164 3295.15088 3295.15503
3110.0 0.0003215 3295.01709 3295.02026
3118.0 0.0003207 3294.87939 3294.88330
3257.0 0.0003070 3294.73877 3294.74292
3252.0 0.0003075 3294.59448 3294.59814
3142.0 0.0003183 3294.44629 3294.45068
3074.0 0.0003253 3294.29468 3294.29883
3017.0 0.0003315 3294.14014 3294.14429
3170.0 0.0003155 3293.98071 3293.98657
3094.0 0.0003232 3293.82007 3293.82422
3153.0 0.0003172 3293.65332 3293.65845
3098.0 0.0003228 3293.48438 3293.48950
3121.0 0.0003204 3293.31152 3293.31665
3143.0 0.0003182 3293.13452 3293.14014
3078.0 0.0003249 3292.95508 3292.95972
3031.0 0.0003299 3292.77100 3292.77563
3028.0 0.0003303 3292.58398 3292.58911
3148.0 0.0003177 3292.39282 3292.39771
3025.0 0.0003306 3292.19678 3292.20337
3142.0 0.0003183 3291.99951 3292.00537
3224.0 0.0003102 3291.79761 3291.80249
3131.0 0.0003194 3291.59180 3291.59644
3080.0 0.0003247 3291.38159 3291.38794
3142.0 0.0003183 3291.16943 3291.17505
3112.0 0.0003213 3290.95190 3290.95850
3058.0 0.0003270 3290.73169 3290.73853
3155.0 0.0003170 3290.50684 3290.51343
3063.0 0.0003265 3290.27979 3290.28638
3141.0 0.0003184 3290.04785 3290.05444
3129.0 0.0003196 3289.81226 3289.81885
3123.0 0.0003202 3289.57300 3289.57983
3113.0 0.0003212 3289.33008 3289.33691
3201.0 0.0003124 3289.08374 3289.09106
3205.0 0.0003120 3288.83398 3288.84082
3204.0 0.0003121 3288.57886 3288.58643
3145.0 0.0003180 3288.32104 3288.32935
3207.0 0.0003118 3288.06006 3288.06738
3202.0 0.0003123 3287.79370 3287.80200
3232.0 0.0003094 3287.52490 3287.53296
3303.0 0.0003028 3287.25146 3287.25952
3385.0 0.0002954 3286.97485 3286.98340
3362.0 0.0002974 3286.69434 3286.70313
3325.0 0.0003008 3286.41040 3286.41919
3244.0 0.0003083 3286.12207 3286.13037
3191.0 0.0003134 3285.82983 3285.83813
3215.0 0.0003110 3285.53516 3285.54321
3284.0 0.0003045 3285.23438 3285.24341
3244.0 0.0003083 3284.93140 3284.94043
3209.0 0.0003116 3284.62402 3284.63257
3140.0 0.0003185 3284.31274 3284.32178
3247.0 0.0003080 3283.99829 3284.00708
3349.0 0.0002986 3283.67944 3283.68896
3416.0 0.0002927 3283.35669 3283.36646
3372.0 0.0002966 3283.03076 3283.04053
3354.0 0.0002982 3282.69995 3282.70996
3454.0 0.0002895 3282.36597 3282.37622
3315.0 0.0003017 3282.02856 3282.03882
3365.0 0.0002972 3281.68726 3281.69702
3384.0 0.0002955 3281.34155 3281.35181
3425.0 0.0002920 3280.99170 3281.00220
3381.0 0.0002958 3280.63892 3280.64941
3500.0 0.0002857 3280.28101 3280.29248
3475.0 0.0002878 3279.91992 3279.93213
3513.0 0.0002847 3279.55591 3279.56616
3600.0 0.0002778 3279.18677 3279.19775
3627.0 0.0002757 3278.81445 3278.82568
3680.0 0.0002717 3278.43823 3278.44922
3698.0 0.0002704 3278.05884 3278.07007
3669.0 0.0002726 3277.67480 3277.68628
3655.0 0.0002736 3277.28687 3277.29761
3674.0 0.0002722 3276.89478 3276.90625
3840.0 0.0002604 3276.49902 3276.51123
3987.0 0.0002508 3276.10010 3276.11206
3962.0 0.0002524 3275.69653 3275.70874
3962.0 0.0002524 3275.28906 3275.30200
4004.0 0.0002498 3274.87915 3274.89111
4151.0 0.0002409 3274.46411 3274.47632
4272.0 0.0002341 3274.04565 3274.05835
4363.0 0.0002292 3273.62305 3273.63525
4599.0 0.0002174 3273.19727 3273.20996
4681.0 0.0002136 3272.76709 3272.77954
4794.0 0.0002086 3272.33301 3272.34644
5039.0 0.0001985 3271.89478 3271.90820
5217.0 0.0001917 3271.45313 3271.46680
5179.0 0.0001931 3271.00781 3271.02124
5333.0 0.0001875 3270.55859 3270.57251
5418.0 0.0001846 3270.10547 3270.11841
5357.0 0.0001867 3269.64893 3269.66235
5444.0 0.0001837 3269.18848 3269.20239
5408.0 0.0001849 3268.72363 3268.73730
5146.0 0.0001943 3268.25513 3268.26929
4961.0 0.0002016 3267.78271 3267.79810
4842.0 0.0002065 3267.30664 3267.32104
4572.0 0.0002187 3266.82715 3266.84180
4349.0 0.0002299 3266.34375 3266.35864
4256.0 0.0002350 3265.85669 3265.87085
4048.0 0.0002470 3265.36523 3265.37988
3886.0 0.0002573 3264.87036 3264.88599
3702.0 0.0002701 3264.37183 3264.38696
3545.0 0.0002821 3263.86987 3263.88428
3516.0 0.0002844 3263.36328 3263.37866
3477.0 0.0002876 3262.85327 3262.86890
3434.0 0.0002912 3262.33862 3262.35449
3427.0 0.0002918 3261.82202 3261.83740
3450.0 0.0002899 3261.29980 3261.31616
3412.0 0.0002931 3260.77539 3260.79126
3245.0 0.0003082 3260.24609 3260.26196
3210.0 0.0003115 3259.71362 3259.72998
3209.0 0.0003116 3259.17822 3259.19434
3167.0 0.0003158 3258.63867 3258.65430
3213.0 0.0003112 3258.09448 3258.11157
3235.0 0.0003091 3257.54736 3257.56372
3081.0 0.0003246 3256.99561 3257.01367
3035.0 0.0003295 3256.44092 3256.45874
3039.0 0.0003291 3255.88379 3255.89966
3182.0 0.0003143 3255.32056 3255.33789
3139.0 0.0003186 3254.75513 3254.77173
3109.0 0.0003216 3254.18628 3254.20239
3077.0 0.0003250 3253.61206 3253.62988
3178.0 0.0003147 3253.03516 3253.05322
3091.0 0.0003235 3252.45532 3252.47168
3137.0 0.0003188 3251.87085 3251.88867
3060.0 0.0003268 3251.28271 3251.30103
3114.0 0.0003211 3250.69165 3250.70947
3160.0 0.0003165 3250.09595 3250.11401
3133.0 0.0003192 3249.49805 3249.51636
2970.0 0.0003367 3248.89575 3248.91431
3044.0 0.0003285 3248.28979 3248.30811
3028.0 0.0003303 3247.68042 3247.69873
3175.0 0.0003150 3247.06714 3247.08569
3205.0 0.0003120 3246.45044 3246.46948
3206.0 0.0003119 3245.83008 3245.84912
3158.0 0.0003167 3245.20654 3245.22485
3100.0 0.0003226 3244.57910 3244.59888
3046.0 0.0003283 3243.94849 3243.96851
3178.0 0.0003147 3243.31372 3243.33325
3129.0 0.0003196 3242.67651 3242.69556
3124.0 0.0003201 3242.03491 3242.05469
3019.0 0.0003312 3241.39014 3241.41040
3077.0 0.0003250 3240.74219 3240.76147
2954.0 0.0003385 3240.09009 3240.11011
2939.0 0.0003403 3239.43457 3239.45483
3035.0 0.0003295 3238.77612 3238.79663
3027.0 0.0003304 3238.11377 3238.13379
3025.0 0.0003306 3237.44824 3237.46875
3071.0 0.0003256 3236.77881 3236.79980
2973.0 0.0003364 3236.10669 3236.12695
3010.0 0.0003322 3235.42993 3235.45117
2927.0 0.0003416 3234.75098 3234.77222
2995.0 0.0003339 3234.06885 3234.08911
2918.0 0.0003427 3233.38232 3233.40356
2910.0 0.0003436 3232.69214 3232.71460
3000.0 0.0003333 3231.99976 3232.02100
2994.0 0.0003340 3231.30371 3231.32471
3006.0 0.0003327 3230.60352 3230.62524
3053.0 0.0003275 3229.90088 3229.92310
3041.0 0.0003288 3229.19482 3229.21606
3004.0 0.0003329 3228.48486 3228.50708
2967.0 0.0003370 3227.77222 3227.79443
2943.0 0.0003398 3227.05615 3227.07813
2967.0 0.0003370 3226.33716 3226.35840
3057.0 0.0003271 3225.61450 3225.63623
3041.0 0.0003288 3224.88818 3224.91040
2999.0 0.0003334 3224.15967 3224.18115
3097.0 0.0003229 3223.42700 3223.44971
2967.0 0.0003370 3222.69141 3222.71411
3023.0 0.0003308 3221.95215 3221.97510
3090.0 0.0003236 3221.21069 3221.23315
2969.0 0.0003368 3220.46558 3220.48804
3033.0 0.0003297 3219.71729 3219.73950
3029.0 0.0003301 3218.96533 3218.98853
2990.0 0.0003344 3218.21021 3218.23364
3037.0 0.0003293 3217.45288 3217.47583
3064.0 0.0003264 3216.69214 3216.71558
2973.0 0.0003364 3215.92822 3215.95142
3015.0 0.0003317 3215.16113 3215.18506
2950.0 0.0003390 3214.39111 3214.41504
2952.0 0.0003388 3213.61841 3213.64209
3008.0 0.0003324 3212.84131 3212.86597
2907.0 0.0003440 3212.06274 3212.08643
2957.0 0.0003382 3211.28027 3211.30469
2948.0 0.0003392 3210.49487 3210.51929
2979.0 0.0003357 3209.70630 3209.73096
3010.0 0.0003322 3208.91528 3208.93970
3006.0 0.0003327 3208.12085 3208.14600
2945.0 0.0003396 3207.32324 3207.34863
2996.0 0.0003338 3206.52417 3206.54883
2989.0 0.0003346 3205.72095 3205.74536
2882.0 0.0003470 3204.91455 3204.93896
2897.0 0.0003452 3204.10571 3204.13037
2990.0 0.0003344 3203.29419 3203.31860
3017.0 0.0003315 3202.47900 3202.50415
2966.0 0.0003372 3201.66089 3201.68628
3018.0 0.0003313 3200.84155 3200.86670
3083.0 0.0003244 3200.01807 3200.04346
3097.0 0.0003229 3199.19214 3199.21777
3131.0 0.0003194 3198.36304 3198.38745
3080.0 0.0003247 3197.53101 3197.55664
3088.0 0.0003238 3196.69702 3196.72217
3120.0 0.0003205 3195.85962 3195.88501
2937.0 0.0003405 3195.01978 3195.04541
2998.0 0.0003336 3194.17725 3194.20288
3073.0 0.0003254 3193.33179 3193.35791
3041.0 0.0003288 3192.48413 3192.50928
3050.0 0.0003279 3191.63306 3191.65942
3022.0 0.0003309 3190.77930 3190.80518
3082.0 0.0003245 3189.92407 3189.95020
3049.0 0.0003280 3189.06519 3189.09155
3060.0 0.0003268 3188.20361 3188.22900
3078.0 0.0003249 3187.33984 3187.36670
3133.0 0.0003192 3186.47339 3186.49976
3096.0 0.0003230 3185.60352 3207.64624
3132.0 0.0003193 3184.73218 3207.08252
3000.0 0.0003333 3183.85815 3206.52148
3212.0 0.0003113 3182.98096 3205.96606
3225.0 0.0003101 3182.10156 3205.41455
3225.0 0.0003101 3181.22070 3204.86816
3259.0 0.0003068 3180.33594 3204.32617
3216.0 0.0003109 3179.44946 3203.78931
3262.0 0.0003066 3178.56030 3203.25903
3350.0 0.0002985 3177.66797 3202.73218
3444.0 0.0002904 3176.77417 3202.21216
3418.0 0.0002926 3175.87793 3201.69775
3384.0 0.0002955 3174.97876 3201.19116
3411.0 0.0002932 3174.07739 3200.68945
3628.0 0.0002756 3173.17383 3200.19604
3698.0 0.0002704 3172.26831 3199.70947
3606.0 0.0002773 3171.35913 3199.23022
3621.0 0.0002762 3170.44873 3198.75977
3616.0 0.0002765 3169.53589 3198.29736
3619.0 0.0002763 3168.62085 3197.84351
3649.0 0.0002740 3167.70288 3197.39868
3579.0 0.0002794 3166.78369 3196.96265
3442.0 0.0002905 3165.86182 3196.53735
3493.0 0.0002863 3164.93750 3196.12256
3452.0 0.0002897 3164.01172 3195.71729
3387.0 0.0002952 3163.08203 3195.32397
3302.0 0.0003028 3162.15210 3194.94214
3272.0 0.0003056 3161.21924 3194.57300
3272.0 0.0003056 3160.28394 3194.21680
3112.0 0.0003213 3159.34692 3193.87231
3104.0 0.0003222 3158.40771 3193.54395
3111.0 0.0003214 3157.46606 3193.22900
3054.0 0.0003274 3156.52246 3192.92847
3111.0 0.0003214 3155.57715 3192.64453
3014.0 0.0003318 3154.62988 3192.37695
3093.0 0.0003233 3153.68066 3192.12500
3093.0 0.0003233 3152.72852 3191.89282
3091.0 0.0003235 3151.77588 3191.67871
3071.0 0.0003256 3150.81982 3191.48340
3125.0 0.0003200 3149.86304 3191.30884
3094.0 0.0003232 3148.90283 3191.15527
3111.0 0.0003214 3147.94189 3191.02490
3082.0 0.0003245 3146.97900 3190.91748
3069.0 0.0003258 3146.01465 3190.83398
3063.0 0.0003265 3145.04688 3190.77539
3044.0 0.0003285 3144.07861 3190.74512
3158.0 0.0003167 3143.10742 3190.74048
3208.0 0.0003117 3142.13525 3190.76685
3152.0 0.0003173 3141.16113 3190.82349
3147.0 0.0003178 3140.18506 3190.91064
3064.0 0.0003264 3139.20654 3191.03174
2994.0 0.0003340 3138.22705 3191.18848
3024.0 0.0003307 3137.24609 3191.38306
3072.0 0.0003255 3136.26270 3191.61426
3152.0 0.0003173 3135.27808 3191.88623
3160.0 0.0003165 3134.29224 3192.20239
3220.0 0.0003106 3133.30396 3192.56201
3239.0 0.0003087 3132.31470 3192.96924
3220.0 0.0003106 3131.32227 3193.42529
3160.0 0.0003165 3130.32910 3193.93433
3134.0 0.0003191 3129.33496 3194.49707
3113.0 0.0003212 3128.33862 3195.11914
3225.0 0.0003101 3127.34058 3195.80054
3328.0 0.0003005 3126.34204 3196.54736
3427.0 0.0002918 3125.34229 3197.36157
3444.0 0.0002904 3124.33887 3198.24658
3492.0 0.0002864 3123.33447 3199.20874
3453.0 0.0002896 3122.32983 3200.25049
3446.0 0.0002902 3121.32251 3201.37793
3638.0 0.0002749 3120.31396 3202.59326
3548.0 0.0002818 3119.30518 3203.90552
3594.0 0.0002782 3118.29297 3205.31812
3681.0 0.0002717 3117.28125 3206.83862
3624.0 0.0002759 3116.26782 3208.47412
3780.0 0.0002646 3115.25220 3210.23120
3884.0 0.0002575 3114.23560 3212.11743
3808.0 0.0002626 3113.21802 3214.14233
4066.0 0.0002459 3112.19849 3216.31445
4108.0 0.0002434 3111.17773 3218.64404
4191.0 0.0002386 3110.15625 3221.14453
4257.0 0.0002349 3109.13330 3223.82422
4498.0 0.0002223 3108.10913 3226.69946
4642.0 0.0002154 3107.08276 3229.78296
4635.0 0.0002157 3106.05688 3233.09106
4807.0 0.0002080 3105.02856 3236.64160
4790.0 0.0002088 3103.99902 3240.45313
4714.0 0.0002121 3102.96924 3244.54785
4714.0 0.0002121 3101.93750 3248.94824
4693.0 0.0002131 3100.90405 3253.68018
4537.0 0.0002204 3099.87158 3258.77393
4464.0 0.0002240 3098.83691 3264.26001
4445.0 0.0002250 3097.80127 3270.17480
4481.0 0.0002232 3096.76416 3276.55859
4339.0 0.0002305 3095.72607 3283.45532
4516.0 0.0002214 3094.68652 3290.91895
4506.0 0.0002219 3093.64648 3299.00391
4444.0 0.0002250 3092.60571 3307.77466
4375.0 0.0002286 3091.56396 3317.30859
4364.0 0.0002291 3090.52124 3327.68677
4355.0 0.0002296 3089.47754 3339.01001
4458.0 0.0002243 3088.43237 3351.38818
4363.0 0.0002292 3087.38696 3364.95288
4227.0 0.0002366 3086.33984 3379.85596
4154.0 0.0002407 3085.29150 3396.28027
4211.0 0.0002375 3084.24438 3414.44385
4276.0 0.0002339 3083.19458 3434.61035
4133.0 0.0002420 3082.14453 3457.11353
4071.0 0.0002456 3081.09351 3482.37158
4029.0 0.0002482 3080.04175 3510.92969
4060.0 0.0002463 3078.98877 3543.49512
4225.0 0.0002367 3077.93628 3580.99316
4233.0 0.0002362 3076.88135 3624.62305
4307.0 0.0002322 3075.82690 3675.92432
4269.0 0.0002342 3074.77173 3736.82056
4304.0 0.0002323 3073.71582 3809.66553
4509.0 0.0002218 3072.65894 3897.25391
4614.0 0.0002167 3071.60132 4002.81689
4797.0 0.0002085 3070.54321 4129.95898
4770.0 0.0002096 3069.48438 4282.52393
4922.0 0.0002032 3068.42480 4464.24658
5092.0 0.0001964 3067.36475 4678.04492
5369.0 0.0001863 3066.30396 4924.80322
5446.0 0.0001836 3065.24243 5202.04053
5628.0 0.0001777 3064.18042 5503.93066
6138.0 0.0001629 3063.11816 5824.77393
6408.0 0.0001561 3062.05664 6165.17969
6648.0 0.0001504 3060.99243 6534.94678
6986.0 0.0001431 3059.92871 6947.30615
7375.0 0.0001356 3058.86377 7407.25635
8058.0 0.0001241 3057.80005 7900.97900
8426.0 0.0001187 3056.73462 8392.34082
8859.0 0.0001129 3055.66846 8833.04980
9414.0 0.0001062 3054.60254 9187.78809
10405.0 0.0000961 3053.53564 9456.83203
11092.0 0.0000902 3052.46875 9670.99023
11283.0 0.0000886 3051.40112 9861.65137
11286.0 0.0000886 3050.33350 10035.08594
11415.0 0.0000876 3049.26611 10168.77246
11493.0 0.0000870 3048.19751 10222.41602
11188.0 0.0000894 3047.12915 10149.94629
10482.0 0.0000954 3046.05981 9914.16602
9601.0 0.0001042 3044.99097 9509.14453
8847.0 0.0001130 3043.92090 8973.58008
8291.0 0.0001206 3042.85107 8376.62891
7561.0 0.0001323 3041.78125 7788.50439
7015.0 0.0001426 3040.71118 7260.47070
6647.0 0.0001504 3039.64087 6821.31689
6279.0 0.0001593 3038.56982 6482.61475
6016.0 0.0001662 3037.49878 6244.89502
5810.0 0.0001721 3036.42847 6101.81201
5940.0 0.0001684 3035.35693 6042.57031
5782.0 0.0001730 3034.28589 6053.94922
5806.0 0.0001722 3033.21411 6123.11133
5871.0 0.0001703 3032.14160 6240.88867
6072.0 0.0001647 3031.07080 6403.26221
6146.0 0.0001627 3029.99927 6608.82861
6536.0 0.0001530 3028.92700 6853.14551
6921.0 0.0001445 3027.85498 7123.28320
7280.0 0.0001374 3026.78369 7396.39111
7735.0 0.0001293 3025.71167 7645.15283
8094.0 0.0001235 3024.63965 7849.18018
8328.0 0.0001201 3023.56787 8004.39990
8972.0 0.0001115 3022.49585 8120.95313
9125.0 0.0001096 3021.42334 8210.53906
9118.0 0.0001097 3020.35254 8274.27148
9220.0 0.0001085 3019.28052 8299.31836
9153.0 0.0001093 3018.20898 8263.21777
8679.0 0.0001152 3017.13745 8141.35400
8292.0 0.0001206 3016.06567 7916.50635
7683.0 0.0001302 3014.99438 7589.20850
7241.0 0.0001381 3013.92261 7181.84180
6760.0 0.0001479 3012.85132 6731.22021
6319.0 0.0001583 3011.77979 6275.09082
5821.0 0.0001718 3010.70923 5842.21045
5389.0 0.0001856 3009.63818 5449.60449
5020.0 0.0001992 3008.56836 5104.57666
4647.0 0.0002152 3007.49780 4808.01416
4336.0 0.0002306 3006.42749 4557.12939
4154.0 0.0002407 3005.35815 4347.27979
4023.0 0.0002486 3004.28809 4173.08057
3821.0 0.0002617 3003.21875 4036.67651
3653.0 0.0002737 3002.14966 3917.75977
3592.0 0.0002784 3001.08081 3819.19971
3479.0 0.0002874 3000.01245 3737.00244
3339.0 0.0002995 2998.94360 3667.84497
3336.0 0.0002998 2997.87549 3609.04834
3215.0 0.0003110 2996.80811 3558.49805
3140.0 0.0003185 2995.74097 3514.55957
3089.0 0.0003237 2994.67383 3475.97729
3117.0 0.0003208 2993.60718 3441.79297
3038.0 0.0003292 2992.54199 3411.27148
2981.0 0.0003355 2991.47632 3383.84009
2965.0 0.0003373 2990.40967 3359.05078
3058.0 0.0003270 2989.34448 3336.54053
3036.0 0.0003294 2988.28003 3316.01636
3034.0 0.0003296 2987.21631 3297.23242
2996.0 0.0003338 2986.15137 3279.98340
3027.0 0.0003304 2985.08887 3264.09473
2942.0 0.0003399 2984.02637 3249.41699
2891.0 0.0003459 2982.96411 3235.82129
2888.0 0.0003463 2981.90161 3223.19556
3052.0 0.0003277 2980.84033 3211.44263
2964.0 0.0003374 2979.77979 3200.47705
2862.0 0.0003494 2978.71899 3190.22314
2843.0 0.000352 2977.65991 3180.61743
2908.0 0.0003439 2976.60059 3171.60059
2848.0 0.000351 2975.54224 3163.11914
2765.0 0.000362 2974.48364 3155.12915
2776.0 0.000360 2973.42627 3147.58813
2798.0 0.000357 2972.36890 3140.46143
2723.0 0.000367 2971.31201 3133.71558
2804.0 0.000357 2970.25684 3127.31982
2868.0 0.0003487 2969.20190 3121.24951
2849.0 0.000351 2968.14722 3115.47876
2811.0 0.000356 2967.09302 3109.98853
2783.0 0.000359 2966.03979 3104.75879
2762.0 0.000362 2964.98657 3099.76904
2767.0 0.000361 2963.93506 3095.00684
2861.0 0.0003495 2962.88330 3090.45532
2789.0 0.000359 2961.83350 3086.10229
2758.0 0.000363 2960.78320 3081.93628
2762.0 0.000362 2959.73364 3077.94360
2811.0 0.000356 2958.68579 3074.11621
2733.0 0.000366 2957.63770 3070.44556
2782.0 0.000359 2956.59131 3066.92163
2785.0 0.000359 2955.54492 3063.53687
2679.0 0.000373 2954.50024 3060.28442
2665.0 0.000375 2953.45435 3057.15869
2677.0 0.000374 2952.41113 3054.15259
2727.0 0.000367 2951.36792 3051.26074
2648.0 0.000378 2950.32495 3048.47974
2665.0 0.000375 2949.28320 3045.80298
2779.0 0.000360 2948.24268 3043.22852
2795.0 0.000358 2947.20239 3040.75171
2742.0 0.000365 2946.16309 3038.36865
2684.0 0.000373 2945.12451 3036.07764
2748.0 0.000364 2944.08740 3033.87305
2808.0 0.000356 2943.05151 3031.75562
2779.0 0.000360 2942.01538 3029.72314
2782.0 0.000359 2940.98022 3027.77197
2749.0 0.000364 2939.94653 3025.90161
2768.0 0.000361 2938.91284 3024.10986
2705.0 0.000370 2937.88135 3022.39819
2719.0 0.000368 2936.84961 3020.76196
2726.0 0.000367 2935.81860 3019.20288
2812.0 0.000356 2934.78955 3017.72168
2716.0 0.000368 2933.76001 3016.31665
2764.0 0.000362 2932.73242 3014.98730
2768.0 0.000361 2931.70630 3013.73657
2723.0 0.000367 2930.68018 3012.56299
2697.0 0.000371 2929.65454 3011.46802
2699.0 0.000371 2928.63184 3010.45361
2697.0 0.000371 2927.60815 3009.52100
2685.0 0.000372 2926.58667 3008.67261
2714.0 0.000368 2925.56543 3007.90918
2765.0 0.000362 2924.54492 3007.23511
2771.0 0.000361 2923.52612 3006.65088
2627.0 0.000381 2922.50781 3006.16260
2724.0 0.000367 2921.49146 3005.77295
2811.0 0.000356 2920.47559 3005.48633
2710.0 0.000369 2919.46045 3005.30859
2696.0 0.000371 2918.44580 3005.24268
2721.0 0.000368 2917.43286 3005.29663
2906.0 0.0003441 2916.42065 3005.47729
2765.0 0.000362 2915.40991 3005.79175
2807.0 0.000356 2914.39990 3006.24854
2920.0 0.0003425 2913.39087 3006.85791
2838.0 0.000352 2912.38354 3007.63013
2838.0 0.000352 2911.37695 3008.57690
2777.0 0.000360 2910.37183 3009.71118
2737.0 0.000365 2909.36670 3011.04932
2827.0 0.000354 2908.36353 3012.60791
2835.0 0.000353 2907.36084 3014.40527
2707.0 0.000369 2906.35962 3016.46216
2753.0 0.000363 2905.35986 3018.80542
2771.0 0.000361 2904.36084 3021.46021
2780.0 0.000360 2903.36279 3012.00415
2905.0 0.0003442 2902.36548 3015.55786
2853.0 0.0003505 2901.37012 3019.52710
2907.0 0.0003440 2900.37524 3023.96191
2925.0 0.0003419 2899.38232 3028.91333
2989.0 0.0003346 2898.38989 3034.44678
2951.0 0.0003389 2897.39844 3040.63281
2855.0 0.0003503 2896.40796 3047.55762
2930.0 0.0003413 2895.41895 3055.32349
2909.0 0.0003438 2894.43140 3064.04883
2978.0 0.0003358 2893.44482 3073.87939
3062.0 0.0003266 2892.45947 3084.99243
3078.0 0.0003249 2891.47461 3097.61157
3152.0 0.0003173 2890.49219 3112.02710
3219.0 0.0003107 2889.51025 3128.61938
3223.0 0.0003103 2888.52905 3147.90845
3209.0 0.0003116 2887.55029 3170.60034
3259.0 0.0003068 2886.57104 3197.65625
3315.0 0.0003017 2885.59424 3230.36743
3497.0 0.0002860 2884.61816 3270.41431
3439.0 0.0002908 2883.64355 3319.91968
3527.0 0.0002835 2882.66919 3381.46265
3543.0 0.0002822 2881.69678 3469.89941
3736.0 0.0002677 2880.72559 3565.05859
3930.0 0.0002545 2879.75586 3682.22876
4099.0 0.0002440 2878.78711 3824.87427
4185.0 0.0002389 2877.81934 3995.58472
4189.0 0.0002387 2876.85278 4194.82275
4350.0 0.0002299 2875.88721 4419.68506
4472.0 0.0002236 2874.92383 4664.77100
4730.0 0.0002114 2873.96069 4927.02734
5067.0 0.0001974 2872.99951 5211.28125
5116.0 0.0001955 2872.03931 5528.52295
5578.0 0.0001793 2871.08057 5885.53271
5947.0 0.0001682 2870.12231 6273.09180
6309.0 0.0001585 2869.16577 6660.58691
6692.0 0.0001494 2868.21045 7004.66992
7151.0 0.0001398 2867.25659 7274.49512
7402.0 0.0001351 2866.30322 7473.50928
7658.0 0.0001306 2865.35278 7629.90820
7814.0 0.0001280 2864.40063 7764.58643
8097.0 0.0001235 2863.45313 7870.95801
7875.0 0.0001270 2862.50464 7918.62256
7693.0 0.0001300 2861.55835 7866.32568
7177.0 0.0001393 2860.61255 7675.34082
6692.0 0.0001494 2859.66821 7330.52783
6278.0 0.0001593 2858.72534 6858.81689
5773.0 0.0001732 2857.78467 6319.98975
5127.0 0.0001950 2856.84375 5776.93750
4753.0 0.0002104 2855.90552 5274.36230
4418.0 0.0002263 2854.96680 4835.43018
4129.0 0.0002422 2854.03076 4467.50732
3795.0 0.0002635 2853.09497 4168.47705
3558.0 0.0002811 2852.16162 3931.13696
3462.0 0.0002889 2851.22852 3745.97144
3237.0 0.0003089 2850.29761 3594.84473
3124.0 0.0003201 2849.36646 3484.66406
3001.0 0.0003332 2848.43799 3399.17578
2991.0 0.0003343 2847.50977 3331.91748
2969.0 0.0003368 2846.58350 3277.98657
2936.0 0.0003406 2845.65894 3233.82397
2975.0 0.0003361 2844.73511 3196.92139
2933.0 0.0003409 2843.81201 3165.54004
2944.0 0.0003397 2842.89087 3138.47314
2981.0 0.0003355 2841.97095 3114.86353
2802.0 0.000357 2841.05176 3094.09399
2716.0 0.000368 2840.13428 3075.69360
2782.0 0.000359 2839.21802 3059.30151
2808.0 0.000356 2838.30298 3044.62427
2789.0 0.000359 2837.38892 3031.42554
2731.0 0.000366 2836.47681 3019.51050
2738.0 0.000365 2835.56543 3008.71240
2818.0 0.000355 2834.65625 2998.89502
2740.0 0.000365 2833.74731 2989.94092
2755.0 0.000363 2832.83911 2981.75000
2748.0 0.000364 2831.93359 2974.23511
2721.0 0.000368 2831.02832 2967.32593
2706.0 0.000370 2830.12451 2960.95752
2719.0 0.000368 2829.22290 2955.07397
2671.0 0.000374 2828.32129 2949.62671
2653.0 0.000377 2827.42236 2944.57593
2630.0 0.000380 2826.52271 2939.88452
2714.0 0.000368 2825.62671 2935.51953
2707.0 0.000369 2824.72974 2931.45288
2641.0 0.000379 2823.83569 2927.65991
2612.0 0.000383 2822.94214 2924.11963
2665.0 0.000375 2822.04907 2920.80933
2662.0 0.000376 2821.15869 2917.71362
2714.0 0.000368 2820.26855 2914.81860
2690.0 0.000372 2819.38062 2912.10791
2741.0 0.000365 2818.49268 2909.57056
2655.0 0.000377 2817.60596 2907.19458
2572.0 0.000389 2816.72241 2904.97070
2604.0 0.000384 2815.83862 2902.89111
2631.0 0.000380 2814.95605 2900.94775
2572.0 0.000389 2814.07520 2899.13379
2738.0 0.000365 2813.19482 2897.44214
2716.0 0.000368 2812.31616 2895.86841
2669.0 0.000375 2811.43945 2894.40845
2671.0 0.000374 2810.56323 2893.05566
2630.0 0.000380 2809.68774 2891.80884
2633.0 0.000380 2808.81494 2890.66504
2583.0 0.000387 2807.94214 2889.61914
2578.0 0.000388 2807.07031 2888.67139
2609.0 0.000383 2806.20068 2887.81836
2622.0 0.000381 2805.33130 2887.06104
2617.0 0.000382 2804.46436 2886.39502
2674.0 0.000374 2803.59814 2885.82300
2670.0 0.000375 2802.73242 2885.34229
2674.0 0.000374 2801.86816 2884.95361
2641.0 0.000379 2801.00537 2884.65845
2656.0 0.000377 2800.14355 2884.45654
2618.0 0.000382 2799.28345 2884.34912
2671.0 0.000374 2798.42432 2884.33765
2715.0 0.000368 2797.56616 2884.42407
2657.0 0.000376 2796.70947 2884.61011
2599.0 0.000385 2795.85400 2884.89844
2647.0 0.000378 2794.99976 2885.29224
2747.0 0.000364 2794.14600 2885.79590
2712.0 0.000369 2793.29395 2886.41064
2615.0 0.000382 2792.44287 2887.14307
2674.0 0.000374 2791.59302 2887.99585
2722.0 0.000367 2790.74414 2888.97729
2694.0 0.000371 2789.89746 2890.08936
2653.0 0.000377 2789.05103 2891.34180
2731.0 0.000366 2788.20557 2892.74048
2655.0 0.000377 2787.36084 2894.29199
2744.0 0.000364 2786.51758 2896.00635
2806.0 0.000356 2785.67578 2897.89209
2754.0 0.000363 2784.83569 2899.95947
2772.0 0.000361 2783.99536 2902.22266
2833.0 0.000353 2783.15747 2904.68970
2798.0 0.000357 2782.32007 2907.37769
2767.0 0.000361 2781.48315 2910.30103
2901.0 0.0003447 2780.64917 2913.47632
2896.0 0.0003453 2779.81543 2916.92163
2870.0 0.0003484 2778.98267 2920.65796
2968.0 0.0003369 2778.15039 2924.70752
2913.0 0.0003433 2777.31934 2929.09668
2976.0 0.0003360 2776.48999 2933.84985
2934.0 0.0003408 2775.66162 2939.00342
3106.0 0.0003220 2774.83325 2944.58789
3037.0 0.0003293 2774.00732 2950.64233
3097.0 0.0003229 2773.18188 2957.21143
3062.0 0.0003266 2772.35815 2964.34229
3165.0 0.0003160 2771.53467 2972.09082
3207.0 0.0003118 2770.71240 2980.51855
3178.0 0.0003147 2769.89233 2989.69385
3250.0 0.0003077 2769.07153 2999.69727
3348.0 0.0002987 2768.25244 3010.61938
3404.0 0.0002938 2767.43433 3022.56274
3474.0 0.0002879 2766.61694 3035.64478
3541.0 0.0002824 2765.80151 3050.00562
3695.0 0.0002706 2764.98633 3065.80420
3791.0 0.0002638 2764.17261 3083.22949
4032.0 0.0002480 2763.36060 3102.50488
4087.0 0.0002447 2762.54834 3123.89966
4087.0 0.0002447 2761.73779 3147.74341
4163.0 0.0002402 2760.92725 3174.44067
4234.0 0.0002362 2760.11890 3204.49854
4416.0 0.0002264 2759.31128 3238.55151
4549.0 0.0002198 2758.50391 3277.40405
4549.0 0.0002198 2757.69702 3322.06763
4573.0 0.0002187 2756.89307 3373.81519
4669.0 0.0002142 2756.08862 3434.22852
4754.0 0.0002103 2755.28564 3505.25977
4746.0 0.0002107 2754.48340 3589.26758
4798.0 0.0002084 2753.68237 3689.07422
4909.0 0.0002037 2752.88232 3807.98047
4949.0 0.0002021 2752.08252 3949.74463
4973.0 0.0002011 2751.28369 4118.48926
5038.0 0.0001985 2750.48608 4318.44092
5293.0 0.0001889 2749.69043 4553.45801
5631.0 0.0001776 2748.89404 4826.24170
5725.0 0.0001747 2748.09961 5137.39453
5926.0 0.0001687 2747.30518 5484.89307
6257.0 0.0001598 2746.51221 5864.86035
6623.0 0.0001510 2745.72021 6273.97070
7013.0 0.0001426 2744.92920 6711.59326
7444.0 0.0001343 2744.13892 7178.30859
7900.0 0.0001266 2743.34937 7662.62305
8311.0 0.0001203 2742.56104 8162.93359
8883.0 0.0001126 2741.77271 8643.13867
9567.0 0.0001045 2740.98584 9070.25293
10217.0 0.0000979 2740.19971 9421.49316
11105.0 0.0000900 2739.41455 9692.06641
11179.0 0.0000895 2738.62988 9887.78613
11107.0 0.0000900 2737.84668 10009.31543
11463.0 0.0000872 2737.06396 10042.47461
11322.0 0.0000883 2736.28149 9960.97949
10847.0 0.0000922 2735.50073 9738.32910
10130.0 0.0000987 2734.72070 9363.42090
9380.0 0.0001066 2733.94043 8852.44336
8745.0 0.0001144 2733.16187 8247.85938
8013.0 0.0001248 2732.38330 7603.85938
7330.0 0.0001364 2731.60571 6969.21289
6680.0 0.0001497 2730.82983 6377.82422
6110.0 0.0001637 2730.05420 5848.07520
5559.0 0.0001799 2729.27905 5386.60254
5214.0 0.0001918 2728.50488 4992.62598
4985.0 0.0002006 2727.73169 4661.23877
4545.0 0.0002200 2726.95825 4393.73340
4425.0 0.0002260 2726.18604 4166.15088
4417.0 0.0002264 2725.41431 3978.98364
4324.0 0.0002313 2724.64331 3825.14746
4231.0 0.0002364 2723.87402 3698.34863
4035.0 0.0002478 2723.10522 3593.21021
3942.0 0.0002537 2722.33618 3505.28369
3820.0 0.0002618 2721.56812 3430.99536
3814.0 0.0002622 2720.80054 3367.53955
3787.0 0.0002641 2720.03442 3312.74536
3531.0 0.0002832 2719.26904 3264.95142
3508.0 0.0002851 2718.50293 3222.89014
3465.0 0.0002886 2717.73877 3185.58911
3460.0 0.0002890 2716.97485 3152.29370
3372.0 0.0002966 2716.21167 3122.40967
3131.0 0.0003194 2715.44849 3095.46338
3155.0 0.0003170 2714.68701 3071.06445
3147.0 0.0003178 2713.92456 3048.89258
3119.0 0.0003206 2713.16382 3028.67822
3160.0 0.0003165 2712.40356 3010.19287
3116.0 0.0003209 2711.64404 2993.24097
2952.0 0.0003388 2710.88477 2977.65479
2827.0 0.000354 2710.12573 2963.28906
2873.0 0.0003481 2709.36816 2950.01611
2876.0 0.0003477 2708.61108 2937.72388
2847.0 0.000351 2707.85376 2926.31787
2770.0 0.000361 2707.09814 2915.71411
2833.0 0.000353 2706.34155 2905.83447
2770.0 0.000361 2705.58691 2896.61377
2770.0 0.000361 2704.83179 3000.13257
2699.0 0.000371 2704.07764 2993.43579
2710.0 0.000369 2703.32324 2987.26660
2685.0 0.000372 2702.57104 2981.58179
2674.0 0.000374 2701.81860 2976.34644
2626.0 0.000381 2701.06543 2971.52661
2707.0 0.000369 2700.31323 2967.09473
2698.0 0.000371 2699.56250 2963.02246
2758.0 0.000363 2698.81128 2959.28711
2747.0 0.000364 2698.06104 2955.86719
2596.0 0.000385 2697.31201 2952.74219
2574.0 0.000389 2696.56226 2949.89624
2611.0 0.000383 2695.81323 2947.31421
2551.0 0.000392 2695.06494 2944.98022
2654.0 0.000377 2694.31616 2942.88354
2578.0 0.000388 2693.56812 2941.01050
2551.0 0.000392 2692.82178 2939.35254
2670.0 0.000375 2692.07471 2937.89941
2624.0 0.000381 2691.32715 2936.64307
2664.0 0.000375 2690.58179 2935.57666
2610.0 0.000383 2689.83594 2934.69092
2531.0 0.000395 2689.09155 2933.98389
2531.0 0.000395 2688.34546 2933.44604
2535.0 0.000394 2687.60010 2933.07520
2509.0 0.000399 2686.85645 2932.86792
2570.0 0.000389 2686.11328 2932.81738
2612.0 0.000383 2685.36890 2932.92383
2581.0 0.000387 2684.62549 2933.18335
2566.0 0.000390 2683.88257 2933.59326
2557.0 0.000391 2683.14087 2934.15283
2583.0 0.000387 2682.39673 2934.85962
2627.0 0.000381 2681.65552 2935.71387
2545.0 0.000393 2680.91284 2936.71484
2581.0 0.000387 2680.17188 2937.86157
2609.0 0.000383 2679.43066 2939.15649
2589.0 0.000386 2678.68970 2940.59766
2617.0 0.000382 2677.94897 2942.18726
2531.0 0.000395 2677.20801 2943.92700
2561.0 0.000390 2676.46851 2945.81812
2609.0 0.000383 2675.72827 2947.86230
2611.0 0.000383 2674.98877 2950.06274
2539.0 0.000394 2674.24854 2952.42163
2614.0 0.000383 2673.51001 2954.94360
2553.0 0.000392 2672.77075 2957.63037
2617.0 0.000382 2672.03198 2960.48730
2683.0 0.000373 2671.29297 2963.51831
2652.0 0.000377 2670.55518 2966.72949
2668.0 0.000375 2669.81641 2970.12524
2656.0 0.000377 2669.07788 2973.71216
2648.0 0.000378 2668.33960 2977.49634
2641.0 0.000379 2667.60229 2981.48682
2647.0 0.000378 2666.86499 2985.68823
2743.0 0.000365 2666.12744 2990.11206
2692.0 0.000371 2665.39063 2994.76685
2684.0 0.000373 2664.65283 2999.66235
2773.0 0.000361 2663.91553 3004.80859
2713.0 0.000369 2663.17944 3010.22119
2756.0 0.000363 2662.44214 3015.90967
2811.0 0.000356 2661.70508 3021.89014
2891.0 0.0003459 2660.96851 3028.17798
2910.0 0.0003436 2660.23242 3034.79102
2899.0 0.0003449 2659.49561 3041.74731
2972.0 0.0003365 2658.75879 3049.06885
2939.0 0.0003403 2658.02271 3056.77637
3029.0 0.0003301 2657.28662 3064.89575
3130.0 0.0003195 2656.55029 3073.45532
3146.0 0.0003179 2655.81445 3082.48389
3203.0 0.0003122 2655.07813 3092.01880
3339.0 0.0002995 2654.34204 3102.09546
3349.0 0.0002986 2653.60522 3112.75635
3354.0 0.0002982 2652.86938 3124.04858
3405.0 0.0002937 2652.13354 3155.63452
3502.0 0.0002856 2651.39771 3168.64941
3631.0 0.0002754 2650.66138 3182.48315
3770.0 0.0002653 2649.92578 3197.21436
4007.0 0.0002496 2649.18945 3212.93335
4069.0 0.0002458 2648.45386 3229.74268
4163.0 0.0002402 2647.71704 3247.75854
4211.0 0.0002375 2646.98145 3267.12769
4375.0 0.0002286 2646.24463 3288.01367
4500.0 0.0002222 2645.50830 3310.62036
4636.0 0.0002157 2644.77197 3335.20142
4807.0 0.0002080 2644.03638 3362.07080
4758.0 0.0002102 2643.29956 3391.63086
4732.0 0.0002113 2642.56323 3424.39795
4675.0 0.0002139 2641.82666 3461.03760
4588.0 0.0002180 2641.09033 3502.40869
4641.0 0.0002155 2640.35352 3549.60669
4471.0 0.0002237 2639.61694 3604.00537
4399.0 0.0002273 2638.88013 3667.31201
4373.0 0.0002287 2638.14258 3741.59424
4330.0 0.0002309 2637.40552 3829.30371
4172.0 0.0002397 2636.66821 3933.26465
4195.0 0.0002384 2635.93042 4056.59448
4184.0 0.0002390 2635.19336 4202.50342
4208.0 0.0002376 2634.45532 4373.88232
4367.0 0.0002290 2633.71826 4572.64063
4480.0 0.0002232 2632.97925 4798.93164
4578.0 0.0002184 2632.24072 5050.88672
4775.0 0.0002094 2631.50220 5325.68018
4965.0 0.0002014 2630.76465 5621.69580
5207.0 0.0001920 2630.02612 5939.24805
5459.0 0.0001832 2629.28662 6277.29541
5974.0 0.0001674 2628.54834 6627.52930
6228.0 0.0001606 2627.80908 6971.28174
6543.0 0.0001528 2627.06885 7284.26611
6909.0 0.0001447 2626.32886 7547.95459
7177.0 0.0001393 2625.59009 7757.44531
7416.0 0.0001348 2624.84888 7916.55273
7616.0 0.0001313 2624.10913 8025.07373
7872.0 0.0001270 2623.36841 8071.44287
7950.0 0.0001258 2622.62695 8036.05615
7676.0 0.0001303 2621.88696 7901.79980
7619.0 0.0001313 2621.14526 7666.65088
7559.0 0.0001323 2620.40332 7350.73193
7581.0 0.0001319 2619.66162 6990.76367
7272.0 0.0001375 2618.91943 6625.90234
6992.0 0.0001430 2618.17725 6286.31934
6977.0 0.0001433 2617.43457 5989.88770
7025.0 0.0001423 2616.69165 5744.33838
6993.0 0.0001430 2615.94775 5550.78711
7009.0 0.0001427 2615.20435 5406.60107
7143.0 0.0001400 2614.46045 5307.26904
7246.0 0.0001380 2613.71631 5247.55664
7370.0 0.0001357 2612.97168 5210.80273
7338.0 0.0001363 2612.22729 5215.23340
7297.0 0.0001370 2611.48145 5245.25781
7205.0 0.0001388 2610.73682 5297.72852
7209.0 0.0001387 2609.99097 5370.39697
7288.0 0.0001372 2609.24438 5461.86963
7157.0 0.0001397 2608.49829 5571.52344
7199.0 0.0001389 2607.75122 5699.41553
7352.0 0.0001360 2607.00415 5846.22021
7228.0 0.0001384 2606.25659 6013.18408
7354.0 0.0001360 2605.50854 6202.13818
7573.0 0.0001320 2604.76025 6415.54883
7939.0 0.0001260 2604.01123 6656.62549
7965.0 0.0001255 2603.26245 6929.50244
8133.0 0.0001230 2602.51270 7239.47168
8685.0 0.0001151 2601.76318 7593.30225
9206.0 0.0001086 2601.01270 7999.63232
9917.0 0.0001008 2600.26221 8469.43750
10515.0 0.0000951 2599.51172 9016.55859
11548.0 0.0000866 2598.76001 9658.27637
12059.0 0.0000829 2598.00757 10415.88574
12815.0 0.0000780 2597.25659 11315.23926
13883.0 0.0000720 2596.50220 12387.15430
15124.0 0.0000661 2595.74976 13667.55371
16456.0 0.0000608 2594.99609 15197.08789
17718.0 0.0000564 2594.24170 17019.75781
19385.0 0.0000516 2593.48804 19179.89063
21167.0 0.0000472 2592.73267 21716.67188
23183.0 0.0000431 2591.97729 24655.97852
25534.0 0.0000392 2591.22241 28001.54492
28116.0 0.0000356 2590.46582 31731.08984
31106.0 0.00003215 2589.70898 35804.70313
34998.0 0.00002857 2588.95142 40183.17188
39271.0 0.00002546 2588.19360 44947.46094
44078.0 0.00002269 2587.43604 49821.18359
49344.0 0.00002027 2586.67725 54784.05078
55251.0 0.00001810 2585.91821 59595.14063
61475.0 0.00001627 2585.15771 63948.86719
67669.0 0.00001478 2584.39844 67586.98438
73886.0 0.00001353 2583.63721 70383.50781
79069.0 0.00001265 2582.87622 72312.39063
81508.0 0.00001227 2582.11499 73329.07031
82015.0 0.00001219 2581.35181 73288.45313
80118.0 0.00001248 2580.59009 71974.25000
76714.0 0.00001304 2579.82764 69218.96875
70849.0 0.00001411 2579.06274 65044.42188
65138.0 0.00001535 2578.29810 59728.64063
58474.0 0.00001710 2577.53394 53739.22266
50778.0 0.00001969 2576.76929 47579.03125
44087.0 0.00002268 2576.00293 41654.05078
37761.0 0.00002648 2575.23633 36223.00000
32026.0 0.00003122 2574.46997 31412.37109
26802.0 0.0000373 2573.70215 27255.53711
22366.0 0.0000447 2572.93457 23729.37305
19097.0 0.0000524 2572.16577 20780.17188
16418.0 0.0000609 2571.39648 18340.09180
14265.0 0.0000701 2570.62671 16337.16797
12571.0 0.0000795 2569.85669 14701.54980
11182.0 0.0000894 2569.08594 13369.29590
10192.0 0.0000981 2568.31519 12284.54688
9463.0 0.0001057 2567.54370 11400.49023
8963.0 0.0001116 2566.77100 10679.44727
8247.0 0.0001213 2565.99805 10092.32617
8094.0 0.0001235 2565.22412 9617.77148
7762.0 0.0001288 2564.44946 9241.13770
7650.0 0.0001307 2563.67578 8953.50195
7549.0 0.0001325 2562.90015 8750.75488
7674.0 0.0001303 2562.12329 8632.81641
7785.0 0.0001285 2561.34717 8602.88672
7850.0 0.0001274 2560.57007 8666.64648
8023.0 0.0001246 2559.79224 8831.05469
8409.0 0.0001189 2559.01318 9102.37891
8721.0 0.0001147 2558.23560 9483.22363
8946.0 0.0001118 2557.45581 9969.50879
9342.0 0.0001070 2556.67603 10550.61426
9978.0 0.0001002 2555.89478 11215.85645
10516.0 0.0000951 2555.11328 11962.57813
11308.0 0.0000884 2554.33154 12792.17773
12253.0 0.0000816 2553.54907 13689.41992
13360.0 0.0000749 2552.76563 14601.87402
14509.0 0.0000689 2551.98218 15444.77148
15481.0 0.0000646 2551.19678 16140.14355
16668.0 0.0000600 2550.41138 16658.28711
17564.0 0.0000569 2549.62598 17011.38477
18325.0 0.0000546 2548.83984 17204.10938
18843.0 0.0000531 2548.05347 17198.79688
18617.0 0.0000537 2547.26465 16924.73633
18188.0 0.0000550 2546.47729 16317.41113
17420.0 0.0000574 2545.68872 15367.52344
16632.0 0.0000601 2544.89868 14149.24414
15550.0 0.0000643 2544.10815 12795.77832
14634.0 0.0000683 2543.31836 11442.19043
13802.0 0.0000725 2542.52563 10185.21680
12818.0 0.0000780 2541.73413 9076.54297
12058.0 0.0000829 2540.94214 8133.91113
11883.0 0.0000842 2540.14917 7354.13818
11357.0 0.0000881 2539.35425 6722.50684
10692.0 0.0000935 2538.55981 6218.74414
10476.0 0.0000955 2537.76538 5820.86621
10271.0 0.0000974 2536.96899 5507.70508
9668.0 0.0001034 2536.17236 5260.47461
9128.0 0.0001096 2535.37476 5063.54102
8717.0 0.0001147 2534.57690 4904.57129
8055.0 0.0001241 2533.77832 4774.25098
7338.0 0.0001363 2532.97852 4665.78467
7017.0 0.0001425 2532.17822 4574.32031
6512.0 0.0001536 2531.37866 4496.42334
6081.0 0.0001644 2530.57739 4429.65967
5702.0 0.0001754 2529.77539 4372.26953
5358.0 0.0001866 2528.97290 4322.95459
4984.0 0.0002006 2528.16968 4280.72412
4926.0 0.0002030 2527.36597 4244.81152
4754.0 0.0002103 2526.56201 4214.60938
4622.0 0.0002164 2525.75635 4189.63037
4280.0 0.0002336 2524.95068 4169.48438
4145.0 0.0002413 2524.14453 4153.86084
4091.0 0.0002444 2523.33716 4142.51514
4037.0 0.0002477 2522.52930 4135.26318
3970.0 0.0002519 2521.72070 4131.96582
3968.0 0.0002520 2520.91138 4132.53467
4255.0 0.0002350 2520.10205 4136.91699
4148.0 0.0002411 2519.29150 4145.10693
3979.0 0.0002513 2518.48022 4157.13135
3938.0 0.0002539 2517.66821 4173.05371
3810.0 0.0002625 2516.85620 4185.02002
3952.0 0.0002530 2516.04224 4209.19824
4063.0 0.0002461 2515.22900 4237.69531
4102.0 0.0002438 2514.41504 4270.73486
4017.0 0.0002489 2513.59937 4308.58789
4147.0 0.0002411 2512.78369 4351.57275
4307.0 0.0002322 2511.96729 4400.06885
4392.0 0.0002277 2511.15039 4454.51563
4476.0 0.0002234 2510.33203 4515.43115
4578.0 0.0002184 2509.51416 4583.41357
4643.0 0.0002154 2508.69507 4659.15967
4772.0 0.0002096 2507.87573 4743.48047
5159.0 0.0001938 2507.05444 4837.31836
5304.0 0.0001885 2506.23340 4941.77930
5615.0 0.0001781 2505.41187 5058.16162
5854.0 0.0001708 2504.59009 5187.99365
6174.0 0.0001620 2503.76685 5333.10010
6498.0 0.0001539 2502.94287 5495.68066
6968.0 0.0001435 2502.11865 5678.43066
7163.0 0.0001396 2501.29395 5884.70898
7776.0 0.0001286 2500.46826 6118.80762
8400.0 0.0001190 2499.64160 6386.31201
8951.0 0.0001117 2498.81421 6694.62549
9432.0 0.0001060 2497.98706 7053.66162
10088.0 0.0000991 2497.15869 7476.70898
11187.0 0.0000894 2496.32959 7981.46436
12024.0 0.0000832 2495.50146 8591.14941
12774.0 0.0000783 2494.66968 9335.64160
14000.0 0.0000714 2493.83984 10252.46289
15228.0 0.0000657 2493.00830 11387.49512
16809.0 0.0000595 2492.17554 12795.12695
18525.0 0.0000540 2491.34277 14537.34082
20544.0 0.0000487 2490.50977 16680.67773
22089.0 0.0000453 2489.67529 19289.32617
24454.0 0.0000409 2488.84106 22412.43945
26668.0 0.0000375 2488.00586 26066.83594
29564.0 0.00003382 2487.17090 30225.75000
33505.0 0.00002985 2486.33301 34833.58594
36884.0 0.00002711 2485.49634 39848.64453
41395.0 0.00002416 2484.65869 45260.76563
47229.0 0.00002117 2483.81958 51021.01172
51694.0 0.00001934 2482.98071 56918.36719
58079.0 0.00001722 2482.14111 62537.92578
64544.0 0.00001549 2481.30127 67405.08594
70167.0 0.00001425 2480.46021 71230.25781
75069.0 0.00001332 2479.61890 73983.17969
78710.0 0.00001270 2478.77612 75688.99219
79680.0 0.00001255 2477.93335 76194.99219
77684.0 0.00001287 2477.09058 75155.26563
74596.0 0.00001341 2476.24561 72221.56250
69517.0 0.00001438 2475.40186 67316.14844
63667.0 0.00001571 2474.55640 60809.85156
56701.0 0.00001764 2473.71143 53423.79688
49664.0 0.00002014 2472.86401 45926.48828
43028.0 0.00002324 2472.01733 38893.32813
36675.0 0.00002727 2471.17041 32647.78906
31330.0 0.00003192 2470.32227 27314.34766
26286.0 0.0000380 2469.47290 22891.31641
21762.0 0.0000460 2468.62427 19305.90430
18386.0 0.0000544 2467.77417 16449.72070
15365.0 0.0000651 2466.92358 14201.52051
13168.0 0.0000759 2466.07300 12442.20020
11304.0 0.0000885 2465.22070 11064.28711
10050.0 0.0000995 2464.36890 9976.99121
8932.0 0.0001120 2463.51685 9107.70020
7970.0 0.0001255 2462.66333 8400.89355
7260.0 0.0001377 2461.80908 7815.62402
6768.0 0.0001478 2460.95483 7322.43115
6260.0 0.0001597 2460.09961 6900.38770
5756.0 0.0001737 2459.24414 6534.60889
5416.0 0.0001846 2458.38867 6214.36963
5169.0 0.0001935 2457.53223 5931.74268
4897.0 0.0002042 2456.67529 5680.70166
4607.0 0.0002171 2455.81689 5456.52637
4545.0 0.0002200 2454.95923 5255.42529
4328.0 0.0002311 2454.10034 5074.28809
4302.0 0.0002325 2453.24170 4910.53271
4072.0 0.0002456 2452.38135 4761.98193
3994.0 0.0002504 2451.52173 4626.79688
3848.0 0.0002599 2450.65991 4503.40332
3708.0 0.0002697 2449.79980 4390.45557
3699.0 0.0002703 2448.93726 4286.79395
3674.0 0.0002722 2448.07544 4191.41260
3554.0 0.0002814 2447.21240 3994.11597
3589.0 0.0002786 2446.34863 3914.09082
3566.0 0.0002804 2445.48535 3840.02710
3569.0 0.0002802 2444.62085 3771.33838
3445.0 0.0002903 2443.75586 3707.51074
3585.0 0.0002789 2442.89063 3648.09131
3629.0 0.0002756 2442.02539 3626.06494
3536.0 0.0002828 2441.15820 3574.70825
3479.0 0.0002874 2440.29175 3526.68652
3469.0 0.0002883 2439.42554 3481.71777
3535.0 0.0002829 2438.55762 3439.54614
3683.0 0.0002715 2437.68921 3399.94165
3523.0 0.0002838 2436.82104 3362.70190
3466.0 0.0002885 2435.95239 3327.64063
3365.0 0.0002972 2435.08252 3294.58740
3366.0 0.0002971 2434.21313 3263.39600
3401.0 0.0002940 2433.34229 3215.14380
3273.0 0.0003055 2432.47241 3187.53589
3164.0 0.0003161 2431.60083 3161.40552
3236.0 0.0003090 2430.72900 3136.64966
3161.0 0.0003164 2429.85767 3113.17456
3100.0 0.0003226 2428.98511 3090.89136
3093.0 0.0003233 2428.11157 3069.72412
3007.0 0.0003326 2427.23877 3049.59790
2936.0 0.0003406 2426.36499 3030.44751
3086.0 0.0003240 2425.49170 3012.21167
2910.0 0.0003436 2424.61694 2994.83252
2876.0 0.0003477 2423.74292 2978.25977
2819.0 0.000355 2422.86768 2962.44409
2851.0 0.000351 2421.99219 2947.34229
2812.0 0.000356 2421.11621 2932.91284
2831.0 0.000353 2420.23975 2919.11719
2747.0 0.000364 2419.36279 2905.92065
2685.0 0.000372 2418.48608 2893.29102
2737.0 0.000365 2417.60913 2881.19702
2698.0 0.000371 2416.73120 2869.61011
2673.0 0.000374 2415.85327 2858.50586
2502.0 0.000400 2414.97559 2847.85767
2508.0 0.000399 2414.09619 2837.64380
2579.0 0.000388 2413.21753 2827.84277
2541.0 0.000394 2412.33789 2818.43433
2498.0 0.000400 2411.45898 2809.40210
2526.0 0.000396 2410.57813 2800.72510
2523.0 0.000396 2409.69873 2792.39014
2498.0 0.000400 2408.81738 2784.38184
2461.0 0.000406 2407.93677 2776.68530
2432.0 0.000411 2407.05664 2769.28613
2454.0 0.000407 2406.17456 2762.17407
2513.0 0.000398 2405.29272 2755.33618
2529.0 0.000395 2404.41064 2748.76270
2527.0 0.000396 2403.52856 2742.44214
2482.0 0.000403 2402.64600 2736.36670
2504.0 0.000399 2401.76416 2730.52637
2432.0 0.000411 2400.88159 2724.91333
2375.0 0.000421 2399.99805 2719.51929
2392.0 0.000418 2399.11499 2714.33618
2376.0 0.000421 2398.23071 2709.35986
2384.0 0.000419 2397.34692 2704.58203
2443.0 0.000409 2396.46167 2699.99756
2424.0 0.000413 2395.57861 2695.59937
2382.0 0.000420 2394.69360 2691.38525
2451.0 0.000408 2393.80908 2687.34888
2471.0 0.000405 2392.92407 2683.48633
2479.0 0.000403 2392.03906 2679.79224
2438.0 0.000410 2391.15430 2676.26514
2410.0 0.000415 2390.26807 2672.89990
2372.0 0.000422 2389.38281 2669.69434
2375.0 0.000421 2388.49658 2666.64648
2477.0 0.000404 2387.61060 2663.75195
2373.0 0.000421 2386.72388 2661.01001
2353.0 0.000425 2385.83887 2658.41968
2354.0 0.000425 2384.95093 2655.97656
2402.0 0.000416 2384.06494 2653.68237
2419.0 0.000413 2383.17798 2651.53516
2346.0 0.000426 2382.29150 2649.53271
2373.0 0.000421 2381.40454 2647.67651
2509.0 0.000399 2380.51685 2645.96484
2513.0 0.000398 2379.63013 2644.39819
2417.0 0.000414 2378.74292 2642.97754
2395.0 0.000418 2377.85571 2641.70264
2442.0 0.000410 2376.96802 2640.57495
2336.0 0.000428 2376.08008 2639.59497
2356.0 0.000424 2375.19287 2638.76514
2395.0 0.000418 2374.30493 2638.08716
2440.0 0.000410 2373.41821 2637.56079
2443.0 0.000409 2372.52905 2637.19214
2379.0 0.000420 2371.64185 2636.98145
2351.0 0.000425 2370.75391 2636.93213
2355.0 0.000425 2369.86572 2637.04883
2324.0 0.000430 2368.97754 2637.33545
2371.0 0.000422 2368.08960 2637.79492
2397.0 0.000417 2367.20215 2638.43237
2428.0 0.000412 2366.31348 2639.25269
2306.0 0.000434 2365.42627 2640.26318
2290.0 0.000437 2364.53711 2641.46777
2385.0 0.000419 2363.64941 2642.87622
2409.0 0.000415 2362.76074 2644.49243
2372.0 0.000422 2361.87329 2646.32739
2375.0 0.000421 2360.98560 2648.38818
2388.0 0.000419 2360.09717 2650.68433
2349.0 0.000426 2359.20850 2653.22729
2394.0 0.000418 2358.32104 2656.02686
2430.0 0.000412 2357.43359 2550.56982
2429.0 0.000412 2356.54541 2555.46362
2529.0 0.000395 2355.65845 2560.62085
2447.0 0.000409 2354.76978 2566.05762
2395.0 0.000418 2353.88281 2571.79297
2423.0 0.000413 2352.99536 2577.84326
2382.0 0.000420 2352.10767 2584.23267
2402.0 0.000416 2351.22046 2590.97876
2367.0 0.000422 2350.33325 2598.10986
2435.0 0.000411 2349.44629 2605.64819
2404.0 0.000416 2348.55933 2613.62524
2429.0 0.000412 2347.67261 2622.06934
2520.0 0.000397 2346.78613 2631.01660
2479.0 0.000403 2345.89966 2640.50195
2483.0 0.000403 2345.01343 2650.56616
2558.0 0.000391 2344.12622 2661.25220
2605.0 0.000384 2343.24097 2672.61035
2588.0 0.000386 2342.35449 2684.68945
2596.0 0.000385 2341.46899 2697.55298
2662.0 0.000376 2340.58398 2711.25952
2610.0 0.000383 2339.69800 2725.88379
2679.0 0.000373 2338.81348 2741.50317
2740.0 0.000365 2337.92871 2758.20288
2647.0 0.000378 2337.04346 2776.08228
2695.0 0.000371 2336.15894 2795.24756
2715.0 0.000368 2335.27490 2815.81958
2735.0 0.000366 2334.39063 2837.93262
2678.0 0.000373 2333.50635 2861.73853
2747.0 0.000364 2332.62207 2887.40649
2801.0 0.000357 2331.73901 2915.12964
2831.0 0.000353 2330.85645 2945.12695
2940.0 0.0003401 2329.97266 2977.64258
2913.0 0.0003433 2329.09058 3012.96362
2887.0 0.0003464 2328.20850 3051.41162
3038.0 0.0003292 2327.32715 3093.36230
3121.0 0.0003204 2326.44482 3139.25098
3227.0 0.0003099 2325.56372 3189.59155
3358.0 0.0002978 2324.68262 3244.98730
3428.0 0.0002917 2323.80103 3306.17529
3620.0 0.0002762 2322.92114 3374.04468
3613.0 0.0002768 2322.04126 3449.70044
3818.0 0.0002619 2321.16162 3534.52783
3910.0 0.0002558 2320.28149 3630.27271
4112.0 0.0002432 2319.40161 3739.15356
4306.0 0.0002322 2318.52344 3863.97314
4424.0 0.0002260 2317.64551 4008.25830
4558.0 0.0002194 2316.76782 4176.38281
4682.0 0.0002136 2315.88965 4373.69238
5078.0 0.0001969 2315.01318 4606.60303
5452.0 0.0001834 2314.13623 4882.65332
5545.0 0.0001803 2313.25879 5210.52734
6096.0 0.0001640 2312.38306 5600.00488
6760.0 0.0001479 2311.50732 6061.80957
7301.0 0.0001370 2310.63232 6607.25830
7817.0 0.0001279 2309.75708 7247.49121
8451.0 0.0001183 2308.88257 7991.97070
9105.0 0.0001098 2308.00928 8845.88574
9864.0 0.0001014 2307.13550 9806.53711
10688.0 0.0000936 2306.26270 10860.12109
11875.0 0.0000842 2305.39038 11982.34668
13358.0 0.0000749 2304.51758 13146.98926
14568.0 0.0000686 2303.64600 14341.26660
15903.0 0.0000629 2302.77539 15577.39453
17558.0 0.0000570 2301.90356 16887.13867
19393.0 0.0000516 2301.03442 18298.12305
21296.0 0.0000470 2300.16504 19803.28711
23240.0 0.0000430 2299.29541 21335.33984
24555.0 0.0000407 2298.42627 22754.90234
25544.0 0.0000391 2297.55835 23864.08594
26312.0 0.0000380 2296.69092 24456.59570
26649.0 0.0000375 2295.82373 24392.63672
25870.0 0.0000387 2294.95776 23654.11523
24690.0 0.0000405 2294.09131 22341.97461
23149.0 0.0000432 2293.22656 20627.13477
21565.0 0.0000464 2292.36157 18695.64258
19501.0 0.0000513 2291.49731 16711.44336
17138.0 0.0000583 2290.63330 14797.98828
14998.0 0.0000667 2289.77075 13034.67871
13194.0 0.0000758 2288.90747 11463.03320
11725.0 0.0000853 2288.04565 10096.83789
10130.0 0.0000987 2287.18555 8931.79590
8723.0 0.0001146 2286.32471 7952.91162
7815.0 0.0001280 2285.46484 7139.59131
6945.0 0.0001440 2284.60498 6469.05371
6049.0 0.0001653 2283.74658 5918.59375
5524.0 0.0001810 2282.88892 5467.03027
4960.0 0.0002016 2282.03149 5095.56250
4588.0 0.0002180 2281.17383 4788.15186
4290.0 0.0002331 2280.31860 4531.57373
4041.0 0.0002475 2279.46387 4315.21729
3820.0 0.0002618 2278.60815 4130.75439
3631.0 0.0002754 2277.75415 3971.75488
3556.0 0.0002812 2276.90015 3833.30103
3478.0 0.0002875 2276.04834 3711.63623
3282.0 0.0003047 2275.19556 3603.88794
3227.0 0.0003099 2274.34473 3507.82837
3195.0 0.0003130 2273.49487 3421.70972
3190.0 0.0003135 2272.64502 3344.13477
3114.0 0.0003211 2271.79565 3273.96973
3015.0 0.0003317 2270.94727 3210.27637
2908.0 0.0003439 2270.10010 3152.27026
2868.0 0.0003487 2269.25244 3099.28418
2875.0 0.0003478 2268.40771 3050.75195
2830.0 0.000353 2267.56201 3006.18311
2738.0 0.000365 2266.71704 2965.15283
2692.0 0.000371 2265.87378 2927.29346
2836.0 0.000353 2265.03076 2892.28125
2668.0 0.000375 2264.18872 2859.83643
2601.0 0.000384 2263.34717 2829.70703
2544.0 0.000393 2262.50708 2801.67578
2503.0 0.000400 2261.66748 2775.54712
2501.0 0.000400 2260.82788 2751.15063
2434.0 0.000411 2259.98950 2728.32935
2447.0 0.000409 2259.15405 2706.94946
2417.0 0.000414 2258.31738 2686.88818
2398.0 0.000417 2257.48047 2668.03491
2413.0 0.000414 2256.64697 2650.29028
2506.0 0.000399 2255.81323 2633.56812
2456.0 0.000407 2254.97998 2617.78540
2374.0 0.000421 2254.14844 2602.87158
2394.0 0.000418 2253.31763 2588.76074
2473.0 0.000404 2252.48730 2575.39404
2473.0 0.000404 2251.65674 2562.71436
2494.0 0.000401 2250.82983 2550.67627
2472.0 0.000405 2250.00146 2539.23169
2594.0 0.000386 2249.17505 2528.34106
2505.0 0.000399 2248.34937 2517.96704
2480.0 0.000403 2247.52490 2508.07422
2509.0 0.000399 2246.70166 2498.63110
2412.0 0.000415 2245.87817 2489.60938
2499.0 0.000400 2245.05640 2480.98096
2608.0 0.000383 2244.23584 2472.72290
2623.0 0.000381 2243.41528 2464.81079
2600.0 0.000385 2242.59546 2457.22461
2529.0 0.000395 2241.77808 2449.94385
2436.0 0.000411 2240.96094 2442.95166
2430.0 0.000412 2240.14624 2436.23071
2494.0 0.000401 2239.32983 2429.76611
2465.0 0.000406 2238.51587 2423.54248
2394.0 0.000418 2237.70337 2417.54688
2327.0 0.000430 2236.89111 2411.76685
2383.0 0.000420 2236.07959 2406.19067
2401.0 0.000416 2235.26929 2400.80664
2316.0 0.000432 2234.46045 2395.60620
2307.0 0.000433 2233.65283 2390.57861
2242.0 0.000446 2232.84595 2385.71655
2247.0 0.000445 2232.04004 2381.00977
2299.0 0.000435 2231.23486 2376.45166
2287.0 0.000437 2230.43140 2372.03418
2252.0 0.000444 2229.62891 2367.75024
2274.0 0.000440 2228.82788 2363.59546
2319.0 0.000431 2228.02734 2359.56152
2265.0 0.000442 2227.22803 2355.64380
2246.0 0.000445 2226.42896 2351.83691
2312.0 0.000433 2225.63184 2348.13550
2230.0 0.000448 2224.83496 2344.53418
2160.0 0.000463 2224.04077 2341.02930
2245.0 0.000445 2223.24780 2337.61621
2232.0 0.000448 2222.45435 2334.29175
2229.0 0.000449 2221.66260 2331.05176
2274.0 0.000440 2220.87134 2327.89160
2269.0 0.000441 2220.08252 2324.80933
2256.0 0.000443 2219.29517 2321.80029
2262.0 0.000442 2218.50610 2318.86377
2288.0 0.000437 2217.72144 2315.99390
2305.0 0.000434 2216.93628 2313.18970
2303.0 0.000434 2216.15283 2310.44897
2279.0 0.000439 2215.37036 2307.76660
2300.0 0.000435 2214.59009 2305.14404
2312.0 0.000433 2213.80908 2302.57690
2376.0 0.000421 2213.03076 2300.06250
2324.0 0.000430 2212.25293 2297.60010
2226.0 0.000449 2211.47583 2295.18799
2314.0 0.000432 2210.70044 2292.82251
2361.0 0.000424 2209.92749 2290.50366
2279.0 0.000439 2209.15356 2288.22974
2364.0 0.000423 2208.38257 2285.99707
2337.0 0.000428 2207.61182 2283.80737
2420.0 0.000413 2206.84302 2281.65649
2491.0 0.000401 2206.07495 2279.54346
2577.0 0.000388 2205.30884 2277.46899
2427.0 0.000412 2204.54321 2275.43066
2441.0 0.000410 2203.77881 2273.42651
2569.0 0.000389 2203.01611 2271.45459
2479.0 0.000403 2202.25464 2269.51611
2443.0 0.000409 2201.49487 2267.60840
2542.0 0.000393 2200.73486 2265.73267
2533.0 0.000395 2199.97729 2263.88452
2503.0 0.000400 2199.22021 2262.06543
2490.0 0.000402 2198.46582 2260.27441
2479.0 0.000403 2197.71167 2258.50977
2456.0 0.000407 2196.95898 2256.77051
2390.0 0.000418 2196.20801 2255.05664
2385.0 0.000419 2195.45776 2253.36670
2438.0 0.000410 2194.70898 2251.70166
2446.0 0.000409 2193.96118 2250.05835
2369.0 0.000422 2193.21509 2248.43774
2311.0 0.000433 2192.47046 2246.83887
2329.0 0.000429 2191.72754 2245.26099
2282.0 0.000438 2190.98560 2243.70313
2247.0 0.000445 2190.24463 2242.16553
2270.0 0.000441 2189.50513 2240.64697
2239.0 0.000447 2188.76660 2239.14746
2292.0 0.000436 2188.03125 2237.66602
2297.0 0.000435 2187.29517 2236.20190
2202.0 0.000454 2186.56128 2234.75537
2264.0 0.000442 2185.82886 2233.32617
2154.0 0.000464 2185.09717 2231.91284
2134.0 0.000469 2184.36768 2230.51563
2138.0 0.000468 2183.63965 2229.13379
2123.0 0.000471 2182.91187 2227.76685
2163.0 0.000462 2182.18628 2226.41577
2156.0 0.000464 2181.46240 2225.07764
2164.0 0.000462 2180.73999 2223.75415
2148.0 0.000466 2180.01855 2222.44531
2177.0 0.000459 2179.29932 2221.14917
2164.0 0.000462 2178.57935 2219.86597
2234.0 0.000448 2177.86255 2218.59497
2139.0 0.000468 2177.14673 2217.33789
2118.0 0.000472 2176.43213 2216.09204
2162.0 0.000463 2175.71948 2214.85840
2152.0 0.000465 2175.00830 2213.63623
2172.0 0.000460 2174.29810 2212.42529
2178.0 0.000459 2173.59009 2211.22534
2189.0 0.000457 2172.88330 2210.03687
2132.0 0.000469 2172.17725 2208.85840
2153.0 0.000464 2171.47241 2207.68970
2133.0 0.000469 2170.76978 2206.53296
2137.0 0.000468 2170.06885 2205.38501
2092.0 0.000478 2169.36890 2204.24707
2100.0 0.000476 2168.67041 2203.11914
2179.0 0.000459 2167.97388 2202.00073
2185.0 0.000458 2167.27856 2200.89063
2100.0 0.000476 2166.58398 2199.78931
2109.0 0.000474 2165.89160 2198.69775
2190.0 0.000457 2165.20142 2165.19482
2164.0 0.000462 2164.51172 2164.50513
2071.0 0.000483 2163.82373 2163.81714
2090.0 0.000478 2163.13745 2163.13110
2124.0 0.000471 2162.45215 2162.44580
2138.0 0.000468 2161.76904 2161.76245
2179.0 0.000459 2161.08716 2161.08105
2184.0 0.000458 2160.40674 2224.13647
2164.0 0.000462 2159.72778 2224.39502
2206.0 0.000453 2159.04980 2224.67480
2189.0 0.000457 2158.37427 2224.97876
2177.0 0.000459 2157.70044 2225.30566
2103.0 0.000476 2157.02686 2225.65698
2090.0 0.000478 2156.35620 2226.03271
2227.0 0.000449 2155.68579 2226.43481
2206.0 0.000453 2155.01807 2226.86401
2233.0 0.000448 2154.35083 2227.31934
2246.0 0.000445 2153.68652 2227.80322
2297.0 0.000435 2153.02295 2228.31494
2253.0 0.000444 2152.36060 2228.85815
2307.0 0.000433 2151.70044 2229.43115
2273.0 0.000440 2151.04102 2230.03638
2335.0 0.000428 2150.38403 2230.67383
2290.0 0.000437 2149.72729 2231.34351
2243.0 0.000446 2149.07373 2232.04907
2334.0 0.000428 2148.42114 2232.79077
2351.0 0.000425 2147.76978 2233.56982
2309.0 0.000433 2147.12085 2234.38672
2341.0 0.000427 2146.47266 2235.24268
2318.0 0.000431 2145.82642 2236.13989
2271.0 0.000440 2145.18042 2237.07861
2262.0 0.000442 2144.53833 2238.06201
2216.0 0.000451 2143.89624 2239.09009
2253.0 0.000444 2143.25684 2240.16382
2261.0 0.000442 2142.61743 2241.28711
2224.0 0.000450 2141.98120 2242.46021
2238.0 0.000447 2141.34595 2243.68530
2170.0 0.000461 2140.71143 2244.96362
2213.0 0.000452 2140.07983 2246.29858
2135.0 0.000468 2139.44995 2247.69019
2083.0 0.000480 2138.82129 2249.14185
2069.0 0.000483 2138.19312 2250.65552
2063.0 0.000485 2137.56787 2252.23511
2122.0 0.000471 2136.94360 2253.87988
2087.0 0.000479 2136.32153 2255.59644
2186.0 0.000457 2135.70117 2257.38403
2249.0 0.000445 2135.08154 2259.24609
2193.0 0.000456 2134.46411 2261.18848
2181.0 0.000459 2133.84766 2263.21118
2178.0 0.000459 2133.23315 2265.31909
2131.0 0.000469 2132.62061 2267.51587
2092.0 0.000478 2132.00928 2269.80518
2199.0 0.000455 2131.39990 2272.18921
2146.0 0.000466 2130.79272 2274.67456
2165.0 0.000462 2130.18579 2277.26440
2145.0 0.000466 2129.58057 2279.96289
2111.0 0.000474 2128.97852 2282.77588
2205.0 0.000454 2128.37695 2285.70825
2189.0 0.000457 2127.77710 2288.76611
2117.0 0.000472 2127.17920 2291.95386
2188.0 0.000457 2126.58252 2295.27881
2208.0 0.000453 2125.98804 2298.74756
2186.0 0.000457 2125.39526 2302.36597
2125.0 0.000471 2124.80273 2306.14160
2129.0 0.000470 2124.21338 2310.08350
2118.0 0.000472 2123.62524 2314.19824
2145.0 0.000466 2123.03833 2318.49487
2166.0 0.000462 2122.45313 2322.98389
2122.0 0.000471 2121.86987 2327.67456
2197.0 0.000455 2121.28857 2332.57764
2223.0 0.000450 2120.70801 2337.70630
2183.0 0.000458 2120.13013 2343.06958
2190.0 0.000457 2119.55347 2348.68042
2164.0 0.000462 2118.97778 2354.55713
2199.0 0.000455 2118.40576 2360.70947
2195.0 0.000456 2117.83252 2367.15723
2247.0 0.000445 2117.26294 2373.91626
2229.0 0.000449 2116.69507 2381.00439
2174.0 0.000460 2116.12842 2388.44092
2218.0 0.000451 2115.56226 2396.24927
2245.0 0.000445 2114.99902 2404.45215
2278.0 0.000439 2114.43774 2413.07324
2312.0 0.000433 2113.87744 2422.13989
2321.0 0.000431 2113.31885 2431.68237
2233.0 0.000448 2112.76196 2441.73096
2313.0 0.000432 2112.20605 2452.31982
2318.0 0.000431 2111.65283 2463.48560
2350.0 0.000426 2111.10107 2475.27051
2418.0 0.000414 2110.55054 2487.71729
2432.0 0.000411 2110.00195 2500.87451
2418.0 0.000414 2109.45581 2514.79419
2418.0 0.000414 2108.91016 2529.53394
2576.0 0.000388 2108.36694 2545.15771
2574.0 0.000389 2107.82495 2561.73193
2521.0 0.000397 2107.28467 2579.33521
2582.0 0.000387 2106.74585 2598.05151
2495.0 0.000401 2106.20874 2617.97021
2577.0 0.000388 2105.67334 2639.19775
2644.0 0.000378 2105.13965 2661.84448
2709.0 0.000369 2104.60767 2686.03809
2803.0 0.000357 2104.07764 2711.91821
2770.0 0.000361 2103.54883 2739.64307
2820.0 0.000355 2103.02173 2769.38672
2826.0 0.000354 2102.49707 2801.34668
2868.0 0.0003487 2101.97290 2835.74414
2831.0 0.000353 2101.45093 2872.82837
2955.0 0.0003384 2100.93066 2912.88354
2930.0 0.0003413 2100.41138 2956.22998
2975.0 0.0003361 2099.89502 3003.23389
3021.0 0.0003310 2099.37964 3054.31152
3148.0 0.0003177 2098.86694 3109.94556
3199.0 0.0003126 2098.35352 3170.68433
3331.0 0.0003002 2097.84399 3237.17383
3276.0 0.0003053 2097.33521 3310.15747
3412.0 0.0002931 2096.82764 3390.51855
3577.0 0.0002796 2096.32202 3479.30811
3652.0 0.0002738 2095.81885 3577.78906
3803.0 0.0002630 2095.31641 3687.52979
3940.0 0.0002538 2094.81567 3810.49805
4140.0 0.0002415 2094.31641 3949.22778
4323.0 0.0002313 2093.82007 4107.04395
4545.0 0.0002200 2093.32397 4288.36328
4934.0 0.0002027 2092.83008 4499.07861
5126.0 0.0001951 2092.33862 4747.00293
5482.0 0.0001824 2091.84766 5042.36182
6024.0 0.0001660 2091.35864 5398.24219
6566.0 0.0001523 2090.87158 5830.94873
7137.0 0.0001401 2090.38525 6360.19482
7861.0 0.0001272 2089.90186 7009.08154
8558.0 0.0001168 2089.41919 7803.82080
9599.0 0.0001042 2088.93848 8773.18164
10867.0 0.0000920 2088.45947 9947.37207
11934.0 0.0000838 2087.98169 11355.75000
13161.0 0.0000760 2087.50659 13022.14844
14663.0 0.0000682 2087.03223 14956.61523
16602.0 0.0000602 2086.56006 17144.58594
18661.0 0.0000536 2086.08838 19540.88281
21290.0 0.0000470 2085.61963 22082.94727
23988.0 0.0000417 2085.15137 24729.12500
27020.0 0.0000370 2084.68530 27494.59961
30285.0 0.00003302 2084.22168 30438.15625
33336.0 0.00003000 2083.75854 33591.57422
35904.0 0.00002785 2083.29785 36871.57813
38490.0 0.00002598 2082.83765 40016.62109
40185.0 0.00002488 2082.38037 42584.21875
41307.0 0.00002421 2081.92358 44055.20313
40673.0 0.00002459 2081.46948 44034.79297
39360.0 0.00002541 2081.01611 42447.49609
36433.0 0.00002745 2080.56445 39544.13672
33223.0 0.00003010 2080.11450 35761.84766
30089.0 0.00003323 2079.66602 31565.46484
26081.0 0.0000383 2079.22021 27346.70898
22583.0 0.0000443 2078.77490 23381.77539
19472.0 0.0000514 2078.33105 19832.08594
16802.0 0.0000595 2077.88965 16768.15625
14144.0 0.0000707 2077.44897 14198.03027
12216.0 0.0000819 2077.01050 12090.78906
10655.0 0.0000939 2076.57422 10393.73340
9195.0 0.0001088 2076.13721 9044.56543
8127.0 0.0001230 2075.70459 7979.96191
7559.0 0.0001323 2075.27173 7141.21289
6753.0 0.0001481 2074.84155 6477.46484
6350.0 0.0001575 2074.41162 5946.99121
5937.0 0.0001684 2073.98535 5517.05273
5509.0 0.0001815 2073.55884 5162.86035
5368.0 0.0001863 2073.13354 4866.14551
5139.0 0.0001946 2072.71191 4613.67822
4800.0 0.0002083 2072.28979 4395.94141
4575.0 0.0002186 2071.87085 4206.04736
4348.0 0.0002300 2071.45288 4038.94409
4143.0 0.0002414 2071.03638 3890.83545
3920.0 0.0002551 2070.62158 3770.26880
3753.0 0.0002665 2070.20825 3652.15308
3605.0 0.0002774 2069.79590 3545.91602
3442.0 0.0002905 2069.38501 3450.01270
3216.0 0.0003109 2068.97705 3363.14624
3218.0 0.0003108 2068.57007 3284.22168
3240.0 0.0003086 2068.16357 3212.30640
3067.0 0.0003261 2067.76025 3146.59937
2995.0 0.0003339 2067.35767 3086.41260
2834.0 0.000353 2066.95654 3031.14844
2903.0 0.0003445 2066.55713 2981.27612
2867.0 0.0003488 2066.15869 2934.37915
2841.0 0.000352 2065.76245 2891.03735
2640.0 0.000379 2065.36743 2850.90503
2526.0 0.000396 2064.97461 2813.67334
2495.0 0.000401 2064.58276 2779.07422
2529.0 0.000395 2064.19189 2746.86572
2449.0 0.000408 2063.80347 2716.83521
2431.0 0.000411 2063.41602 2688.79419
2455.0 0.000407 2063.03076 2662.57129
2383.0 0.000420 2062.64575 2638.01709
2386.0 0.000419 2062.26318 2614.99292
2343.0 0.000427 2061.88159 2593.37817
2408.0 0.000415 2061.50195 2573.06274
2313.0 0.000432 2061.12378 2553.94604
2310.0 0.000433 2060.74658 2535.93823
2273.0 0.000440 2060.37134 2518.95825
2236.0 0.000447 2059.99805 2502.93188
2336.0 0.000428 2059.62500 2487.79175
2297.0 0.000435 2059.25513 2473.47607
2284.0 0.000438 2058.88477 2459.92969
2275.0 0.000440 2058.51636 2447.10132
2267.0 0.000441 2058.15063 2434.94507
2290.0 0.000437 2057.78540 2423.41553
2206.0 0.000453 2057.42139 2412.47607
2195.0 0.000456 2057.05957 2402.09009
2295.0 0.000436 2056.69897 2392.22363
2217.0 0.000451 2056.33960 2382.84766
2253.0 0.000444 2055.98145 2373.93335
2244.0 0.000446 2055.62573 2365.45361
2304.0 0.000434 2055.27075 2357.38843
2226.0 0.000449 2054.91748 2349.71240
2223.0 0.000450 2054.56543 2342.40747
2191.0 0.000456 2054.21484 2335.45337
2241.0 0.000446 2053.86499 2328.83472
2215.0 0.000451 2053.51758 2322.53418
2283.0 0.000438 2053.17114 2316.53760
2304.0 0.000434 2052.82593 2310.83154
2290.0 0.000437 2052.48218 2305.40356
2218.0 0.000451 2052.14014 2300.24414
2283.0 0.000438 2051.79932 2295.33813
2294.0 0.000436 2051.46045 2290.68188
2269.0 0.000441 2051.12231 2286.26343
2301.0 0.000435 2050.78589 2287.99707
2331.0 0.000429 2050.44946 2284.11792
2472.0 0.000405 2050.11694 2280.45923
2539.0 0.000394 2049.78394 2277.01270
2509.0 0.000399 2049.45239 2273.77490
2468.0 0.000405 2049.12354 2270.73975
2559.0 0.000391 2048.79492 2267.90698
2554.0 0.000392 2048.46704 2265.27002
2592.0 0.000386 2048.14160 2262.82813
2633.0 0.000380 2047.81677 2260.57959
2638.0 0.000379 2047.49451 2258.52393
2641.0 0.000379 2047.17322 2256.65967
2682.0 0.000373 2046.85242 2254.98730
2679.0 0.000373 2046.53320 2253.51025
2773.0 0.000361 2046.21655 2252.22827
2706.0 0.000370 2045.90002 2251.14355
2680.0 0.000373 2045.58459 2250.26196
2709.0 0.000369 2045.27087 2249.58618
2667.0 0.000375 2044.95862 2249.12305
2620.0 0.000382 2044.64636 2248.87915
2585.0 0.000387 2044.33765 2248.86230
2594.0 0.000386 2044.02979 2249.08350
2697.0 0.000371 2043.72229 2249.55200
2635.0 0.000380 2043.41626 2250.28223
2581.0 0.000387 2043.11206 2251.28931
2627.0 0.000381 2042.80798 2252.58984
2631.0 0.000380 2042.50659 2254.20532
2606.0 0.000384 2042.20544 2256.15967
2619.0 0.000382 2041.90613 2258.48193
2530.0 0.000395 2041.60791 2261.20386
2580.0 0.000388 2041.31091 2264.37012
2668.0 0.000375 2041.01501 2268.02686
2659.0 0.000376 2040.71973 2272.23804
2757.0 0.000363 2040.42700 2277.08081
2861.0 0.0003495 2040.13501 2282.65649
2834.0 0.000353 2039.84424 2289.08862
2837.0 0.000352 2039.55420 2296.53613
2803.0 0.000357 2039.26660 2305.20044
2816.0 0.000355 2038.97888 2315.33105
2927.0 0.0003416 2038.69312 2327.23291
2883.0 0.0003469 2038.40869 2341.27173
2940.0 0.0003401 2038.12476 2357.87891
2983.0 0.0003352 2037.84290 2377.55273
2956.0 0.0003383 2037.56165 2400.85400
2888.0 0.0003463 2037.28149 2428.39014
3038.0 0.0003292 2037.00330 2460.78516
2939.0 0.0003403 2036.72534 2498.61621
2933.0 0.0003409 2036.44836 2542.29419
2924.0 0.0003420 2036.17383 2591.90479
2976.0 0.0003360 2035.89966 2647.05225
3050.0 0.0003279 2035.62659 2706.85791
3157.0 0.0003168 2035.35535 2770.26489
3263.0 0.0003065 2035.08423 2836.59253
3249.0 0.0003078 2034.81494 2905.82983
3347.0 0.0002988 2034.54663 2978.16089
3413.0 0.0002930 2034.27954 3052.77881
3349.0 0.0002986 2034.01416 3126.66113
3537.0 0.0002827 2033.74902 3194.10083
3559.0 0.0002810 2033.48499 3247.68774
3615.0 0.0002766 2033.22253 3280.91211
3680.0 0.0002717 2032.96057 3229.28735
3725.0 0.0002685 2032.70081 3220.34009
3836.0 0.0002607 2032.44067 3198.30713
3814.0 0.0002622 2032.18225 3172.18262
3707.0 0.0002698 2031.92529 3150.85034
3631.0 0.0002754 2031.66956 3141.97778
3725.0 0.0002685 2031.41479 3151.75708
3683.0 0.0002715 2031.16089 3185.18506
3773.0 0.0002650 2030.90784 3246.51294
3796.0 0.0002634 2030.65625 3339.62964
3962.0 0.0002524 2030.40540 3468.28027
4129.0 0.0002422 2030.15552 3636.05078
4309.0 0.0002321 2029.90747 3846.04834
4621.0 0.0002164 2029.65918 4100.18213
4657.0 0.0002147 2029.41309 4398.03027
4854.0 0.0002060 2029.16748 4735.66357
5322.0 0.0001879 2028.92273 5105.44385
5887.0 0.0001699 2028.67932 5498.02148
6157.0 0.0001624 2028.43726 5906.25635
6589.0 0.0001518 2028.19519 6327.72021
6888.0 0.0001452 2027.95459 6761.69092
7337.0 0.0001363 2027.71521 7200.62305
7688.0 0.0001301 2027.47681 7620.80273
7898.0 0.0001266 2027.23889 7978.25488
8051.0 0.0001242 2027.00342 8215.34668
7943.0 0.0001259 2026.76746 8279.51465
7797.0 0.0001283 2026.53369 8145.76660
7432.0 0.0001346 2026.29968 7827.46387
7021.0 0.0001424 2026.06689 7368.60254
6681.0 0.0001497 2025.83545 6826.11865
6152.0 0.0001625 2025.60449 6254.01709
5674.0 0.0001762 2025.37524 5694.38867
5084.0 0.0001967 2025.14600 5175.01807
4655.0 0.0002148 2024.91858 4711.15771
4154.0 0.0002407 2024.69128 4308.82568
3815.0 0.0002621 2024.46594 3967.91895
3584.0 0.0002790 2024.24060 3684.57935
3376.0 0.0002962 2024.01624 3452.84644
3128.0 0.0003197 2023.79309 3265.81738
2978.0 0.0003358 2023.57129 3116.45532
2869.0 0.0003486 2023.34973 2998.14502
2754.0 0.000363 2023.12903 2905.04346
2607.0 0.000384 2022.90955 2832.24512
2559.0 0.000391 2022.69055 2775.82788
2535.0 0.000394 2022.47241 2732.79053
2492.0 0.000401 2022.25574 2700.94458
2369.0 0.000422 2022.03931 2678.77808
2380.0 0.000420 2021.82471 2665.31641
2492.0 0.000401 2021.61023 2659.99829
2408.0 0.000415 2021.39661 2662.55103
2363.0 0.000423 2021.18408 2672.87964
2376.0 0.000421 2020.97205 2690.94214
2474.0 0.000404 2020.76062 2716.61963
2485.0 0.000402 2020.55090 2749.60645
2530.0 0.000395 2020.34155 2789.38525
2643.0 0.000378 2020.13281 2835.38379
2591.0 0.000386 2019.92468 2887.29395
2700.0 0.000370 2019.71838 2945.32886
2780.0 0.000360 2019.51184 3010.10522
2779.0 0.000360 2019.30664 3082.05200
2850.0 0.000351 2019.10254 3160.67163
3005.0 0.0003328 2018.89819 3244.16016
3083.0 0.0003244 2018.69543 3329.86719
3144.0 0.0003181 2018.49304 3415.73486
3195.0 0.0003130 2018.29199 3502.08081
3313.0 0.0003018 2018.09094 3592.54370
3451.0 0.0002898 2017.89160 3693.40356
3620.0 0.0002762 2017.69214 3811.60205
3644.0 0.0002744 2017.49414 3952.36279
3759.0 0.0002660 2017.29541 4117.33203
3910.0 0.0002558 2017.09888 4304.28711
4170.0 0.0002398 2016.90283 4509.18799
4289.0 0.0002332 2016.70764 4729.54541
4556.0 0.0002195 2016.51257 4965.59619
4919.0 0.0002033 2016.31848 5216.54639
5216.0 0.0001917 2016.12488 5473.50781
5255.0 0.0001903 2015.93274 5713.55273
5395.0 0.0001854 2015.74060 5899.45264
5337.0 0.0001874 2015.54956 5988.76953
5281.0 0.0001894 2015.35864 5950.92041
5050.0 0.0001980 2015.16870 5781.58643
5036.0 0.0001986 2014.97961 5503.27734
4593.0 0.0002177 2014.79102 5153.75830
4308.0 0.0002321 2014.60315 4772.68799
3974.0 0.0002516 2014.41589 4392.88574
3722.0 0.0002687 2014.22974 4037.01782
3433.0 0.0002913 2014.04333 3718.10767
3242.0 0.0003085 2013.85815 3441.76147
2980.0 0.0003356 2013.67419 3208.54492
2884.0 0.0003467 2013.48987 3015.85156
2726.0 0.000367 2013.30664 2859.26953
2601.0 0.000384 2013.12366 2733.54810
2502.0 0.000400 2012.94189 2633.29541
2377.0 0.000421 2012.75964 2553.45874
2336.0 0.000428 2012.57922 2489.60327
2366.0 0.000423 2012.39893 2438.04297
2306.0 0.000434 2012.21912 2395.84668
2300.0 0.000435 2012.04028 2360.76465
2221.0 0.000450 2011.86157 2335.33472
2144.0 0.000466 2011.68384 2309.96118
2141.0 0.000467 2011.50671 2287.90454
2191.0 0.000456 2011.32971 2268.51758
2180.0 0.000459 2011.15332 2251.32275
2231.0 0.000448 2010.97705 2235.95996
2271.0 0.000440 2010.80237 2222.15332
2188.0 0.000457 2010.62781 2209.68481
2215.0 0.000451 2010.45374 2198.37598
2244.0 0.000446 2010.28027 2188.08252
2215.0 0.000451 2010.10730 2178.68164
2169.0 0.000461 2009.93481 2170.06885
2161.0 0.000463 2009.76282 2162.15601
2188.0 0.000457 2009.59167 2154.86694
2181.0 0.000459 2009.42029 2148.13477
2209.0 0.000453 2009.25098 2141.90381
2300.0 0.000435 2009.08020 2136.12280
2364.0 0.000423 2008.91101 2130.74854
2377.0 0.000421 2008.74231 2125.74121
2379.0 0.000420 2008.57373 2121.06885
2416.0 0.000414 2008.40588 2116.69946
2461.0 0.000406 2008.23840 2112.60815
2607.0 0.000384 2008.07092 2108.77002
2699.0 0.000371 2007.90442 2105.16479
2748.0 0.000364 2007.73840 2101.77319
2744.0 0.000364 2007.57251 2098.57837
2883.0 0.0003469 2007.40771 2095.56543
3049.0 0.0003280 2007.24255 2092.71997
3081.0 0.0003246 2007.07825 2090.03027
3007.0 0.0003326 2006.91479 2087.48438
2955.0 0.0003384 2006.75061 2085.07397
3065.0 0.0003263 2006.58862 2082.78833
2908.0 0.0003439 2006.42554 2080.61963
2931.0 0.0003412 2006.26343 2078.55957
2805.0 0.000357 2006.10132 2076.60303
2709.0 0.000369 2005.94019 2074.74121
2636.0 0.000379 2005.77856 2072.97021
2452.0 0.000408 2005.61816 2071.28442
2412.0 0.000415 2005.45825 2069.67871
2393.0 0.000418 2005.29797 2066.66821
2361.0 0.000424 2005.13892 2065.23120
2256.0 0.000443 2004.97961 2063.86182
2169.0 0.000461 2004.82056 2062.55566
2209.0 0.000453 2004.66272 2061.31177
2140.0 0.000467 2004.50439 2060.12598
2097.0 0.000477 2004.34631 2058.99536
2135.0 0.000468 2004.18958 2057.91797
2075.0 0.000482 2004.03223 2056.89111
2047.0 0.000489 2003.87549 2055.91382
2044.0 0.000489 2003.71924 2054.98315
1989.0 0.000503 2003.56274 2054.09888
1965.0 0.000509 2003.40759 2053.25732
1925.0 0.000519 2003.25183 2052.45801
1950.0 0.000513 2003.09717 2051.70166
1993.0 0.000502 2002.94275 2050.98413
1919.0 0.000521 2002.78748 2050.30566
1938.0 0.000516 2002.63440 2049.66528
1933.0 0.000517 2002.47949 2049.06226
1945.0 0.000514 2002.32617 2048.49683
1971.0 0.000507 2002.17249 2047.96655
1989.0 0.000503 2002.02002 2047.47241
1978.0 0.000506 2001.86719 2047.01416
2010.0 0.000498 2001.71472 2046.59021
1983.0 0.000504 2001.56250 2046.20154
2006.0 0.000499 2001.41040 2045.84814
2020.0 0.000495 2001.25867 2034.38757
2021.0 0.000495 2001.10681 2034.26306
2029.0 0.000493 2000.95569 2034.16943
2069.0 0.000483 2000.80493 2034.10889
2114.0 0.000473 2000.65393 2034.08179
2104.0 0.000475 2000.50342 2034.08838
2101.0 0.000476 2000.35364 2034.12964
2077.0 0.000481 2000.20300 2034.20618
2104.0 0.000475 2000.05359 2034.32007
2080.0 0.000481 1999.90381 2034.47119
2099.0 0.000476 1999.75464 2034.66187
2070.0 0.000483 1999.60498 2034.89343
2074.0 0.000482 1999.45642 2035.16760
2073.0 0.000482 1999.30688 2035.48584
2078.0 0.000481 1999.15808 2035.85083
2055.0 0.000487 1999.01001 2036.26538
2037.0 0.000491 1998.86194 2036.73120
2068.0 0.000484 1998.71350 2037.25159
2044.0 0.000489 1998.56567 2037.82971
1989.0 0.000503 1998.41724 2038.46948
2003.0 0.000499 1998.27051 2039.17407
2001.0 0.000500 1998.12256 2039.94849
2003.0 0.000499 1997.97546 2040.79712
1996.0 0.000501 1997.82849 2041.72607
1992.0 0.000502 1997.68115 2042.74011
2004.0 0.000499 1997.53394 2043.84668
2015.0 0.000496 1997.38721 2045.05347
2029.0 0.000493 1997.24109 2046.36731
2080.0 0.000481 1997.09412 2047.79846
1964.0 0.000509 1996.94763 2049.35742
2015.0 0.000496 1996.80164 2051.05518
2000.0 0.000500 1996.65564 2052.90332
1980.0 0.000505 1996.50977 2054.91821
2018.0 0.000496 1996.36340 2057.11548
1989.0 0.000503 1996.21802 2059.51367
1971.0 0.000507 1996.07202 2062.13354
2007.0 0.000498 1995.92627 2065.00000
1970.0 0.000508 1995.78149 2068.13965
2025.0 0.000494 1995.63562 2071.58325
1971.0 0.000507 1995.49011 2075.36792
1876.0 0.000533 1995.34497 2079.53540
1974.0 0.000507 1995.19946 2084.13428
1997.0 0.000501 1995.05444 2089.22217
2045.0 0.000489 1994.90955 2094.86768
1965.0 0.000509 1994.76453 2101.15332
1964.0 0.000509 1994.61938 2108.18164
2037.0 0.000491 1994.47424 2116.08130
2056.0 0.000486 1994.32971 2125.01611
2040.0 0.000490 1994.18445 2135.20020
2027.0 0.000493 1994.04004 2146.91602
2108.0 0.000474 1993.89502 2160.53467
2136.0 0.000468 1993.75049 2176.54761
2129.0 0.000470 1993.60632 2195.59595
2200.0 0.000455 1993.46130 2218.50024
2133.0 0.000469 1993.31689 2246.29395
2227.0 0.000449 1993.17200 2280.25000
2300.0 0.000435 1993.02734 2321.89429
2302.0 0.000434 1992.88306 2373.01465
2410.0 0.000415 1992.73853 2435.63525
2463.0 0.000406 1992.59387 2511.96826
2648.0 0.000378 1992.44910 2604.27026
2696.0 0.000371 1992.30505 2714.58496
2788.0 0.000359 1992.16028 2844.27441
2855.0 0.0003503 1992.01636 2993.37549
3049.0 0.0003280 1991.87122 3159.99243
3218.0 0.0003108 1991.72681 3340.33130
3446.0 0.0002902 1991.58203 3524.06104
3601.0 0.0002777 1991.43762 3719.58398
3769.0 0.0002653 1991.29285 3919.03320
4083.0 0.0002449 1991.14795 4119.14014
4176.0 0.0002395 1991.00354 4310.70020
4263.0 0.0002346 1990.85876 4475.40820
4397.0 0.0002274 1990.71387 4587.54102
4450.0 0.0002247 1990.56873 4622.10352
4306.0 0.0002322 1990.42395 4566.05469
4258.0 0.0002349 1990.27869 4425.27686
4003.0 0.0002498 1990.13416 4218.95020
3828.0 0.0002612 1989.98901 3974.62720
3508.0 0.0002851 1989.84387 3717.71875
3396.0 0.0002945 1989.69849 3467.71802
3191.0 0.0003134 1989.55359 3237.21655
2864.0 0.0003492 1989.40820 3032.92944
2728.0 0.000367 1989.26245 2857.30322
2593.0 0.000386 1989.11707 2709.96460
2469.0 0.000405 1988.97131 2588.79590
2403.0 0.000416 1988.82605 2490.70850
2332.0 0.000429 1988.68018 2412.20239
2241.0 0.000446 1988.53430 2349.77075
2123.0 0.000471 1988.38892 2300.17676
2180.0 0.000459 1988.24304 2260.60767
2149.0 0.000465 1988.09656 2228.73950
2122.0 0.000471 1987.95068 2202.73364
2079.0 0.000481 1987.80420 2181.18262
2027.0 0.000493 1987.65784 2163.03784
2063.0 0.000485 1987.51160 2147.52930
2068.0 0.000484 1987.36450 2134.09839
2034.0 0.000492 1987.21777 2122.33862
2134.0 0.000469 1987.07166 2111.94897
1993.0 0.000502 1986.92407 2102.70435
1924.0 0.000520 1986.77710 2094.42871
1939.0 0.000516 1986.63013 2086.98584
1979.0 0.000505 1986.48267 2080.26294
2026.0 0.000494 1986.33533 2074.16821
1996.0 0.000501 1986.18738 2068.62378
1977.0 0.000506 1986.03992 2063.56494
2063.0 0.000485 1985.89185 2058.93530
1991.0 0.000502 1985.74390 2054.68750
1959.0 0.000510 1985.59583 2050.77930
1943.0 0.000515 1985.44775 2047.17468
1908.0 0.000524 1985.29883 2043.84265
2002.0 0.000500 1985.15002 2040.75513
1974.0 0.000507 1985.00220 2037.88892
1986.0 0.000504 1984.85278 2035.22107
2040.0 0.000490 1984.70386 2032.73413
1977.0 0.000506 1984.55493 2030.41162
1983.0 0.000504 1984.40491 2028.23792
2007.0 0.000498 1984.25574 2026.20044
2031.0 0.000492 1984.10559 2024.28723
1992.0 0.000502 1983.95581 2022.48804
1975.0 0.000506 1983.80579 2020.79358
1976.0 0.000506 1983.65552 2019.19482
1987.0 0.000503 1983.50476 2017.68433
1999.0 0.000500 1983.35474 2016.25623
1997.0 0.000501 1983.20398 2014.90295
2078.0 0.000481 1983.05286 2013.61877
2073.0 0.000482 1982.90173 2012.40002
2035.0 0.000491 1982.75049 2011.24097
1945.0 0.000514 1982.59900 2010.13782
1978.0 0.000506 1982.44666 2009.08557
1977.0 0.000506 1982.29553 2008.08301
2022.0 0.000495 1982.14258 2007.12451
1973.0 0.000507 1981.99060 2006.20886
1980.0 0.000505 1981.83826 2005.33252
1904.0 0.000525 1981.68555 2004.49316
1920.0 0.000521 1981.53259 2003.68848
1923.0 0.000520 1981.37915 2002.91650
1897.0 0.000527 1981.22607 2002.17493
1906.0 0.000525 1981.07227 2001.46191
1845.0 0.000542 1980.91907 2000.77612
1901.0 0.000526 1980.76465 2000.11633
1960.0 0.000510 1980.61096 1999.48096
1901.0 0.000526 1980.45630 1998.86816
1902.0 0.000526 1980.30151 1998.27734
1874.0 0.000534 1980.14685 1997.70715
1946.0 0.000514 1979.99158 1997.15625
1960.0 0.000510 1979.83643 1996.62427
1918.0 0.000521 1979.68091 1996.10913
1932.0 0.000518 1979.52478 1995.61194
1895.0 0.000528 1979.36926 1995.13062
1915.0 0.000522 1979.21301 1994.66467
1954.0 0.000512 1979.05676 1994.21350
1966.0 0.000509 1978.89954 1993.77649
1937.0 0.000516 1978.74280 1993.35254
1975.0 0.000506 1978.58557 1992.94226
1924.0 0.000520 1978.42810 1992.54358
1958.0 0.000511 1978.27075 1992.15796
1946.0 0.000514 1978.11267 1991.78394
2054.0 0.000487 1977.95520 1991.42139
2037.0 0.000491 1977.79614 1991.06897
1999.0 0.000500 1977.63770 1990.72778
1972.0 0.000507 1977.47900 1990.39697
2041.0 0.000490 1977.32068 1990.07642
2009.0 0.000498 1977.16089 1989.76575
2095.0 0.000477 1977.00134 1989.46521
2038.0 0.000491 1976.84119 1989.17334
1998.0 0.000501 1976.68140 1988.89136
2139.0 0.000468 1976.52100 1988.61841
2140.0 0.000467 1976.36011 1988.35461
2150.0 0.000465 1976.19934 1988.09998
2127.0 0.000470 1976.03870 1987.85437
2149.0 0.000465 1975.87720 1987.61829
2171.0 0.000461 1975.71582 1987.39001
2251.0 0.000444 1975.55383 1987.17224
2268.0 0.000441 1975.39160 1986.96277
2228.0 0.000449 1975.22937 1986.76318
2276.0 0.000439 1975.06665 1986.57251
2280.0 0.000439 1974.90369 1986.39136
2286.0 0.000437 1974.74048 1986.21997
2308.0 0.000433 1974.57690 1986.05823
2196.0 0.000455 1974.41333 1985.90759
2207.0 0.000453 1974.24915 1985.76648
2227.0 0.000449 1974.08508 1985.63733
2165.0 0.000462 1973.92029 1985.51794
2141.0 0.000467 1973.75549 1985.41089
2166.0 0.000462 1973.59094 1985.31592
2081.0 0.000481 1973.42542 1985.23413
2098.0 0.000477 1973.25977 1985.16553
2082.0 0.000480 1973.09363 1985.11047
2152.0 0.000465 1972.92749 1985.07092
2086.0 0.000479 1972.76160 1985.04639
2102.0 0.000476 1972.59473 1985.03906
2147.0 0.000466 1972.42749 1985.04895
2123.0 0.000471 1972.26050 1985.07788
2192.0 0.000456 1972.09326 1985.12708
2224.0 0.000450 1971.92517 1985.19812
2210.0 0.000452 1971.75732 1985.29211
2269.0 0.000441 1971.58862 1985.41138
2232.0 0.000448 1971.41992 1985.55811
2274.0 0.000440 1971.25134 1985.73438
2331.0 0.000429 1971.08203 1985.94177
2298.0 0.000435 1970.91260 1991.38147
2261.0 0.000442 1970.74280 1991.73950
2291.0 0.000436 1970.57300 1992.14063
2262.0 0.000442 1970.40271 1992.58911
2280.0 0.000439 1970.23193 1993.09106
2321.0 0.000431 1970.06128 1993.65112
2313.0 0.000432 1969.89026 1994.27588
2328.0 0.000430 1969.71863 1994.97131
2207.0 0.000453 1969.54724 1995.74768
2203.0 0.000454 1969.37500 1996.61426
2179.0 0.000459 1969.20276 1997.58203
2195.0 0.000456 1969.02991 1994.55396
2116.0 0.000473 1968.85693 1995.82849
2068.0 0.000484 1968.68396 1997.25525
2094.0 0.000478 1968.51062 1998.86060
2054.0 0.000487 1968.33691 2000.67700
2040.0 0.000490 1968.16284 2002.74548
1986.0 0.000504 1967.98901 2005.11975
2004.0 0.000499 1967.81445 2007.86584
2016.0 0.000496 1967.63953 2011.06738
2060.0 0.000485 1967.46448 2014.82898
2064.0 0.000484 1967.28918 2019.27966
1990.0 0.000503 1967.11365 2024.57629
1967.0 0.000508 1966.93774 2030.90442
1924.0 0.000520 1966.76160 2038.48169
1948.0 0.000513 1966.58472 2047.55713
1924.0 0.000520 1966.40759 2058.40259
1991.0 0.000502 1966.23145 2071.30640
1972.0 0.000507 1966.05347 2086.54688
2012.0 0.000497 1965.87622 2104.36401
2068.0 0.000484 1965.69824 2124.90210
2126.0 0.000470 1965.52026 2148.14600
2149.0 0.000465 1965.34180 2173.85522
2139.0 0.000468 1965.16284 2201.54980
2183.0 0.000458 1964.98425 2230.56616
2179.0 0.000459 1964.80408 2260.18506
2305.0 0.000434 1964.62500 2289.70166
2339.0 0.000428 1964.44556 2318.28442
2324.0 0.000430 1964.26501 2344.64063
2334.0 0.000428 1964.08496 2366.72388
2314.0 0.000432 1963.90417 2381.84985
2344.0 0.000427 1963.72363 2387.37793
2270.0 0.000441 1963.54211 2381.71655
2219.0 0.000451 1963.36023 2365.05127
2260.0 0.000442 1963.17883 2339.30127
2183.0 0.000458 1962.99634 2307.41699
2208.0 0.000453 1962.81470 2272.50903
2111.0 0.000474 1962.63159 2237.21045
2047.0 0.000489 1962.44946 2203.41699
2021.0 0.000495 1962.26599 2172.30396
2060.0 0.000485 1962.08252 2144.47437
2013.0 0.000497 1961.89893 2122.13428
2032.0 0.000492 1961.71472 2101.24683
1993.0 0.000502 1961.53076 2083.56470
2031.0 0.000492 1961.34570 2068.77612
2023.0 0.000494 1961.16125 2056.52148
1942.0 0.000515 1960.97607 2046.43689
1931.0 0.000518 1960.79102 2038.17126
1899.0 0.000527 1960.60559 2031.40100
1914.0 0.000522 1960.42004 2025.84790
1909.0 0.000524 1960.23413 2021.27319
1994.0 0.000502 1960.04785 2017.48267
1925.0 0.000519 1959.86108 2014.31995
1887.0 0.000530 1959.67419 2011.66235
1914.0 0.000522 1959.48694 2009.41711
1910.0 0.000524 1959.29993 2007.51001
1932.0 0.000518 1959.11230 2005.88635
1881.0 0.000532 1958.92456 2004.50525
1829.0 0.000547 1958.73596 2003.33301
1896.0 0.000527 1958.54773 2005.65063
1946.0 0.000514 1958.35938 2004.86707
1903.0 0.000525 1958.17029 2004.23193
1916.0 0.000522 1957.98108 2003.73376
1922.0 0.000520 1957.79224 2003.36133
1936.0 0.000517 1957.60242 2003.10620
1988.0 0.000503 1957.41235 2002.96191
1991.0 0.000502 1957.22253 2002.92285
2016.0 0.000496 1957.03198 2002.98474
1889.0 0.000529 1956.84155 2003.14490
1888.0 0.000530 1956.65039 2003.40100
1893.0 0.000528 1956.45911 2003.75171
1916.0 0.000522 1956.26794 2004.19666
1920.0 0.000521 1956.07605 2004.73523
1914.0 0.000522 1955.88440 2005.36975
1894.0 0.000528 1955.69275 2006.10034
1917.0 0.000522 1955.50037 2006.93079
1919.0 0.000521 1955.30786 2007.86414
1898.0 0.000527 1955.11523 2008.90430
1855.0 0.000539 1954.92163 2010.05481
1902.0 0.000526 1954.72913 2011.32324
1902.0 0.000526 1954.53540 2012.71460
1888.0 0.000530 1954.34204 2014.23730
1927.0 0.000519 1954.14771 2015.89954
1999.0 0.000500 1953.95447 2017.71143
1984.0 0.000504 1953.76001 2019.68359
1983.0 0.000504 1953.56482 2021.82886
1984.0 0.000504 1953.37073 2024.16162
1971.0 0.000507 1953.17566 2026.69739
1972.0 0.000507 1952.98022 2029.45544
1980.0 0.000505 1952.78479 2032.45654
1915.0 0.000522 1952.58923 2035.72327
1888.0 0.000530 1952.39319 2039.28308
1893.0 0.000528 1952.19739 2043.16699
1996.0 0.000501 1952.00061 2047.41003
1991.0 0.000502 1951.80444 2052.05273
1923.0 0.000520 1951.60754 2057.14136
1942.0 0.000515 1951.41101 2062.73022
1935.0 0.000517 1951.21362 2068.88306
1972.0 0.000507 1951.01660 2075.67456
2013.0 0.000497 1950.81873 2083.19507
1997.0 0.000501 1950.62109 2091.55371
2038.0 0.000491 1950.42334 2100.88599
2076.0 0.000482 1950.22534 2111.36328
2112.0 0.000473 1950.02710 2123.20605
2087.0 0.000479 1949.82825 2136.70142
2056.0 0.000486 1949.62988 2152.22705
2107.0 0.000475 1949.43079 2170.28076
2173.0 0.000460 1949.23145 2191.51660
2238.0 0.000447 1949.03296 2216.78320
2279.0 0.000439 1948.83325 2247.16846
2348.0 0.000426 1948.63379 2284.03882
2366.0 0.000423 1948.43420 2329.07568
2520.0 0.000397 1948.23389 2384.29663
2528.0 0.000396 1948.03381 2452.05786
2618.0 0.000382 1947.83362 2535.01416
2674.0 0.000374 1947.63318 2636.02026
2880.0 0.0003472 1947.43250 2757.92285
3002.0 0.0003331 1947.23206 2903.19067
3168.0 0.0003157 1947.03113 3073.32227
3312.0 0.0003019 1946.82971 3268.07959
3485.0 0.0002869 1946.62891 3484.78687
3756.0 0.0002662 1946.42712 3718.28516
4075.0 0.0002454 1946.22546 3962.00757
4322.0 0.0002314 1946.02356 4209.52588
4401.0 0.0002272 1945.82178 4454.55420
4538.0 0.0002204 1945.61975 4688.01465
4735.0 0.0002112 1945.41760 4893.82764
4895.0 0.0002043 1945.21521 5047.59180
4910.0 0.0002037 1945.01257 5121.72803
4785.0 0.0002090 1944.81018 5096.36377
4774.0 0.0002095 1944.60681 4969.16992
4582.0 0.0002182 1944.40454 4756.75439
4255.0 0.0002350 1944.20117 4487.39355
3994.0 0.0002504 1943.99780 4191.29004
3778.0 0.0002647 1943.79431 3893.68384
3536.0 0.0002828 1943.59094 3612.22974
3259.0 0.0003068 1943.38794 3357.41675
2995.0 0.0003339 1943.18396 3134.22266
2829.0 0.000353 1942.97937 2943.81836
2718.0 0.000368 1942.77588 2784.90454
2625.0 0.000381 1942.57129 2654.67407
2482.0 0.000403 1942.36731 2549.51611
2385.0 0.000419 1942.16333 2465.53247
2339.0 0.000428 1941.95825 2398.91650
2230.0 0.000448 1941.75427 2346.20557
2187.0 0.000457 1941.54932 2304.41992
2292.0 0.000436 1941.34412 2271.11499
2283.0 0.000438 1941.13977 2244.36206
2315.0 0.000432 1940.93396 2222.69287
2272.0 0.000440 1940.72961 2205.01587
2257.0 0.000443 1940.52393 2190.54492
2244.0 0.000446 1940.31909 2178.71753
2278.0 0.000439 1940.11377 2169.14722
2288.0 0.000437 1939.90808 2161.57129
2243.0 0.000446 1939.70251 2155.82837
2284.0 0.000438 1939.49658 2151.83618
2313.0 0.000432 1939.29089 2149.58521
2323.0 0.000430 1939.08484 2149.13501
2338.0 0.000428 1938.87891 2150.61816
2377.0 0.000421 1938.67273 2154.24780
2310.0 0.000433 1938.46680 2160.32373
2349.0 0.000426 1938.26050 2169.24023
2349.0 0.000426 1938.05432 2181.49341
2397.0 0.000417 1937.84802 2197.68237
2427.0 0.000412 1937.64124 2218.50073
2421.0 0.000413 1937.43481 2244.72021
2360.0 0.000424 1937.22852 2277.14648
2479.0 0.000403 1937.02185 2316.54688
2508.0 0.000399 1936.81482 2363.53198
2487.0 0.000402 1936.60840 2418.37964
2528.0 0.000396 1936.40161 2480.82715
2632.0 0.000380 1936.19458 2549.90649
2631.0 0.000380 1935.98792 2623.94507
2724.0 0.000367 1935.78076 2700.83789
2817.0 0.000355 1935.57361 2778.38037
2858.0 0.0003499 1935.36658 2854.22681
2854.0 0.0003504 1935.15942 2925.15845
2868.0 0.0003487 1934.95264 2986.12915
3057.0 0.0003271 1934.74524 3030.12476
2984.0 0.0003351 1934.53870 3049.68262
2945.0 0.0003396 1934.33093 3039.71777
2911.0 0.0003435 1934.12390 2999.94531
2841.0 0.000352 1933.91650 2935.16577
2706.0 0.000370 1933.70935 2853.39111
2650.0 0.000377 1933.50183 2763.26929
2576.0 0.000388 1933.29468 2672.17139
2513.0 0.000398 1933.08728 2585.39331
2462.0 0.000406 1932.87964 2506.20410
2349.0 0.000426 1932.67212 2436.27759
2255.0 0.000443 1932.46521 2376.17334
2266.0 0.000441 1932.25757 2325.71997
2232.0 0.000448 1932.04968 2284.29590
2206.0 0.000453 1931.84277 2251.02466
2121.0 0.000471 1931.63538 2224.91577
2114.0 0.000473 1931.42737 2204.97412
2133.0 0.000469 1931.21997 2190.26953
2128.0 0.000470 1931.01233 2179.99316
2061.0 0.000485 1930.80518 2172.85547
2052.0 0.000487 1930.59802 2169.60742
2072.0 0.000483 1930.39063 2169.27417
2132.0 0.000469 1930.18262 2171.66650
2107.0 0.000475 1929.97510 2176.74658
2093.0 0.000478 1929.76807 2184.62256
2110.0 0.000474 1929.56091 2195.55127
2116.0 0.000473 1929.35291 2209.93433
2111.0 0.000474 1929.14612 2228.33716
2172.0 0.000460 1928.93872 2251.48877
2246.0 0.000445 1928.73108 2280.29590
2224.0 0.000450 1928.52429 2315.83960
2225.0 0.000449 1928.31714 2359.36987
2286.0 0.000437 1928.10962 2412.27661
2418.0 0.000414 1927.90308 2476.03516
2470.0 0.000405 1927.69568 2552.10181
2601.0 0.000384 1927.48877 2641.75537
2695.0 0.000371 1927.28162 2745.85156
2738.0 0.000365 1927.07544 2864.50244
2890.0 0.0003460 1926.86816 2996.73560
3021.0 0.0003310 1926.66113 3140.26782
3160.0 0.0003165 1926.45459 3302.03394
3247.0 0.0003080 1926.24805 3456.99268
3378.0 0.0002960 1926.04138 3610.78418
3557.0 0.0002811 1925.83472 3758.03784
3680.0 0.0002717 1925.62817 3891.47632
3776.0 0.0002648 1925.42114 4000.73047
3749.0 0.0002667 1925.21521 4072.86499
3728.0 0.0002682 1925.00903 4095.53564
3761.0 0.0002659 1924.80249 4061.67456
3737.0 0.0002676 1924.59644 3972.81934
3462.0 0.0002889 1924.39038 3845.18848
3271.0 0.0003057 1924.18445 3680.97217
3116.0 0.0003209 1923.97852 3501.86133
3085.0 0.0003241 1923.77246 3320.89014
3016.0 0.0003316 1923.56702 3147.43970
2859.0 0.0003498 1923.36133 2987.35547
2766.0 0.000362 1923.15564 2843.68164
2632.0 0.000380 1922.95068 2717.49268
2422.0 0.000413 1922.74475 2608.55981
2356.0 0.000424 1922.53979 2515.84229
2297.0 0.000435 1922.33447 2437.82080
2234.0 0.000448 1922.12939 2372.73853
2210.0 0.000452 1921.92419 2318.77368
2183.0 0.000458 1921.71924 2274.15991
2146.0 0.000466 1921.51489 2237.27026
2105.0 0.000475 1921.31042 2206.66846
2068.0 0.000484 1921.10571 2181.12842
2145.0 0.000466 1920.90198 2159.63745
2139.0 0.000468 1920.69739 2141.37598
2098.0 0.000477 1920.49377 2125.69849
2104.0 0.000475 1920.28955 2112.10107
2084.0 0.000480 1920.08545 2100.19458
2083.0 0.000480 1919.88208 2089.68164
2068.0 0.000484 1919.67786 2080.33203
2077.0 0.000481 1919.47510 2071.96631
2097.0 0.000477 1919.27173 2064.44629
2051.0 0.000488 1919.06860 2057.65698
2083.0 0.000480 1918.86487 2051.50757
2036.0 0.000491 1918.66235 2045.92310
2048.0 0.000488 1918.45996 2040.83911
2025.0 0.000494 1918.25732 2036.20276
1975.0 0.000506 1918.05481 2031.96704
2010.0 0.000498 1917.85229 2028.09180
1983.0 0.000504 1917.65027 2024.54260
1983.0 0.000504 1917.44849 2021.28931
1991.0 0.000502 1917.24646 2018.30469
2004.0 0.000499 1917.04517 2015.56519
2042.0 0.000490 1916.84351 2013.05151
1971.0 0.000507 1916.64209 2005.59863
1898.0 0.000527 1916.44104 2003.55530
1982.0 0.000505 1916.24048 2001.68591
2050.0 0.000488 1916.03943 1999.97864
1986.0 0.000504 1915.83899 1998.42188
1954.0 0.000512 1915.63843 1997.00574
2066.0 0.000484 1915.43787 1995.72058
2100.0 0.000476 1915.23792 1994.55945
2083.0 0.000480 1915.03833 1993.51416
2007.0 0.000498 1914.83838 1992.57983
1924.0 0.000520 1914.63916 1991.74939
1936.0 0.000517 1914.43958 1991.01831
1955.0 0.000512 1914.24023 1990.38232
2035.0 0.000491 1914.04187 1989.83813
2097.0 0.000477 1913.84302 1989.38123
2006.0 0.000499 1913.64453 1989.00842
1905.0 0.000525 1913.44580 1988.71887
1949.0 0.000513 1913.24805 1988.50891
1955.0 0.000512 1913.05054 1988.37769
1924.0 0.000520 1912.85242 1988.32239
1964.0 0.000509 1912.65503 1988.34277
1990.0 0.000503 1912.45740 1988.43787
1987.0 0.000503 1912.26038 1988.60620
2022.0 0.000495 1912.06384 1988.84875
2057.0 0.000486 1911.86719 1989.16418
1956.0 0.000511 1911.67090 1989.55359
1941.0 0.000515 1911.47473 1990.01709
2026.0 0.000494 1911.27844 1990.55444
1988.0 0.000503 1911.08276 1991.16797
2019.0 0.000495 1910.88733 1991.85815
1996.0 0.000501 1910.69202 1992.62646
1977.0 0.000506 1910.49707 1993.47424
1943.0 0.000515 1910.30286 1994.40393
1995.0 0.000501 1910.10742 1995.41748
2072.0 0.000483 1909.91345 1996.51746
1987.0 0.000503 1909.71912 1997.70703
1968.0 0.000508 1909.52539 1998.98865
1974.0 0.000507 1909.33215 2000.36707
1970.0 0.000508 1909.13818 2001.84424
1951.0 0.000513 1908.94556 2003.42554
2004.0 0.000499 1908.75232 2005.11597
1954.0 0.000512 1908.55994 2006.91956
1993.0 0.000502 1908.36731 2008.84241
2006.0 0.000499 1908.17578 2010.89063
1884.0 0.000531 1907.98376 2013.07117
1907.0 0.000524 1907.79211 2015.39038
1972.0 0.000507 1907.60095 2017.85730
1898.0 0.000527 1907.40979 2020.47986
1931.0 0.000518 1907.21960 2023.26770
2010.0 0.000498 1907.02869 2026.23193
1967.0 0.000508 1906.83862 2029.38269
1995.0 0.000501 1906.64856 2030.75146
1944.0 0.000514 1906.45874 2034.34326
1951.0 0.000513 1906.26990 2038.16248
1966.0 0.000509 1906.08032 2042.22656
1961.0 0.000510 1905.89160 2046.55249
1950.0 0.000513 1905.70227 2051.16162
1985.0 0.000504 1905.51501 2056.07495
2049.0 0.000488 1905.32642 2061.31763
2070.0 0.000483 1905.13855 2066.91748
2032.0 0.000492 1904.95129 2072.90479
2038.0 0.000491 1904.76404 2079.31299
2023.0 0.000494 1904.57678 2086.18091
2063.0 0.000485 1904.39038 2093.55054
1999.0 0.000500 1904.20435 2101.47021
2047.0 0.000489 1904.01843 2109.99438
2079.0 0.000481 1903.83276 2119.18213
2030.0 0.000493 1903.64697 2129.10498
2178.0 0.000459 1903.46216 2139.84204
2195.0 0.000456 1903.27759 2151.48267
2184.0 0.000458 1903.09302 2164.13403
2182.0 0.000458 1902.90881 2177.91650
2157.0 0.000464 1902.72485 2192.97607
2160.0 0.000463 1902.54114 2209.48462
2206.0 0.000453 1902.35803 2227.65430
2301.0 0.000435 1902.17529 2247.74731
2362.0 0.000423 1901.99194 2270.09912
2320.0 0.000431 1901.80994 2295.14307
2361.0 0.000424 1901.62805 2323.45117
2458.0 0.000407 1901.44617 2355.78149
2505.0 0.000399 1901.26465 2393.13745
2490.0 0.000402 1901.08398 2436.84180
2600.0 0.000385 1900.90308 2488.61328
2661.0 0.000376 1900.72302 2550.64575
2789.0 0.000359 1900.54260 2625.67798
3034.0 0.0003296 1900.36328 2717.04053
3110.0 0.0003215 1900.18372 2828.66504
3247.0 0.0003080 1900.00427 2965.02002
3451.0 0.0002898 1899.82581 3130.94751
3624.0 0.0002759 1899.64709 3331.31763
3901.0 0.0002563 1899.46875 3570.43188
4126.0 0.0002424 1899.29102 3851.09106
4626.0 0.0002162 1899.11340 4173.35596
5094.0 0.0001963 1898.93677 4533.38721
5404.0 0.0001850 1898.76025 4923.21582
5864.0 0.0001705 1898.58350 5332.16260
6390.0 0.0001565 1898.40747 5748.94189
6548.0 0.0001527 1898.23169 6161.38672
7000.0 0.0001429 1898.05640 6552.13135
7345.0 0.0001361 1897.88098 6893.79199
7553.0 0.0001324 1897.70630 7150.67334
7662.0 0.0001305 1897.53186 7290.87842
7454.0 0.0001342 1897.35803 7303.17139
7271.0 0.0001375 1897.18408 7205.73047
7129.0 0.0001403 1897.01099 7040.00244
7124.0 0.0001404 1896.83813 6855.93115
6838.0 0.0001462 1896.66528 6698.72607
6735.0 0.0001485 1896.49304 6602.00879
6846.0 0.0001461 1896.32092 6586.34814
6712.0 0.0001490 1896.14966 6660.32324
6932.0 0.0001443 1895.97791 6822.10889
7397.0 0.0001352 1895.80725 7061.16406
7840.0 0.0001276 1895.63672 7360.37012
8467.0 0.0001181 1895.46692 7698.41553
8831.0 0.0001132 1895.29724 8051.04492
9097.0 0.0001099 1895.12793 8389.80762
9275.0 0.0001078 1894.95862 8679.42188
9479.0 0.0001055 1894.79016 8877.90918
9522.0 0.0001050 1894.62146 8943.51172
9402.0 0.0001064 1894.45361 8847.45020
8843.0 0.0001131 1894.28601 8585.36523
8271.0 0.0001209 1894.11877 8179.60107
7899.0 0.0001266 1893.95190 7671.05908
7144.0 0.0001400 1893.78528 7106.38379
6439.0 0.0001553 1893.61926 6527.31885
5811.0 0.0001721 1893.45361 5962.10107
5202.0 0.0001922 1893.28833 5437.88525
4811.0 0.0002079 1893.12317 4962.87988
4351.0 0.0002298 1892.95874 4541.97363
3913.0 0.0002556 1892.79431 4175.57617
3619.0 0.0002763 1892.63037 3861.21997
3257.0 0.0003070 1892.46704 3594.68115
3100.0 0.0003226 1892.30371 3370.77344
2938.0 0.0003404 1892.14075 3183.92334
2718.0 0.000368 1891.97827 3028.58887
2649.0 0.000378 1891.81653 2899.55884
2569.0 0.000389 1891.65527 2792.13770
2478.0 0.000404 1891.49353 2702.25342
2491.0 0.000401 1891.33301 2626.48120
2402.0 0.000416 1891.17285 2562.01563
2359.0 0.000424 1891.01257 2506.61377
2302.0 0.000434 1890.85254 2458.50684
2258.0 0.000443 1890.69324 2416.32422
2202.0 0.000454 1890.53430 2379.00317
2177.0 0.000459 1890.37573 2345.72437
2178.0 0.000459 1890.21765 2315.85254
2142.0 0.000467 1890.05981 2288.88647
2072.0 0.000483 1889.90247 2264.42847
2116.0 0.000473 1889.74548 2252.05469
2074.0 0.000482 1889.58887 2231.84790
2051.0 0.000488 1889.43274 2213.34155
2079.0 0.000481 1889.27649 2196.34937
2047.0 0.000489 1889.12134 2180.70825
2037.0 0.000491 1888.96631 2166.27979
1956.0 0.000511 1888.81128 2152.94141
2094.0 0.000478 1888.65723 2140.58789
2106.0 0.000475 1888.50317 2129.12524
2088.0 0.000479 1888.34949 2118.47070
2050.0 0.000488 1888.19678 2108.55200
2019.0 0.000495 1888.04395 2099.30176
2071.0 0.000483 1887.89111 2090.66455
2127.0 0.000470 1887.73926 2082.58765
2151.0 0.000465 1887.58789 2075.02466
2149.0 0.000465 1887.43652 2067.93433
2074.0 0.000482 1887.28589 2061.27881
2099.0 0.000476 1887.13550 2055.02515
2088.0 0.000479 1886.98523 2049.14136
2104.0 0.000475 1886.83557 2043.60120
2060.0 0.000485 1886.68665 2038.38000
2084.0 0.000480 1886.53772 2033.45386
2065.0 0.000484 1886.38940 2028.80396
2039.0 0.000490 1886.24133 2024.41016
2011.0 0.000497 1886.09351 2020.25598
2034.0 0.000492 1885.94666 2016.32532
2037.0 0.000491 1885.79944 2012.60425
2049.0 0.000488 1885.65308 2009.07996
2049.0 0.000488 1885.50720 2005.74072
2071.0 0.000483 1885.36157 2002.57397
2083.0 0.000480 1885.21619 1999.57141
2030.0 0.000493 1885.07190 1996.72290
2006.0 0.000499 1884.92700 1994.01990
2055.0 0.000487 1884.78259 1991.45471
2013.0 0.000497 1884.63940 1989.02039
2029.0 0.000493 1884.49585 1986.70972
1996.0 0.000501 1884.35327 1984.51672
1988.0 0.000503 1884.21082 1982.43616
1931.0 0.000518 1884.06873 1980.46277
1920.0 0.000521 1883.92664 1978.59021
1890.0 0.000529 1883.78552 1976.81653
1911.0 0.000523 1883.64441 1975.13574
1900.0 0.000526 1883.50415 1973.54517
1888.0 0.000530 1883.36389 1972.04102
1912.0 0.000523 1883.22437 1970.61951
1885.0 0.000531 1883.08472 1969.27893
1911.0 0.000523 1882.94604 1968.01563
1898.0 0.000527 1882.80774 1966.82703
1959.0 0.000510 1882.66956 1965.71191
1910.0 0.000524 1882.53113 1964.66785
1860.0 0.000538 1882.39429 1963.69385
1863.0 0.000537 1882.25708 1962.78674
1851.0 0.000540 1882.12048 1961.94617
1876.0 0.000533 1881.98462 1961.17090
1882.0 0.000531 1881.84875 1960.45959
1895.0 0.000528 1881.71350 1959.81152
1850.0 0.000541 1881.57800 1959.22571
1830.0 0.000546 1881.44409 1958.70276
1793.0 0.000558 1881.30969 1958.24072
1867.0 0.000536 1881.17542 1957.84045
1861.0 0.000537 1881.04211 1957.50171
1928.0 0.000519 1880.90894 1957.22449
1940.0 0.000515 1880.77698 1957.00952
1925.0 0.000519 1880.64404 1956.85657
1858.0 0.000538 1880.51282 1956.76685
1871.0 0.000534 1880.38159 1956.74133
1910.0 0.000524 1880.25037 1956.78064
1845.0 0.000542 1880.11890 1956.88611
1816.0 0.000551 1879.98914 1957.05884
1829.0 0.000547 1879.85913 1957.30127
1795.0 0.000557 1879.72925 1957.61450
1864.0 0.000536 1879.60059 1958.00085
1827.0 0.000547 1879.47156 1958.46326
1879.0 0.000532 1879.34326 1959.00415
1936.0 0.000517 1879.21521 1959.62549
1913.0 0.000523 1879.08789 1960.33301
1902.0 0.000526 1878.96045 1961.12769
1921.0 0.000521 1878.83350 1962.01514
1960.0 0.000510 1878.70691 1962.99890
2026.0 0.000494 1878.58105 1964.08435
1965.0 0.000509 1878.45508 1965.27637
1929.0 0.000518 1878.33008 1966.58167
1940.0 0.000515 1878.20557 1968.00586
1919.0 0.000521 1878.08044 1969.55725
1948.0 0.000513 1877.95642 1971.24280
1896.0 0.000527 1877.83252 1973.07129
1868.0 0.000535 1877.70886 1975.05212
1913.0 0.000523 1877.58569 1977.19653
1901.0 0.000526 1877.46350 1979.51538
1896.0 0.000527 1877.34119 1982.02222
1907.0 0.000524 1877.21924 1984.73059
1911.0 0.000523 1877.09741 1987.65637
1928.0 0.000519 1876.97644 1990.81726
1947.0 0.000514 1876.85559 1994.23315
1993.0 0.000502 1876.73499 1997.92480
1945.0 0.000514 1876.61523 2001.91772
1980.0 0.000505 1876.49548 2006.23755
2001.0 0.000500 1876.37610 2010.91565
1956.0 0.000511 1876.25732 2015.98596
1935.0 0.000517 1876.13892 2021.48706
1988.0 0.000503 1876.02051 2027.46228
2018.0 0.000496 1875.90283 2033.96021
1973.0 0.000507 1875.78479 2041.03784
1960.0 0.000510 1875.66785 2048.75806
2024.0 0.000494 1875.55127 2057.19434
1995.0 0.000501 1875.43481 2066.43042
2123.0 0.000471 1875.31860 2076.56323
2059.0 0.000486 1875.20300 2087.70776
2086.0 0.000479 1875.08740 2099.99658
2048.0 0.000488 1874.97278 2113.59106
2037.0 0.000491 1874.85742 2128.68579
2054.0 0.000487 1874.74353 2149.28369
2099.0 0.000476 1874.62964 2168.21973
2099.0 0.000476 1874.51636 2189.59131
2099.0 0.000476 1874.40295 2213.90454
2125.0 0.000471 1874.29004 2241.82275
2257.0 0.000443 1874.17761 2274.22192
2342.0 0.000427 1874.06531 2312.25220
2309.0 0.000433 1873.95349 2357.41260
2371.0 0.000422 1873.84167 2411.63452
2459.0 0.000407 1873.73132 2477.36035
2557.0 0.000391 1873.62000 2557.61523
2639.0 0.000379 1873.51001 2656.04736
2805.0 0.000357 1873.39941 2776.93311
2965.0 0.0003373 1873.28979 2925.09546
3173.0 0.0003152 1873.18054 3105.72339
3458.0 0.0002892 1873.07117 3324.03442
3762.0 0.0002658 1872.96240 3584.71680
3964.0 0.0002523 1872.85425 3891.09570
4349.0 0.0002299 1872.74597 4243.98926
4720.0 0.0002119 1872.63867 4640.39893
5057.0 0.0001977 1872.53064 5072.48682
5527.0 0.0001809 1872.42407 5527.54395
6008.0 0.0001664 1872.31702 5989.23096
6590.0 0.0001517 1872.21106 6438.81299
6941.0 0.0001441 1872.10461 6854.10498
7097.0 0.0001409 1871.99890 7192.03467
7237.0 0.0001382 1871.89355 7443.21484
7140.0 0.0001401 1871.78821 7554.04395
6827.0 0.0001465 1871.68372 7497.37598
6619.0 0.0001511 1871.57910 7271.97314
6185.0 0.0001617 1871.47473 6904.89746
6035.0 0.0001657 1871.37097 6441.37354
5544.0 0.0001804 1871.26733 5930.10986
5132.0 0.0001949 1871.16418 5412.41162
4589.0 0.0002179 1871.06128 4917.84131
4199.0 0.0002382 1870.95862 4464.67627
3951.0 0.0002531 1870.85669 4062.35889
3789.0 0.0002639 1870.75476 3714.07764
3505.0 0.0002853 1870.65295 3418.82153
3398.0 0.0002943 1870.55115 3172.87866
3146.0 0.0003179 1870.45056 2970.94434
3022.0 0.0003309 1870.34961 2806.95459
2924.0 0.0003420 1870.24878 2674.72412
2991.0 0.0003343 1870.14880 2568.40186
2940.0 0.0003401 1870.04919 2482.76367
2912.0 0.0003434 1869.94946 2413.36255
2928.0 0.0003415 1869.84998 2356.56250
2855.0 0.0003503 1869.75134 2309.48486
2895.0 0.0003454 1869.65247 2269.91943
2800.0 0.000357 1869.55420 2236.19897
2747.0 0.000364 1869.45605 2207.08325
2531.0 0.000395 1869.35791 2181.65674
2498.0 0.000400 1869.26050 2159.23999
2502.0 0.000400 1869.16357 2139.32397
2407.0 0.000415 1869.06665 2121.51929
2324.0 0.000430 1868.97021 2105.52148
2288.0 0.000437 1868.87354 2091.08911
2281.0 0.000438 1868.77747 2078.02344
2237.0 0.000447 1868.68140 2066.16064
2096.0 0.000477 1868.58582 2055.36133
2065.0 0.000484 1868.49060 2045.50842
2058.0 0.000486 1868.39526 2036.49902
2127.0 0.000470 1868.30017 2028.24622
2108.0 0.000474 1868.20605 2020.67310
2034.0 0.000492 1868.11218 2013.71313
2051.0 0.000488 1868.01807 2007.30774
1976.0 0.000506 1867.92407 2001.40576
1998.0 0.000501 1867.83081 1995.96143
1988.0 0.000503 1867.73755 1990.93591
1949.0 0.000513 1867.64465 1986.29333
1952.0 0.000512 1867.55164 1982.00293
1971.0 0.000507 1867.45935 1978.03662
1939.0 0.000516 1867.36694 1974.37036
1874.0 0.000534 1867.27502 1970.98181
1908.0 0.000524 1867.18384 1967.85193
1926.0 0.000519 1867.09216 1964.96399
1967.0 0.000508 1867.00085 1962.30139
1920.0 0.000521 1866.91016 1959.85266
1891.0 0.000529 1866.81873 1957.60413
1926.0 0.000519 1866.72852 1955.54614
1874.0 0.000534 1866.63831 1953.66980
1878.0 0.000532 1866.54846 1951.96667
1860.0 0.000538 1866.45874 1950.43030
1948.0 0.000513 1866.36938 1949.05457
1911.0 0.000523 1866.27979 1947.83545
1978.0 0.000506 1866.19080 1946.76831
1925.0 0.000519 1866.10156 1945.85132
1940.0 0.000515 1866.01355 1945.08203
1918.0 0.000521 1865.92517 1944.45972
1911.0 0.000523 1865.83679 1943.98486
1867.0 0.000536 1865.74854 1943.65662
2041.0 0.000490 1865.66125 1943.47888
1981.0 0.000505 1865.57349 1943.45361
1912.0 0.000523 1865.48621 1943.58484
1981.0 0.000505 1865.39880 1943.87708
2048.0 0.000488 1865.31177 1944.33777
2088.0 0.000479 1865.22522 1944.97424
2070.0 0.000483 1865.13867 1945.79553
2037.0 0.000491 1865.05273 1946.81384
2037.0 0.000491 1864.96667 1948.04004
2098.0 0.000477 1864.88037 1949.49036
2176.0 0.000460 1864.79492 1951.18225
2206.0 0.000453 1864.70959 1953.13599
2234.0 0.000448 1864.62402 1955.37439
2348.0 0.000426 1864.53882 1957.92615
2378.0 0.000421 1864.45386 1960.82214
2458.0 0.000407 1864.36914 1964.10022
2548.0 0.000392 1864.28503 1967.80481
2670.0 0.000375 1864.20032 1971.98682
2773.0 0.000361 1864.11609 1976.70996
2793.0 0.000358 1864.03210 1982.04956
2941.0 0.0003400 1863.94824 1988.10144
3016.0 0.0003316 1863.86475 1994.98572
3052.0 0.0003277 1863.78101 2002.85840
3033.0 0.0003297 1863.69788 2011.92493
3258.0 0.0003069 1863.61475 2022.45862
3229.0 0.0003097 1863.53162 2034.82959
3166.0 0.0003159 1863.44910 2049.53101
3061.0 0.0003267 1863.36633 2067.22266
3212.0 0.0003113 1863.28394 2088.77051
3175.0 0.0003150 1863.20142 2115.29224
3146.0 0.0003179 1863.11938 2148.19873
2989.0 0.0003346 1863.03735 2189.21704
2892.0 0.0003458 1862.95569 2240.39990
2949.0 0.0003391 1862.87366 2304.08643
2963.0 0.0003375 1862.79224 2382.81592
3014.0 0.0003318 1862.71082 2479.15332
3086.0 0.0003240 1862.62927 2595.40869
3134.0 0.0003191 1862.54858 2733.20996
3289.0 0.0003040 1862.46741 2892.92212
3342.0 0.0002992 1862.38647 3072.97803
3568.0 0.0002803 1862.30579 3269.35986
3649.0 0.0002740 1862.22522 3475.60181
3732.0 0.0002680 1862.14478 3683.42456
3985.0 0.0002509 1862.06494 3883.29761
4155.0 0.0002407 1861.98425 4063.78369
4116.0 0.0002430 1861.90430 4209.97021
4034.0 0.0002479 1861.82410 4303.56787
4035.0 0.0002478 1861.74438 4327.29541
3933.0 0.0002543 1861.66492 4272.29736
3747.0 0.0002669 1861.58496 4143.29297
3597.0 0.0002780 1861.50562 3957.20313
3429.0 0.0002916 1861.42615 3736.71729
3230.0 0.0003096 1861.34729 3503.56543
3016.0 0.0003316 1861.26831 3274.66724
2771.0 0.000361 1861.18848 3061.29541
2681.0 0.000373 1861.10986 2869.89600
2550.0 0.000392 1861.03137 2703.33203
2489.0 0.000402 1860.95251 2561.97559
2310.0 0.000433 1860.87427 2444.53491
2144.0 0.000466 1860.79578 2348.68262
2132.0 0.000469 1860.71692 2271.53809
2050.0 0.000488 1860.63867 2210.04810
2056.0 0.000486 1860.56104 2161.26782
2021.0 0.000495 1860.48254 2122.54517
2016.0 0.000496 1860.40454 2091.61816
1960.0 0.000510 1860.32654 2066.64746
2047.0 0.000489 1860.24878 2046.19373
2043.0 0.000489 1860.17102 2029.16199
1973.0 0.000507 1860.09302 2014.74536
1925.0 0.000519 1860.01550 2002.35254
1923.0 0.000520 1859.93811 1991.55786
1939.0 0.000516 1859.86060 1982.05090
1967.0 0.000508 1859.78271 1973.60474
1987.0 0.000503 1859.70569 1966.04639
1982.0 0.000505 1859.62842 1949.41064
1894.0 0.000528 1859.55103 1943.40198
1983.0 0.000504 1859.47388 1937.95801
1935.0 0.000517 1859.39697 1933.00806
1970.0 0.000508 1859.31958 1928.49365
2018.0 0.000496 1859.24255 1924.36462
1939.0 0.000516 1859.16577 1920.57800
2006.0 0.000499 1859.08911 1917.09668
1943.0 0.000515 1859.01245 1913.88806
1868.0 0.000535 1858.93518 1910.92480
1855.0 0.000539 1858.85864 1908.18103
1840.0 0.000543 1858.78162 1905.63599
1897.0 0.000527 1858.70520 1903.27063
1897.0 0.000527 1858.62830 1901.06763
1901.0 0.000526 1858.55188 1899.01233
1930.0 0.000518 1858.47534 1897.09167
1955.0 0.000512 1858.39905 1895.29333
2010.0 0.000498 1858.32251 1971.10583
1989.0 0.000503 1858.24622 1970.65784
1969.0 0.000508 1858.16956 1970.32935
1926.0 0.000519 1858.09314 1970.11328
1938.0 0.000516 1858.01660 1970.00391
1998.0 0.000501 1857.94019 1969.99463
1977.0 0.000506 1857.86414 1970.08167
1960.0 0.000510 1857.78784 1970.26025
1974.0 0.000507 1857.71179 1970.52734
1988.0 0.000503 1857.63538 1970.87939
2070.0 0.000483 1857.55896 1971.31311
2061.0 0.000485 1857.48242 1971.82666
2062.0 0.000485 1857.40637 1972.41699
2056.0 0.000486 1857.33020 1973.08337
2076.0 0.000482 1857.25354 1973.82349
2228.0 0.000449 1857.17773 1974.63635
2266.0 0.000441 1857.10120 1975.52002
2234.0 0.000448 1857.02502 1976.47559
2190.0 0.000457 1856.94897 1977.50073
2219.0 0.000451 1856.87231 1978.59583
2260.0 0.000442 1856.79651 1979.76013
2302.0 0.000434 1856.71985 1980.99487
2317.0 0.000432 1856.64355 1982.29932
2294.0 0.000436 1856.56714 1983.67285
2279.0 0.000439 1856.49072 1985.11743
2290.0 0.000437 1856.41455 1986.63379
2275.0 0.000440 1856.33777 1988.22168
2174.0 0.000460 1856.26147 1989.88306
2208.0 0.000453 1856.18494 1991.61780
2186.0 0.000457 1856.10889 1993.42871
2124.0 0.000471 1856.03210 1995.31628
2193.0 0.000456 1855.95557 1997.28259
2204.0 0.000454 1855.87891 2014.13855
2223.0 0.000450 1855.80273 2016.44666
2136.0 0.000468 1855.72546 2018.84338
2117.0 0.000472 1855.64917 2021.32922
2105.0 0.000475 1855.57214 2023.90747
2030.0 0.000493 1855.49548 2026.58118
2078.0 0.000481 1855.41882 2029.35266
2047.0 0.000489 1855.34229 2032.22522
2050.0 0.000488 1855.26489 2035.20215
1961.0 0.000510 1855.18787 2038.28735
1984.0 0.000504 1855.11108 2041.48352
1961.0 0.000510 1855.03406 2044.79761
1978.0 0.000506 1854.95667 2048.22949
1984.0 0.000504 1854.88000 2051.78540
1902.0 0.000526 1854.80249 2055.47021
1930.0 0.000518 1854.72510 2059.28906
1955.0 0.000512 1854.64771 2063.24683
2027.0 0.000493 1854.57092 2067.35034
1962.0 0.000510 1854.49304 2071.60400
1966.0 0.000509 1854.41577 2076.01563
1949.0 0.000513 1854.33777 2080.59082
1958.0 0.000511 1854.25989 2085.33813
1921.0 0.000521 1854.18237 2090.26343
1933.0 0.000517 1854.10413 2095.37646
1935.0 0.000517 1854.02612 2100.68457
1990.0 0.000503 1853.94836 2106.19775
2019.0 0.000495 1853.87000 2111.92529
2002.0 0.000500 1853.79199 2117.87793
1948.0 0.000513 1853.71387 2124.06641
2009.0 0.000498 1853.63538 2130.50269
1982.0 0.000505 1853.55701 2137.19995
2032.0 0.000492 1853.47827 2144.17065
2075.0 0.000482 1853.39966 2151.42944
2002.0 0.000500 1853.32104 2158.99121
2110.0 0.000474 1853.24207 2166.87280
2129.0 0.000470 1853.16370 2175.09229
2172.0 0.000460 1853.08435 2183.66772
2074.0 0.000482 1853.00525 2192.61938
2102.0 0.000476 1852.92590 2201.96875
2188.0 0.000457 1852.84680 2211.73901
2229.0 0.000449 1852.76733 2221.95581
2299.0 0.000435 1852.68750 2232.64526
2279.0 0.000439 1852.60803 2243.83643
2377.0 0.000421 1852.52844 2255.56104
2388.0 0.000419 1852.44824 2267.85254
2409.0 0.000415 1852.36829 2280.74756
2449.0 0.000408 1852.28821 2294.28589
2516.0 0.000397 1852.20801 2310.56592
2577.0 0.000388 1852.12769 2325.54663
2672.0 0.000374 1852.04688 2341.31128
2759.0 0.000362 1851.96631 2357.91357
2773.0 0.000361 1851.88599 2375.41504
2812.0 0.000356 1851.80493 2393.87964
2817.0 0.000355 1851.72400 2413.37891
2835.0 0.000353 1851.64307 2433.99097
2812.0 0.000356 1851.56189 2455.80347
2849.0 0.000351 1851.48035 2478.90796
2853.0 0.0003505 1851.39893 2503.41016
2888.0 0.0003463 1851.31726 2529.42334
2909.0 0.0003438 1851.23572 2557.07397
2951.0 0.0003389 1851.15332 2586.50171
2907.0 0.0003440 1851.07153 2617.86035
2892.0 0.0003458 1850.98889 2647.62183
2799.0 0.000357 1850.90710 2683.43286
2824.0 0.000354 1850.82422 2721.75122
2961.0 0.0003377 1850.74207 2762.81641
2987.0 0.0003348 1850.65857 2806.89697
2951.0 0.0003389 1850.57629 2854.29272
2914.0 0.0003432 1850.49280 2905.34448
2967.0 0.0003370 1850.41016 2960.43628
2955.0 0.0003384 1850.32642 3020.00293
2884.0 0.0003467 1850.24304 3084.54321
2907.0 0.0003440 1850.15918 3154.62329
3100.0 0.0003226 1850.07544 3230.89697
3061.0 0.0003267 1849.99146 3314.12231
3175.0 0.0003150 1849.90710 3405.18579
3251.0 0.0003076 1849.82324 3505.13647
3451.0 0.0002898 1849.73853 3615.23340
3479.0 0.0002874 1849.65405 3737.01416
3573.0 0.0002799 1849.56934 3872.38745
3651.0 0.0002739 1849.48401 4023.77197
3789.0 0.0002639 1849.39905 4194.27979
3974.0 0.0002516 1849.31348 4387.96631
4225.0 0.0002367 1849.22803 4610.16162
4399.0 0.0002273 1849.14258 4867.88330
4715.0 0.0002121 1849.05688 5170.33887
5158.0 0.0001939 1848.97034 5529.49023
5523.0 0.0001811 1848.88428 5960.66309
6370.0 0.0001570 1848.79797 6483.12109
7007.0 0.0001427 1848.71106 7120.51172
7903.0 0.0001265 1848.62476 7901.07666
9012.0 0.0001110 1848.53796 8857.43652
10380.0 0.0000963 1848.45056 10025.78223
11823.0 0.0000846 1848.36340 11444.26270
13949.0 0.0000717 1848.27588 13150.25098
16256.0 0.0000615 1848.18835 15176.26855
18464.0 0.0000542 1848.10059 17544.14844
21405.0 0.0000467 1848.01294 20257.36914
24843.0 0.0000403 1847.92407 23292.03906
28254.0 0.0000354 1847.83618 26588.66992
31770.0 0.00003148 1847.74744 30048.41602
34905.0 0.00002865 1847.65918 33536.42578
37809.0 0.00002645 1847.56946 36888.42578
39948.0 0.00002503 1847.48108 39910.41016
41951.0 0.00002384 1847.39111 42369.95703
42559.0 0.00002350 1847.30188 44001.78906
42528.0 0.00002351 1847.21155 44557.95703
42022.0 0.00002380 1847.12231 43897.49219
39937.0 0.00002504 1847.03210 42059.62500
37311.0 0.00002680 1846.94141 39262.65625
33949.0 0.00002946 1846.85083 35829.48828
30484.0 0.00003280 1846.76038 32092.87695
27313.0 0.0000366 1846.66968 28329.65039
24331.0 0.0000411 1846.57874 24737.02344
20957.0 0.0000477 1846.48694 21437.86523
18114.0 0.0000552 1846.39563 18497.02930
15507.0 0.0000645 1846.30359 15937.91797
13320.0 0.0000751 1846.21130 13755.57520
11456.0 0.0000873 1846.11951 11926.34863
9840.0 0.0001016 1846.02686 10415.11816
8611.0 0.0001161 1845.93420 9180.88477
7614.0 0.0001313 1845.84155 8181.07227
6796.0 0.0001471 1845.74841 7374.75049
6085.0 0.0001643 1845.65564 6724.77637
5635.0 0.0001775 1845.56201 6199.00635
5360.0 0.0001866 1845.46863 5770.71875
4958.0 0.0002017 1845.37427 5418.44434
4457.0 0.0002244 1845.28040 5125.42383
4335.0 0.0002307 1845.18591 4878.87207
4088.0 0.0002446 1845.09131 4669.20654
3983.0 0.0002511 1844.99683 4489.31787
3852.0 0.0002596 1844.90161 4333.95508
3686.0 0.0002713 1844.80664 4199.23291
3546.0 0.0002820 1844.71118 4082.25391
3454.0 0.0002895 1844.61584 3980.83984
3304.0 0.0003027 1844.51953 3893.34326
3227.0 0.0003099 1844.42358 3818.52002
3130.0 0.0003195 1844.32739 3762.28564
3059.0 0.0003269 1844.23083 3710.43750
3039.0 0.0003291 1844.13428 3669.33423
2980.0 0.0003356 1844.03760 3638.86108
3065.0 0.0003263 1843.94031 3619.18506
3009.0 0.0003323 1843.84265 3610.78882
2951.0 0.0003389 1843.74500 3614.52148
2969.0 0.0003368 1843.64697 3631.65894
3041.0 0.0003288 1843.54907 3663.97632
3078.0 0.0003249 1843.45068 3713.82251
3089.0 0.0003237 1843.35217 3784.18604
3154.0 0.0003171 1843.25354 3878.74683
3399.0 0.0002942 1843.15405 4001.89111
3420.0 0.0002924 1843.05493 4158.67969
3569.0 0.0002802 1842.95532 4354.73535
3974.0 0.0002516 1842.85583 4596.04590
4319.0 0.0002315 1842.75610 4888.63232
4540.0 0.0002203 1842.65540 5238.06396
4959.0 0.0002017 1842.55530 5648.77637
5480.0 0.0001825 1842.45471 6123.14355
6002.0 0.0001666 1842.35388 6660.29346
6535.0 0.0001530 1842.25305 7254.73584
7538.0 0.0001327 1842.15161 7895.07129
8374.0 0.0001194 1842.04980 8563.19727
9101.0 0.0001099 1841.94824 9234.34375
10167.0 0.0000984 1841.84558 9877.67578
10634.0 0.0000940 1841.74365 10456.59863
10976.0 0.0000911 1841.64099 10928.83887
11200.0 0.0000893 1841.53845 11248.54492
11487.0 0.0000871 1841.43555 11373.74512
11454.0 0.0000873 1841.33228 11278.71191
10945.0 0.0000914 1841.22888 10965.01660
10428.0 0.0000959 1841.12512 10463.50684
9944.0 0.0001006 1841.02112 9825.48730
8986.0 0.0001113 1840.91675 9108.67773
8181.0 0.0001222 1840.81250 8365.18945
7573.0 0.0001320 1840.70850 7635.25635
6669.0 0.0001499 1840.60327 6946.24756
5999.0 0.0001667 1840.49805 6314.55908
5387.0 0.0001856 1840.39270 5748.34180
5097.0 0.0001962 1840.28699 5249.96631
4671.0 0.0002141 1840.18127 4817.90967
4274.0 0.0002340 1840.07520 4448.11133
4000.0 0.0002500 1839.96924 4134.96826
3951.0 0.0002531 1839.86279 3872.06519
3713.0 0.0002693 1839.75562 3652.73462
3578.0 0.0002795 1839.64844 3470.47827
3475.0 0.0002878 1839.54150 3319.26270
3279.0 0.0003050 1839.43396 3193.71021
3111.0 0.0003214 1839.32617 3089.19336
3004.0 0.0003329 1839.21790 3001.85791
3022.0 0.0003309 1839.10986 2928.59106
2891.0 0.0003459 1839.00110 2866.95215
2853.0 0.0003505 1838.89233 2815.09668
2693.0 0.000371 1838.78333 2771.68433
2663.0 0.000376 1838.67468 2735.81250
2703.0 0.000370 1838.56482 2706.94434
2639.0 0.000379 1838.45508 2684.86182
2612.0 0.000383 1838.34570 2669.62524
2444.0 0.000409 1838.23547 2661.53882
2473.0 0.000404 1838.12512 2661.11768
2486.0 0.000402 1838.01453 2669.05249
2561.0 0.000390 1837.90381 2686.15552
2584.0 0.000387 1837.79260 2713.29736
2597.0 0.000385 1837.68152 2751.30884
2608.0 0.000383 1837.56982 2800.85425
2672.0 0.000374 1837.45801 2862.25610
2775.0 0.000360 1837.34570 2935.28052
2917.0 0.0003428 1837.23352 3018.88916
3014.0 0.0003318 1837.12109 3111.00195
3161.0 0.0003164 1837.00842 3208.37231
3194.0 0.0003131 1836.89563 3306.61621
3321.0 0.0003011 1836.78259 3406.56250
3511.0 0.0002848 1836.66846 3489.49146
3513.0 0.0002847 1836.55493 3554.22729
3591.0 0.0002785 1836.44128 3592.92236
3461.0 0.0002889 1836.32715 3598.70435
3535.0 0.0002829 1836.21265 3567.98364
3504.0 0.0002854 1836.09766 3502.21533
3301.0 0.0003029 1835.98364 3407.76660
3206.0 0.0003119 1835.86804 3293.94238
3201.0 0.0003124 1835.75305 3170.44067
3119.0 0.0003206 1835.63733 3045.50293
2898.0 0.0003451 1835.52148 2925.16528
2817.0 0.000355 1835.40552 2813.31958
2722.0 0.000367 1835.28943 2712.14233
2710.0 0.000369 1835.17285 2622.56274
2520.0 0.000397 1835.05579 2544.64624
2396.0 0.000417 1834.93945 2477.88379
2316.0 0.000432 1834.82190 2421.39722
2258.0 0.000443 1834.70459 2374.09839
2208.0 0.000453 1834.58704 2334.80859
2148.0 0.000466 1834.46887 2302.35327
2131.0 0.000469 1834.35144 2275.62866
2122.0 0.000471 1834.23267 2253.64063
2122.0 0.000471 1834.11401 2235.53760
2109.0 0.000474 1833.99585 2220.60620
2068.0 0.000484 1833.87646 2208.27417
2006.0 0.000499 1833.75720 2198.09082
2053.0 0.000487 1833.63782 2189.71216
1986.0 0.000504 1833.51868 2182.88135
2073.0 0.000482 1833.39844 2177.41235
2045.0 0.000489 1833.27881 2173.17310
2033.0 0.000492 1833.15845 2170.07397
2009.0 0.000498 1833.03772 2168.06006
1946.0 0.000514 1832.91699 2167.10400
1996.0 0.000501 1832.79626 2167.20117
2000.0 0.000500 1832.67505 2091.60986
2008.0 0.000498 1832.55371 2094.97778
2041.0 0.000490 1832.43213 2099.48999
2069.0 0.000483 1832.31042 2105.23047
2060.0 0.000485 1832.18848 2112.31763
2072.0 0.000483 1832.06616 2120.90894
2091.0 0.000478 1831.94373 2131.21460
2043.0 0.000489 1831.82080 2143.51538
2058.0 0.000486 1831.69788 2158.18970
2131.0 0.000469 1831.57495 2175.73950
2169.0 0.000461 1831.45178 2196.83154
2204.0 0.000454 1831.32788 2222.34302
2304.0 0.000434 1831.20435 2253.40942
2363.0 0.000423 1831.08020 2291.47778
2340.0 0.000427 1830.95605 2338.34717
2384.0 0.000419 1830.83167 2399.81519
2512.0 0.000398 1830.70764 2471.26270
2702.0 0.000370 1830.58240 2559.16846
2822.0 0.000354 1830.45776 2666.68652
3114.0 0.0003211 1830.33252 2797.04077
3201.0 0.0003124 1830.20728 2953.26367
3409.0 0.0002933 1830.08179 3137.81348
3691.0 0.0002709 1829.95569 3352.06006
3831.0 0.0002610 1829.82996 3595.62622
4112.0 0.0002432 1829.70386 3865.64111
4427.0 0.0002259 1829.57788 4156.06006
4810.0 0.0002079 1829.45105 4457.34131
5081.0 0.0001968 1829.32471 4756.63428
5261.0 0.0001901 1829.19714 5038.22998
5507.0 0.0001816 1829.07043 5283.66699
5612.0 0.0001782 1828.94312 5471.78809
5613.0 0.0001782 1828.81580 5580.54492
5656.0 0.0001768 1828.68799 5592.21924
5463.0 0.0001830 1828.56018 5500.40088
5292.0 0.0001890 1828.43213 5318.49756
5141.0 0.0001945 1828.30420 5059.29248
4788.0 0.0002089 1828.17554 4755.02637
4439.0 0.0002253 1828.04675 4432.26025
4181.0 0.0002392 1827.91821 4112.12402
3940.0 0.0002538 1827.78943 3809.23730
3768.0 0.0002654 1827.66028 3532.50098
3632.0 0.0002753 1827.53101 3286.45215
3448.0 0.0002900 1827.40137 3072.52246
3265.0 0.0003063 1827.27185 2890.01196
3185.0 0.0003140 1827.14197 2736.80396
2997.0 0.0003337 1827.01196 2609.91846
2855.0 0.0003503 1826.88184 2505.93945
2871.0 0.0003483 1826.75122 2421.35083
2732.0 0.000366 1826.62097 2352.78491
2635.0 0.000380 1826.49011 2297.19116
2565.0 0.000390 1826.35950 2254.17578
2470.0 0.000405 1826.22839 2217.06421
2452.0 0.000408 1826.09717 2186.30273
2381.0 0.000420 1825.96570 2160.49756
2352.0 0.000425 1825.83411 2138.57739
2354.0 0.000425 1825.70276 2119.73633
2238.0 0.000447 1825.57080 2103.36792
2228.0 0.000449 1825.43896 2089.02026
2186.0 0.000457 1825.30676 2076.35376
2217.0 0.000451 1825.17517 2065.11060
2188.0 0.000457 1825.04211 2055.09033
2146.0 0.000466 1824.90979 2046.13562
2068.0 0.000484 1824.77734 2038.11987
2038.0 0.000491 1824.64380 2030.93835
2030.0 0.000493 1824.51086 2024.50464
2009.0 0.000498 1824.37781 2018.74475
2067.0 0.000484 1824.24451 2013.59705
2011.0 0.000497 1824.11121 2009.00696
2068.0 0.000484 1823.97705 2004.92944
2008.0 0.000498 1823.84351 2001.32581
1985.0 0.000504 1823.70984 1998.16101
1971.0 0.000507 1823.57556 1995.40552
1983.0 0.000504 1823.44141 1993.03552
1931.0 0.000518 1823.30737 1991.03040
1906.0 0.000525 1823.17310 1989.37085
1994.0 0.000502 1823.03784 1988.04382
1894.0 0.000528 1822.90369 1987.03625
1978.0 0.000506 1822.76880 1986.34009
2024.0 0.000494 1822.63416 1985.94751
1987.0 0.000503 1822.49927 1985.85461
1988.0 0.000503 1822.36365 1986.05859
1970.0 0.000508 1822.22827 1986.55969
1939.0 0.000516 1822.09277 1987.35938
1946.0 0.000514 1821.95764 1988.46167
1930.0 0.000518 1821.82166 1989.87378
1973.0 0.000507 1821.68579 1991.60254
2029.0 0.000493 1821.54993 1993.66003
1940.0 0.000515 1821.41406 1996.06006
1971.0 0.000507 1821.27808 1984.04993
1948.0 0.000513 1821.14185 1987.36084
1988.0 0.000503 1821.00562 1991.06738
2088.0 0.000479 1820.86890 1995.19653
2121.0 0.000471 1820.73242 1999.77734
2160.0 0.000463 1820.59558 2004.84583
2098.0 0.000477 1820.45874 2010.44043
2077.0 0.000481 1820.32251 2016.60815
2052.0 0.000487 1820.18555 2023.40100
2033.0 0.000492 1820.04871 2030.88037
2147.0 0.000466 1819.91150 2039.11487
2157.0 0.000464 1819.77380 2048.19141
2238.0 0.000447 1819.63684 2058.20654
2139.0 0.000468 1819.49939 2069.27783
2206.0 0.000453 1819.36182 2081.54663
2216.0 0.000451 1819.22424 2095.18896
2259.0 0.000443 1819.08655 2110.42383
2310.0 0.000433 1818.94885 2127.53027
2337.0 0.000428 1818.81128 2146.86499
2432.0 0.000411 1818.67297 2168.88794
2526.0 0.000396 1818.53503 2194.19604
2656.0 0.000377 1818.39673 2223.55981
2717.0 0.000368 1818.25867 2257.96582
2755.0 0.000363 1818.12048 2298.66162
2827.0 0.000354 1817.98230 2347.19897
2970.0 0.0003367 1817.84448 2405.47363
3035.0 0.0003295 1817.70569 2508.20190
3174.0 0.0003151 1817.56750 2593.49927
3273.0 0.0003055 1817.42859 2696.30615
3416.0 0.0002927 1817.28992 2819.73877
3783.0 0.0002643 1817.15161 2966.96606
3944.0 0.0002535 1817.01282 3140.96484
4034.0 0.0002479 1816.87390 3344.19556
4185.0 0.0002389 1816.73547 3578.15625
4436.0 0.0002254 1816.59656 3842.80737
4764.0 0.0002099 1816.45740 4135.89258
5112.0 0.0001956 1816.31799 4452.22217
5269.0 0.0001898 1816.17932 4783.13477
5631.0 0.0001776 1816.04016 5116.32617
5899.0 0.0001695 1815.90100 5436.09277
6078.0 0.0001645 1815.76208 5723.69824
6322.0 0.0001582 1815.62280 5957.80957
6468.0 0.0001546 1815.48389 6115.91602
6502.0 0.0001538 1815.34460 6178.16016
6422.0 0.0001557 1815.20496 6133.37451
6114.0 0.0001636 1815.06567 5984.12158
6073.0 0.0001647 1814.92639 5747.04150
5744.0 0.0001741 1814.78711 5445.92676
5465.0 0.0001830 1814.64746 5113.31055
5207.0 0.0001920 1814.50830 4770.85059
4851.0 0.0002061 1814.36865 4437.56006
4411.0 0.0002267 1814.22888 4125.88379
4092.0 0.0002444 1814.08972 3843.17627
3881.0 0.0002577 1813.94995 3593.01514
3685.0 0.0002714 1813.81030 3376.31909
3576.0 0.0002796 1813.67102 3192.19434
3365.0 0.0002972 1813.53125 3038.56348
3131.0 0.0003194 1813.39185 2912.63843
2964.0 0.0003374 1813.25195 2811.29150
2849.0 0.000351 1813.11243 2731.34888
2837.0 0.000352 1812.97290 2669.81445
2681.0 0.000373 1812.83325 2624.03760
2566.0 0.000390 1812.69397 2591.81885
2590.0 0.000386 1812.55408 2571.47534
2577.0 0.000388 1812.41431 2561.86914
2522.0 0.000397 1812.27502 2562.41602
2558.0 0.000391 1812.13550 2573.07593
2558.0 0.000391 1811.99609 2600.72607
2603.0 0.000384 1811.85669 2633.65356
2660.0 0.000376 1811.71667 2679.60498
2734.0 0.000366 1811.57678 2740.43018
2836.0 0.000353 1811.43774 2818.29834
3033.0 0.0003297 1811.29846 2915.58447
3242.0 0.0003085 1811.15881 3034.69336
3212.0 0.0003113 1811.01904 3177.82886
3366.0 0.0002971 1810.87964 3346.67920
3744.0 0.0002671 1810.74060 3542.00562
3936.0 0.0002541 1810.60071 3763.16968
4299.0 0.0002326 1810.46191 4007.66162
4554.0 0.0002196 1810.32214 4270.79248
4913.0 0.0002035 1810.18298 4545.64014
5107.0 0.0001958 1810.04395 4823.17773
5291.0 0.0001890 1809.90466 5085.49170
5503.0 0.0001817 1809.76575 5333.27344
5638.0 0.0001774 1809.62622 5545.90674
5765.0 0.0001735 1809.48718 5711.99854
5813.0 0.0001720 1809.34839 5826.04590
5847.0 0.0001710 1809.20935 5889.91895
5776.0 0.0001731 1809.07056 5910.80811
5882.0 0.0001700 1808.93140 5896.95703
5877.0 0.0001702 1808.79260 5853.70410
5649.0 0.0001770 1808.65369 5781.48877
5404.0 0.0001850 1808.51514 5676.28223
5302.0 0.0001886 1808.37646 5532.40625
4960.0 0.0002016 1808.23779 5346.74951
4841.0 0.0002066 1808.09937 5122.20996
4505.0 0.0002220 1807.96118 4868.25586
4310.0 0.0002320 1807.82202 4598.48877
4044.0 0.0002473 1807.68396 4327.00537
3698.0 0.0002704 1807.54590 4065.59888
3499.0 0.0002858 1807.40796 3822.57739
3296.0 0.0003034 1807.26965 3602.88550
3197.0 0.0003128 1807.13135 3408.82324
2978.0 0.0003358 1806.99377 3240.84375
2838.0 0.000352 1806.85559 3098.21509
2745.0 0.000364 1806.71826 2979.49219
2656.0 0.000377 1806.58008 2882.85547
2634.0 0.000380 1806.44275 2806.35181
2591.0 0.000386 1806.30505 2748.06860
2565.0 0.000390 1806.16748 2706.26855
2515.0 0.000398 1806.03052 2679.47656
2478.0 0.000404 1805.89319 2666.53516
2532.0 0.000395 1805.75598 2666.61597
2486.0 0.000402 1805.61877 2679.19678
2562.0 0.000390 1805.48193 2704.00684
2621.0 0.000382 1805.34460 2740.93677
2627.0 0.000381 1805.20850 2789.92139
2800.0 0.000357 1805.07153 2850.79395
2816.0 0.000355 1804.93506 2923.10449
2938.0 0.0003404 1804.79834 3005.91235
2964.0 0.0003374 1804.66223 3097.56470
3085.0 0.0003241 1804.52588 3195.50781
3247.0 0.0003080 1804.39001 3296.17407
3359.0 0.0002977 1804.25366 3394.98926
3374.0 0.0002964 1804.11792 3486.47583
3458.0 0.0002892 1803.98230 3564.44238
3498.0 0.0002859 1803.84656 3622.42944
3602.0 0.0002776 1803.71094 3654.67627
3670.0 0.0002725 1803.57556 3657.61426
3588.0 0.0002787 1803.43982 3631.23950
3539.0 0.0002826 1803.30493 3579.47949
3388.0 0.0002952 1803.17017 3509.19165
3238.0 0.0003088 1803.03528 3428.39063
3232.0 0.0003094 1802.90076 3344.60425
3147.0 0.0003178 1802.76587 3263.92847
2986.0 0.0003349 1802.63171 3190.79053
2893.0 0.0003457 1802.49719 3128.14624
2946.0 0.0003394 1802.36316 3077.84302
2852.0 0.0003506 1802.22888 3040.97168
2783.0 0.000359 1802.09546 3018.17114
2804.0 0.000357 1801.96167 3009.87793
2847.0 0.000351 1801.82764 3016.55029
2883.0 0.0003469 1801.69446 3038.89551
2772.0 0.000361 1801.56091 3078.10181
2963.0 0.0003375 1801.42834 3136.10498
3160.0 0.0003165 1801.29480 3215.87354
3187.0 0.0003138 1801.16211 3321.71484
3389.0 0.0002951 1801.02991 3459.57202
3636.0 0.0002750 1800.89673 3637.27344
3870.0 0.0002584 1800.76465 3864.68408
4332.0 0.0002308 1800.63257 4153.67139
4755.0 0.0002103 1800.50049 4517.81201
5013.0 0.0001995 1800.36890 4971.74023
5522.0 0.0001811 1800.23706 5530.05225
6166.0 0.0001622 1800.10535 6205.68848
6947.0 0.0001439 1799.97424 7007.70605
7707.0 0.0001298 1799.84314 7938.41895
8719.0 0.0001147 1799.71191 8989.97168
9649.0 0.0001036 1799.58167 10140.84277
10678.0 0.0000937 1799.45081 11353.36523
11809.0 0.0000847 1799.32031 12573.61719
12939.0 0.0000773 1799.19006 13733.62012
13809.0 0.0000724 1799.05994 14753.57813
14211.0 0.0000704 1798.93030 15543.49121
14516.0 0.0000689 1798.80042 16010.79395
14683.0 0.0000681 1798.67078 16082.34668
14390.0 0.0000695 1798.54175 15734.89551
13622.0 0.0000734 1798.41260 15011.74121
12716.0 0.0000786 1798.28357 14010.25684
11991.0 0.0000834 1798.15527 12849.59473
10743.0 0.0000931 1798.02673 11640.36719
9774.0 0.0001023 1797.89832 10468.86816
8647.0 0.0001156 1797.77002 9394.70508
7856.0 0.0001273 1797.64221 8455.00195
7144.0 0.0001400 1797.51453 7670.01074
6662.0 0.0001501 1797.38721 7047.91846
6236.0 0.0001604 1797.25928 6588.57813
5935.0 0.0001685 1797.13281 6286.39551
5858.0 0.0001707 1797.00562 6132.57275
6044.0 0.0001655 1796.87891 6116.77051
6046.0 0.0001654 1796.75293 6228.16895
6319.0 0.0001583 1796.62671 6455.90820
6742.0 0.0001483 1796.50061 6788.90967
7036.0 0.0001421 1796.37463 7215.09912
7583.0 0.0001319 1796.24890 7720.13037
8031.0 0.0001245 1796.12366 8285.95117
8604.0 0.0001162 1795.99878 8889.72266
9066.0 0.0001103 1795.87378 9503.54297
9753.0 0.0001025 1795.74915 10094.91895
10156.0 0.0000985 1795.62476 10627.42188
10528.0 0.0000950 1795.50085 11061.76563
10529.0 0.0000950 1795.37622 11359.09570
10609.0 0.0000943 1795.25293 11488.62988
10747.0 0.0000930 1795.12939 11438.26074
10803.0 0.0000926 1795.00623 11221.93945
10684.0 0.0000936 1794.88269 10877.93555
10329.0 0.0000968 1794.76013 10458.15430
10011.0 0.0000999 1794.63757 10014.66602
9813.0 0.0001019 1794.51526 9589.43848
9522.0 0.0001050 1794.39319 9209.54590
9190.0 0.0001088 1794.27124 8886.76758
8751.0 0.0001143 1794.14941 8619.60449
8554.0 0.0001169 1794.02832 8396.11328
8435.0 0.0001186 1793.90759 8196.47754
8222.0 0.0001216 1793.78687 7995.34863
7837.0 0.0001276 1793.66614 7765.48926
7362.0 0.0001358 1793.54578 7484.21436
6883.0 0.0001453 1793.42554 7140.85205
6629.0 0.0001509 1793.30591 6740.46338
6177.0 0.0001619 1793.18604 6294.72363
5645.0 0.0001771 1793.06653 5839.49463
5297.0 0.0001888 1792.94763 5390.46875
4969.0 0.0002012 1792.82874 4964.42773
4567.0 0.0002190 1792.71021 4572.25537
4161.0 0.0002403 1792.59216 4219.83252
3838.0 0.0002606 1792.47388 3909.29517
3513.0 0.0002847 1792.35620 3640.15283
3398.0 0.0002943 1792.23840 3410.11304
3105.0 0.0003221 1792.12134 3215.71973
2942.0 0.0003399 1792.00439 3052.85303
2862.0 0.0003494 1791.88782 2917.13330
2636.0 0.000379 1791.77148 2804.24463
2608.0 0.000383 1791.65540 2710.17236
2613.0 0.000383 1791.53882 2631.35449
2528.0 0.000396 1791.42346 2564.75366
2390.0 0.000418 1791.30835 2507.87012
2324.0 0.000430 1791.19324 2458.70215
2231.0 0.000448 1791.07813 2415.68677
2252.0 0.000444 1790.96375 2377.62329
2216.0 0.000451 1790.84949 2343.59912
2137.0 0.000468 1790.73560 2312.92163
2135.0 0.000468 1790.62195 2285.06323
2107.0 0.000475 1790.50854 2259.61841
2095.0 0.000477 1790.39587 2236.26685
2114.0 0.000473 1790.28235 2214.75317
2065.0 0.000484 1790.17029 2194.86890
2057.0 0.000486 1790.05811 2176.43799
2138.0 0.000468 1789.94592 2159.31201
2097.0 0.000477 1789.83435 2143.36328
2049.0 0.000488 1789.72327 2128.48047
1953.0 0.000512 1789.61182 2114.56519
1996.0 0.000501 1789.50098 2101.53149
1912.0 0.000523 1789.39038 2089.30298
1961.0 0.000510 1789.28027 2077.81128
1972.0 0.000507 1789.17029 2066.99609
1992.0 0.000502 1789.06067 2056.80225
1985.0 0.000504 1788.95129 2047.18066
2056.0 0.000486 1788.84204 2038.08789
2037.0 0.000491 1788.73352 2029.48303
1907.0 0.000524 1788.62512 2021.33081
1948.0 0.000513 1788.51697 2013.59863
1972.0 0.000507 1788.40906 2006.25574
1946.0 0.000514 1788.30164 1999.27588
1992.0 0.000502 1788.19421 1992.63403
1985.0 0.000504 1788.08691 1986.30798
1921.0 0.000521 1787.98059 1985.84375
1932.0 0.000518 1787.87415 1980.16992
1922.0 0.000520 1787.76807 1974.75574
1926.0 0.000519 1787.66235 1969.58667
1918.0 0.000521 1787.55676 1958.20190
1889.0 0.000529 1787.45166 1953.55261
1882.0 0.000531 1787.34705 1949.10608
1868.0 0.000535 1787.24243 1944.84912
1813.0 0.000552 1787.13831 1940.77258
1865.0 0.000536 1787.03394 1936.86609
1854.0 0.000539 1786.93042 1933.11951
1836.0 0.000545 1786.82727 1929.52588
1779.0 0.000562 1786.72437 1926.07520
1864.0 0.000536 1786.62183 1922.76208
1841.0 0.000543 1786.51917 1919.57800
1819.0 0.000550 1786.41711 1916.51794
1777.0 0.000563 1786.31580 1913.57434
1779.0 0.000562 1786.21375 1910.74268
1763.0 0.000567 1786.11304 1908.01721
1794.0 0.000557 1786.01184 1905.39294
1733.0 0.000577 1785.91162 1902.86560
1805.0 0.000554 1785.81128 1900.43127
1783.0 0.000561 1785.71155 1898.08472
1758.0 0.000569 1785.61206 1895.82288
1755.0 0.000570 1785.51282 1893.64172
1805.0 0.000554 1785.41382 1891.53882
1811.0 0.000552 1785.31494 1889.51025
1841.0 0.000543 1785.21667 1887.55334
1809.0 0.000553 1785.11902 1885.66516
1913.0 0.000523 1785.02136 1883.84241
1833.0 0.000546 1784.92407 1882.08398
1755.0 0.000570 1784.82690 1880.38708
1712.0 0.000584 1784.73035 1878.74890
1735.0 0.000576 1784.63403 1877.16846
1751.0 0.000571 1784.53735 1875.64307
1761.0 0.000568 1784.44214 1874.17078
1780.0 0.000562 1784.34607 1872.75073
1744.0 0.000573 1784.25073 1871.38025
1731.0 0.000578 1784.15588 1867.83118
1776.0 0.000563 1784.06177 1866.58386
1804.0 0.000554 1783.96777 1865.38220
1803.0 0.000555 1783.87390 1864.22424
1758.0 0.000569 1783.78040 1863.10999
1755.0 0.000570 1783.68701 1862.03772
1679.0 0.000596 1783.59387 1861.00696
1761.0 0.000568 1783.50171 1860.01697
1809.0 0.000553 1783.40979 1859.06604
1758.0 0.000569 1783.31775 1858.15381
1753.0 0.000570 1783.22607 1857.27991
1782.0 0.000561 1783.13464 1856.44397
1764.0 0.000567 1783.04358 1855.64441
1822.0 0.000549 1782.95325 1854.88208
1815.0 0.000551 1782.86292 1856.29102
1792.0 0.000558 1782.77319 1855.63159
1749.0 0.000572 1782.68311 1855.00818
1777.0 0.000563 1782.59387 1854.42139
1784.0 0.000561 1782.50464 1853.87024
1742.0 0.000574 1782.41614 1853.35559
1704.0 0.000587 1782.32764 1852.87646
1793.0 0.000558 1782.23975 1852.43384
1802.0 0.000555 1782.15161 1852.02771
1742.0 0.000574 1782.06458 1851.65759
1719.0 0.000582 1781.97705 1851.32471
1743.0 0.000574 1781.89038 1851.02893
1738.0 0.000575 1781.80371 1850.77100
1766.0 0.000566 1781.71802 1865.19299
1726.0 0.000579 1781.63196 1865.19092
1817.0 0.000550 1781.54602 1865.23157
1852.0 0.000540 1781.46094 1865.31665
1769.0 0.000565 1781.37610 1865.44617
1785.0 0.000560 1781.29150 1865.62268
1734.0 0.000577 1781.20728 1865.84729
1687.0 0.000593 1781.12354 1866.12073
1733.0 0.000577 1781.03979 1866.44495
1782.0 0.000561 1780.95654 1866.82263
1815.0 0.000551 1780.87341 1867.25354
1872.0 0.000534 1780.79089 1867.74292
1816.0 0.000551 1780.70862 1868.29065
1755.0 0.000570 1780.62646 1868.90002
1766.0 0.000566 1780.54468 1869.87732
1768.0 0.000566 1780.46326 1870.62390
1739.0 0.000575 1780.38232 1871.44055
1738.0 0.000575 1780.30151 1872.33325
1734.0 0.000577 1780.22083 1873.30444
1773.0 0.000564 1780.14124 1874.35986
1769.0 0.000565 1780.06104 1875.50391
1812.0 0.000552 1779.98157 1876.74207
1845.0 0.000542 1779.90210 1878.08032
1808.0 0.000553 1779.82324 1879.52515
1758.0 0.000569 1779.74475 1881.08411
1804.0 0.000554 1779.66650 1882.76477
1789.0 0.000559 1779.58838 1884.57666
1741.0 0.000574 1779.51050 1886.52881
1728.0 0.000579 1779.43347 1888.63245
1774.0 0.000564 1779.35657 1890.89954
1832.0 0.000546 1779.27917 1893.34375
1742.0 0.000574 1779.20300 1895.98059
1795.0 0.000557 1779.12695 1898.82495
1770.0 0.000565 1779.05103 1901.89819
1775.0 0.000563 1778.97546 1905.21863
1769.0 0.000565 1778.90027 1908.81262
1778.0 0.000562 1778.82507 1912.70557
1847.0 0.000541 1778.75073 1888.44055
1870.0 0.000535 1778.67603 1893.35657
1894.0 0.000528 1778.60254 1898.67004
1886.0 0.000530 1778.52856 1904.42651
1873.0 0.000534 1778.45496 1910.67859
1909.0 0.000524 1778.38184 1917.48694
1915.0 0.000522 1778.30872 1924.92310
1883.0 0.000531 1778.23645 1933.07178
1929.0 0.000518 1778.16443 1942.03735
1979.0 0.000505 1778.09253 1951.94836
1955.0 0.000512 1778.02087 1962.96741
1941.0 0.000515 1777.94922 1975.30701
2018.0 0.000496 1777.87817 1989.24805
2003.0 0.000499 1777.80750 2005.17029
2049.0 0.000488 1777.73694 2023.58484
2073.0 0.000482 1777.66663 2045.18726
2100.0 0.000476 1777.59705 2070.91455
2035.0 0.000491 1777.52710 2102.00781
2091.0 0.000478 1777.45801 2140.08301
2152.0 0.000465 1777.38843 2187.18994
2271.0 0.000440 1777.31982 2245.85010
2343.0 0.000427 1777.25134 2319.05444
2460.0 0.000407 1777.18286 2410.20239
2608.0 0.000383 1777.11523 2522.95874
2742.0 0.000365 1777.04736 2661.01538
2992.0 0.0003342 1776.97949 2827.73389
3155.0 0.0003170 1776.91272 3025.67212
3357.0 0.0002979 1776.84619 3255.97339
3699.0 0.0002703 1776.77954 3517.62476
4029.0 0.0002482 1776.71313 3806.62378
4257.0 0.0002349 1776.64685 4115.17920
4802.0 0.0002082 1776.58118 4432.12988
4925.0 0.0002030 1776.51587 4739.33105
5220.0 0.0001916 1776.45044 5017.73877
5496.0 0.0001820 1776.38538 5244.70117
5643.0 0.0001772 1776.32043 5396.63086
5751.0 0.0001739 1776.25623 5453.04883
5810.0 0.0001721 1776.19189 5403.03027
5635.0 0.0001775 1776.12817 5250.56543
5408.0 0.0001849 1776.06445 5014.38086
5052.0 0.0001979 1776.00122 4737.92969
4795.0 0.0002086 1775.93835 4417.61865
4656.0 0.0002148 1775.87488 4093.11743
4360.0 0.0002294 1775.81274 3781.80835
4055.0 0.0002466 1775.75024 3494.98877
3845.0 0.0002601 1775.68823 3239.06665
3718.0 0.0002690 1775.62622 3016.78613
3612.0 0.0002769 1775.56445 2828.21948
3354.0 0.0002982 1775.50317 2671.57031
3253.0 0.0003074 1775.44189 2543.81909
3135.0 0.0003190 1775.38110 2441.26929
3078.0 0.0003249 1775.31995 2359.99951
2995.0 0.0003339 1775.26013 2296.19775
2885.0 0.0003466 1775.19983 2246.39966
2770.0 0.000361 1775.13989 2207.61646
2752.0 0.000363 1775.08044 2177.38672
2616.0 0.000382 1775.02075 2153.75732
2505.0 0.000399 1774.96130 2135.23120
2453.0 0.000408 1774.90210 2120.69653
2397.0 0.000417 1774.84363 2109.34399
2423.0 0.000413 1774.78528 2100.59863
2414.0 0.000414 1774.72681 2094.06421
2342.0 0.000427 1774.66858 2089.47510
2245.0 0.000445 1774.61096 2086.66650
2239.0 0.000447 1774.55273 2085.55371
2191.0 0.000456 1774.49573 2086.12573
2158.0 0.000463 1774.43848 2088.44458
2117.0 0.000472 1774.38147 2092.65381
2145.0 0.000466 1774.32446 2098.99292
2114.0 0.000473 1774.26782 2107.81592
2145.0 0.000466 1774.21143 2119.61938
2134.0 0.000469 1774.15503 2135.05859
2183.0 0.000458 1774.09949 2154.96948
2216.0 0.000451 1774.04370 2180.37231
2188.0 0.000457 1773.98779 2212.46094
2208.0 0.000453 1773.93311 2252.56665
2267.0 0.000441 1773.87817 2302.08081
2353.0 0.000425 1773.82336 2362.35034
2415.0 0.000414 1773.76794 2434.51855
2555.0 0.000391 1773.71375 2519.32886
2708.0 0.000369 1773.65930 2616.87378
2867.0 0.0003488 1773.60486 2726.30347
2872.0 0.0003482 1773.55090 2845.51050
3118.0 0.0003207 1773.49707 2970.85791
3254.0 0.0003073 1773.44360 3097.05884
3415.0 0.0002928 1773.39014 3217.27905
3441.0 0.0002906 1773.33704 3323.43359
3443.0 0.0002904 1773.28430 3406.67773
3511.0 0.0002848 1773.23071 3458.44116
3606.0 0.0002773 1773.17810 3472.41382
3496.0 0.0002860 1773.12561 3446.95679
3419.0 0.0002925 1773.07324 3386.28662
3285.0 0.0003044 1773.02100 3299.32642
3134.0 0.0003191 1772.96875 3196.95288
3043.0 0.0003286 1772.91711 3089.36475
2947.0 0.0003393 1772.86499 2984.66040
2748.0 0.000364 1772.81384 2888.54810
2606.0 0.000384 1772.76257 2804.67212
2703.0 0.000370 1772.71106 2735.08813
2643.0 0.000378 1772.65979 2680.69214
2612.0 0.000383 1772.60925 2641.57935
2468.0 0.000405 1772.55823 2617.33228
2485.0 0.000402 1772.50757 2607.27637
2492.0 0.000401 1772.45728 2610.70532
2548.0 0.000392 1772.40649 2627.07617
2539.0 0.000394 1772.35620 2656.17578
2582.0 0.000387 1772.30640 2698.25269
2627.0 0.000381 1772.25671 2754.11890
2667.0 0.000375 1772.20679 2825.22461
2634.0 0.000380 1772.15698 2913.69751
2871.0 0.0003483 1772.10742 3022.36304
2959.0 0.0003380 1772.05835 3154.71729
3089.0 0.0003237 1772.00867 3314.86890
3309.0 0.0003022 1771.95996 3507.41602
3492.0 0.0002864 1771.91040 3737.27197
3942.0 0.0002537 1771.86169 4009.40430
4211.0 0.0002375 1771.81262 4328.49463
4612.0 0.0002168 1771.76416 4698.49121
5053.0 0.0001979 1771.71545 5122.03906
5551.0 0.0001801 1771.66711 5599.75879
6186.0 0.0001617 1771.61853 6129.33789
6813.0 0.0001468 1771.56995 6704.43213
7258.0 0.0001378 1771.52185 7314.99512
7828.0 0.0001277 1771.47400 7940.10645
8395.0 0.0001191 1771.42603 8556.44434
8692.0 0.0001150 1771.37805 9132.45605
9127.0 0.0001096 1771.33008 9631.21289
9544.0 0.0001048 1771.28247 10013.29785
9844.0 0.0001016 1771.23486 10244.95801
9804.0 0.0001020 1771.18713 10293.59961
9592.0 0.0001043 1771.14014 10153.51367
9434.0 0.0001060 1771.09265 9838.04102
9268.0 0.0001079 1771.04504 9379.81738
8928.0 0.0001120 1770.99792 8822.41602
8513.0 0.0001175 1770.95056 8210.55664
7804.0 0.0001281 1770.90381 7582.93066
7258.0 0.0001378 1770.85657 6969.00293
6897.0 0.0001450 1770.80957 6388.89307
6166.0 0.0001622 1770.76306 5854.83838
5591.0 0.0001789 1770.71594 5373.02734
5149.0 0.0001942 1770.66943 4945.24414
4564.0 0.0002191 1770.62256 4570.17725
4240.0 0.0002358 1770.57581 4244.45654
3947.0 0.0002534 1770.52905 3963.50513
3737.0 0.0002676 1770.48303 3722.25879
3461.0 0.0002889 1770.43640 3515.71460
3333.0 0.0003000 1770.38977 3339.24878
3092.0 0.0003234 1770.34290 3188.72852
2973.0 0.0003364 1770.29700 3060.48999
2928.0 0.0003415 1770.25049 2951.28760
2780.0 0.000360 1770.20410 2858.25854
2706.0 0.000370 1770.15784 2778.90845
2648.0 0.000378 1770.11145 2711.10986
2575.0 0.000388 1770.06543 2653.07617
2559.0 0.000391 1770.01892 2603.33154
2586.0 0.000387 1769.97253 2560.67065
2561.0 0.000390 1769.92651 2524.11230
2483.0 0.000403 1769.88062 2492.85840
2447.0 0.000409 1769.83435 2466.26001
2385.0 0.000419 1769.78772 2443.78418
2414.0 0.000414 1769.74146 2424.99536
2451.0 0.000408 1769.69507 2409.53638
2447.0 0.000409 1769.64929 2397.11890
2580.0 0.000388 1769.60303 2387.50879
2657.0 0.000376 1769.55688 2380.52417
2541.0 0.000394 1769.51062 2376.03052
2555.0 0.000391 1769.46436 2373.93066
2621.0 0.000382 1769.41833 2374.17163
2635.0 0.000380 1769.37183 2376.73242
2634.0 0.000380 1769.32568 2381.62988
2800.0 0.000357 1769.27930 2388.91919
2888.0 0.0003463 1769.23254 2398.69604
2880.0 0.0003472 1769.18652 2411.09644
2827.0 0.000354 1769.14026 2426.31445
2805.0 0.000357 1769.09363 2439.05225
2807.0 0.000356 1769.04736 2460.80933
2814.0 0.000355 1769.00073 2486.37524
2823.0 0.000354 1768.95410 2516.28076
2845.0 0.000351 1768.90771 2551.19946
2858.0 0.0003499 1768.86121 2591.97974
2864.0 0.0003492 1768.81458 2639.68848
2849.0 0.000351 1768.76758 2695.66089
2926.0 0.0003418 1768.72083 2761.56152
3056.0 0.0003272 1768.67444 2839.45435
3159.0 0.0003166 1768.62695 2931.88013
3225.0 0.0003101 1768.57996 3041.93774
3310.0 0.0003021 1768.53320 3173.35986
3384.0 0.0002955 1768.48547 3330.56812
3632.0 0.0002753 1768.43872 3518.68530
4030.0 0.0002481 1768.39136 3743.47900
4267.0 0.0002344 1768.34448 4011.21533
4586.0 0.0002181 1768.29688 4328.40088
5148.0 0.0001943 1768.24927 4701.43213
5629.0 0.0001777 1768.20154 5136.14404
6071.0 0.0001647 1768.15369 5637.27637
6728.0 0.0001486 1768.10608 6207.87256
7568.0 0.0001321 1768.05786 6848.64160
8461.0 0.0001182 1768.01038 7557.33252
9246.0 0.0001082 1767.96143 8327.87305
9960.0 0.0001004 1767.91382 9148.89453
10812.0 0.0000925 1767.86511 10001.48047
11488.0 0.0000870 1767.81714 10856.82422
12094.0 0.0000827 1767.76843 11674.87695
12468.0 0.0000802 1767.72009 12404.94629
12577.0 0.0000795 1767.67102 12988.74512
12749.0 0.0000784 1767.62244 13366.79004
12843.0 0.0000779 1767.57300 13489.31934
12699.0 0.0000787 1767.52393 13330.38379
12403.0 0.0000806 1767.47461 12898.60938
11527.0 0.0000868 1767.42542 12237.09570
10896.0 0.0000918 1767.37561 11411.39160
10439.0 0.0000958 1767.32629 10492.56055
9678.0 0.0001033 1767.27673 9543.67285
8749.0 0.0001143 1767.22632 8613.34961
7860.0 0.0001272 1767.17627 7735.14844
7165.0 0.0001396 1767.12610 6929.86182
6722.0 0.0001488 1767.07568 6208.49805
6205.0 0.0001612 1767.02527 5574.89697
5821.0 0.0001718 1766.97449 5027.77783
5541.0 0.0001805 1766.92358 4562.29102
5214.0 0.0001918 1766.87244 4171.26563
5044.0 0.0001983 1766.82092 3846.20142
4732.0 0.0002113 1766.76990 3578.09082
4530.0 0.0002208 1766.71802 3358.05200
4515.0 0.0002215 1766.66602 3177.79468
4413.0 0.0002266 1766.61426 3029.91284
4313.0 0.0002319 1766.56189 2908.03442
4199.0 0.0002382 1766.50989 2804.72388
4078.0 0.0002452 1766.45740 2719.97339
3894.0 0.0002568 1766.40430 2648.22485
3697.0 0.0002705 1766.35181 2586.84326
3446.0 0.0002902 1766.29858 2533.81763
3287.0 0.0003042 1766.24512 2487.62842
3069.0 0.0003258 1766.19177 2447.14063
3077.0 0.0003250 1766.13818 2411.50439
3016.0 0.0003316 1766.08386 2380.09521
2830.0 0.000353 1766.03003 2352.45801
2697.0 0.000371 1765.97583 2328.27466
2600.0 0.000385 1765.92078 2307.34473
2548.0 0.000392 1765.86633 2289.57715
2419.0 0.000413 1765.81104 2274.97998
2361.0 0.000424 1765.75623 2263.67163
2318.0 0.000431 1765.70032 2255.87451
2238.0 0.000447 1765.64478 2251.92188
2251.0 0.000444 1765.58911 2252.24878
2210.0 0.000452 1765.53320 2257.38208
2255.0 0.000443 1765.47632 2267.91235
2162.0 0.000463 1765.41968 2284.45850
2261.0 0.000442 1765.36279 2307.60718
2213.0 0.000452 1765.30615 2337.84253
2240.0 0.000446 1765.24792 2375.45337
2322.0 0.000431 1765.19092 2420.41846
2324.0 0.000430 1765.13281 2472.27271
2381.0 0.000420 1765.07458 2529.95483
2398.0 0.000417 1765.01599 2591.64844
2478.0 0.000404 1764.95752 2654.67334
2490.0 0.000402 1764.89856 2715.46558
2551.0 0.000392 1764.83899 2769.69287
2561.0 0.000390 1764.77966 2812.54102
2580.0 0.000388 1764.71973 2839.26123
2588.0 0.000386 1764.65979 2846.08374
2512.0 0.000398 1764.59912 2831.35425
2508.0 0.000399 1764.53870 2796.29541
2424.0 0.000413 1764.47766 2744.80103
2522.0 0.000397 1764.41614 2682.30273
2416.0 0.000414 1764.35486 2614.40674
2299.0 0.000435 1764.29333 2545.92651
2283.0 0.000438 1764.23083 2480.51025
2223.0 0.000450 1764.16846 2420.68433
2208.0 0.000453 1764.10608 2368.07300
2129.0 0.000470 1764.04236 2323.63599
2161.0 0.000463 1763.97937 2287.87500
2112.0 0.000473 1763.91528 2261.00220
2096.0 0.000477 1763.85168 2243.07007
2063.0 0.000485 1763.78711 2234.08960
2108.0 0.000474 1763.72278 2234.11938
2183.0 0.000458 1763.65796 2243.33618
2193.0 0.000456 1763.59241 2262.07690
2189.0 0.000457 1763.52686 2290.85303
2248.0 0.000445 1763.46069 2330.32690
2260.0 0.000442 1763.39429 2381.26001
2334.0 0.000428 1763.32764 2444.43042
2461.0 0.000406 1763.26123 2520.51221
2678.0 0.000373 1763.19360 2609.93140
2629.0 0.000380 1763.12549 2712.67969
2769.0 0.000361 1763.05725 2828.09180
3018.0 0.0003313 1762.98914 2954.57910
3161.0 0.0003164 1762.92017 3091.01147
3274.0 0.0003054 1762.85144 3229.75488
3371.0 0.0002966 1762.78186 3366.49268
3541.0 0.0002824 1762.71179 3493.62744
3668.0 0.0002726 1762.64197 3602.28271
3773.0 0.0002650 1762.57117 3683.07886
3912.0 0.0002556 1762.50024 3727.46289
3887.0 0.0002573 1762.42883 3714.86914
3770.0 0.0002653 1762.35754 3673.41333
3734.0 0.0002678 1762.28491 3592.03394
3639.0 0.0002748 1762.21252 3478.85864
3403.0 0.0002939 1762.13977 3344.21606
3390.0 0.0002950 1762.06677 3198.37744
3256.0 0.0003071 1761.99304 3085.70313
3105.0 0.0003221 1761.91870 2941.79126
2983.0 0.0003352 1761.84473 2806.32056
2923.0 0.0003421 1761.76965 2682.00171
2833.0 0.000353 1761.69482 2570.24365
2746.0 0.000364 1761.61938 2471.50391
2703.0 0.000370 1761.54285 2385.56201
2633.0 0.000380 1761.46704 2311.72339
2579.0 0.000388 1761.38977 2248.98096
2535.0 0.000394 1761.31262 2195.84521
2507.0 0.000399 1761.23486 2151.66016
2476.0 0.000404 1761.15698 2114.86206
2412.0 0.000415 1761.07849 2084.26733
2326.0 0.000430 1760.99939 2058.79761
2277.0 0.000439 1760.92041 2037.51379
2221.0 0.000450 1760.84045 2019.61438
2190.0 0.000457 1760.76013 2004.43835
2128.0 0.000470 1760.67957 1991.44946
2090.0 0.000478 1760.59839 1980.22351
2027.0 0.000493 1760.51685 1970.42542
2118.0 0.000472 1760.43530 1961.79749
2113.0 0.000473 1760.35254 1954.14014
2096.0 0.000477 1760.26978 1947.29773
2025.0 0.000494 1760.18628 1941.15076
2024.0 0.000494 1760.10278 1935.60559
1988.0 0.000503 1760.01831 1930.58521
1997.0 0.000501 1759.93384 1926.02979
2004.0 0.000499 1759.84851 1921.88782
1985.0 0.000504 1759.76343 1918.11755
1905.0 0.000525 1759.67725 1914.68420
1963.0 0.000509 1759.59082 1911.55505
1915.0 0.000522 1759.50366 1908.70496
1919.0 0.000521 1759.41602 1906.10999
1920.0 0.000521 1759.32849 1903.74939
1934.0 0.000517 1759.24011 1901.60522
1901.0 0.000526 1759.15149 1899.66223
1915.0 0.000522 1759.06201 1897.90527
1908.0 0.000524 1758.97229 1896.32202
1869.0 0.000535 1758.88232 1894.90149
1844.0 0.000542 1758.79150 1893.63367
1881.0 0.000532 1758.69971 1892.50964
1868.0 0.000535 1758.60864 1891.52051
1838.0 0.000544 1758.51636 1890.66077
1864.0 0.000536 1758.42358 1889.92297
1816.0 0.000551 1758.33020 1889.30286
1820.0 0.000549 1758.23669 1888.79395
1848.0 0.000541 1758.14282 1888.39246
1887.0 0.000530 1758.04797 1888.09473
1863.0 0.000537 1757.95313 1887.89758
1860.0 0.000538 1757.85681 1887.79724
1895.0 0.000528 1757.76086 1887.79163
1950.0 0.000513 1757.66406 1887.87952
1879.0 0.000532 1757.56726 1888.05688
1833.0 0.000546 1757.46899 1888.32410
1848.0 0.000541 1757.37073 1888.67883
1779.0 0.000562 1757.27234 1889.12109
1827.0 0.000547 1757.17310 1889.65002
1822.0 0.000549 1757.07336 1890.26440
1860.0 0.000538 1756.97290 1890.96509
1854.0 0.000539 1756.87195 1891.75220
1843.0 0.000543 1756.77063 1892.62537
1771.0 0.000565 1756.66870 1893.58582
1846.0 0.000542 1756.56653 1893.71143
1823.0 0.000549 1756.46350 1894.86035
1817.0 0.000550 1756.36011 1896.09961
1797.0 0.000556 1756.25598 1897.43054
1800.0 0.000556 1756.15161 1898.85474
1824.0 0.000548 1756.04639 1900.37561
1846.0 0.000542 1755.94116 1901.99451
1905.0 0.000525 1755.83484 1903.71338
1887.0 0.000530 1755.72766 1905.53723
1853.0 0.000540 1755.62097 1907.46753
1854.0 0.000539 1755.51306 1893.47180
1875.0 0.000533 1755.40466 1895.81836
1885.0 0.000531 1755.29541 1898.28088
1790.0 0.000559 1755.18652 1900.86316
1852.0 0.000540 1755.07642 1903.57141
1908.0 0.000524 1754.96594 1906.40979
1907.0 0.000524 1754.85486 1909.38586
1897.0 0.000527 1754.74304 1912.50537
1856.0 0.000539 1754.63074 1915.77551
1906.0 0.000525 1754.51819 1919.20459
1862.0 0.000537 1754.40503 1922.80139
1864.0 0.000536 1754.29102 1926.57397
1918.0 0.000521 1754.17651 1930.53296
1901.0 0.000526 1754.06128 1936.03198
1874.0 0.000534 1753.94604 1940.41541
1881.0 0.000532 1753.83008 1945.02197
2008.0 0.000498 1753.71265 1949.86670
1963.0 0.000509 1753.59583 1954.96606
1975.0 0.000506 1753.47766 1960.33679
1970.0 0.000508 1753.35901 1966.00000
2035.0 0.000491 1753.24023 1971.97705
2098.0 0.000477 1753.12097 1978.29211
2143.0 0.000467 1753.00061 1984.97351
2116.0 0.000473 1752.87976 1992.05334
2156.0 0.000464 1752.75830 1999.56934
2247.0 0.000445 1752.63623 2007.56348
2347.0 0.000426 1752.51392 2014.57104
2389.0 0.000419 1752.39063 2023.71521
2491.0 0.000401 1752.26709 2033.53650
2471.0 0.000405 1752.14307 2044.13977
2542.0 0.000393 1752.01831 2055.65967
2621.0 0.000382 1751.89294 2068.27393
2566.0 0.000390 1751.76672 2082.21509
2692.0 0.000371 1751.64026 2097.78662
2762.0 0.000362 1751.51257 2115.37646
2693.0 0.000371 1751.38562 2135.47559
2717.0 0.000368 1751.25647 2158.68677
2752.0 0.000363 1751.12793 2185.73145
2759.0 0.000362 1750.99817 2217.43994
2735.0 0.000366 1750.86829 2254.72974
2759.0 0.000362 1750.73706 2298.56128
2906.0 0.0003441 1750.60535 2349.87598
2794.0 0.000358 1750.47388 2409.50513
2920.0 0.0003425 1750.34094 2478.05713
3007.0 0.0003326 1750.20764 2555.78638
3032.0 0.0003298 1750.07397 2642.42554
3131.0 0.0003194 1749.93958 2737.00610
3156.0 0.0003169 1749.80481 2837.65942
3212.0 0.0003113 1749.66907 2941.44507
3319.0 0.0003013 1749.53284 3044.27271
3365.0 0.0002972 1749.39587 3140.99316
3457.0 0.0002893 1749.25867 3225.72266
3401.0 0.0002940 1749.12012 3292.48657
3458.0 0.0002892 1748.98193 3350.54565
3373.0 0.0002965 1748.84265 3369.01782
3325.0 0.0003008 1748.70239 3362.91577
3338.0 0.0002996 1748.56189 3336.69556
3323.0 0.0003009 1748.42102 3297.06982
3218.0 0.0003108 1748.27881 3251.28247
3091.0 0.0003235 1748.13696 3205.78320
3036.0 0.0003294 1747.99414 3165.64307
3063.0 0.0003265 1747.85071 3134.53735
3079.0 0.0003248 1747.70618 3114.99023
2913.0 0.0003433 1747.56177 3108.66821
2790.0 0.000358 1747.41614 3116.64673
2786.0 0.000359 1747.27051 3143.54834
2953.0 0.0003386 1747.12341 3182.18579
3023.0 0.0003308 1746.97620 3237.05444
3063.0 0.0003265 1746.82800 3309.08838
2996.0 0.0003338 1746.67981 3399.74536
3073.0 0.0003254 1746.53064 3511.25171
3317.0 0.0003015 1746.38135 3646.85547
3433.0 0.0002913 1746.23071 3811.09106
3565.0 0.0002805 1746.07996 4010.03320
3709.0 0.0002696 1745.92786 4251.53223
4043.0 0.0002473 1745.77625 4545.39014
4444.0 0.0002250 1745.62341 4903.43701
4861.0 0.0002057 1745.46973 5339.46533
5371.0 0.0001862 1745.31531 5868.95654
5752.0 0.0001739 1745.16064 6508.55469
6452.0 0.0001550 1745.00537 7275.24609
7426.0 0.0001347 1744.84973 8185.21631
8594.0 0.0001164 1744.69287 9252.36035
9876.0 0.0001013 1744.53540 10486.42773
11122.0 0.0000899 1744.37793 11890.75098
13169.0 0.0000759 1744.21960 13459.48730
14749.0 0.0000678 1744.06042 15174.27637
16649.0 0.0000601 1743.90063 16997.43750
18516.0 0.0000540 1743.74048 18880.23828
20453.0 0.0000489 1743.57947 20741.98242
22025.0 0.0000454 1743.41809 22482.16602
23349.0 0.0000428 1743.25574 23981.90039
23812.0 0.0000420 1743.09302 25114.57227
24325.0 0.0000411 1742.92981 25764.33984
24305.0 0.0000411 1742.76550 25851.27344
23890.0 0.0000419 1742.60120 25355.64453
22357.0 0.0000447 1742.43579 24328.00781
20899.0 0.0000478 1742.27014 22876.89453
19139.0 0.0000522 1742.10339 21139.96680
17476.0 0.0000572 1741.93677 19253.68359
15726.0 0.0000636 1741.76819 17333.22266
14040.0 0.0000712 1741.60034 15465.08789
12408.0 0.0000806 1741.43103 13708.32031
10934.0 0.0000915 1741.26184 12099.38867
9549.0 0.0001047 1741.09167 10657.47754
8373.0 0.0001194 1740.92053 9388.97168
7524.0 0.0001329 1740.74915 8290.94531
6607.0 0.0001514 1740.57751 7353.88623
5901.0 0.0001695 1740.40479 6563.91553
5376.0 0.0001860 1740.23120 5904.62598
4957.0 0.0002017 1740.05762 5358.59521
4542.0 0.0002202 1739.88281 4908.57764
4184.0 0.0002390 1739.70752 4538.39404
3794.0 0.0002636 1739.53198 4233.49512
3667.0 0.0002727 1739.35571 3981.26831
3626.0 0.0002758 1739.17859 3771.12036
3391.0 0.0002949 1739.00098 3594.38696
3247.0 0.0003080 1738.82275 3444.14795
3170.0 0.0003155 1738.64368 3314.97388
3026.0 0.0003305 1738.46448 3202.67188
2958.0 0.0003381 1738.28455 3104.02856
2837.0 0.000352 1738.10400 3016.59351
2662.0 0.000376 1737.92249 2938.49316
2630.0 0.000380 1737.74036 2868.28613
2621.0 0.000382 1737.55786 2804.84619
2521.0 0.000397 1737.37488 2747.28076
2563.0 0.000390 1737.19153 2694.87036
2451.0 0.000408 1737.00720 2647.02271
2355.0 0.000425 1736.82190 2603.24243
2309.0 0.000433 1736.63684 2563.10791
2245.0 0.000445 1736.45068 2526.26050
2240.0 0.000446 1736.26404 2492.38525
2371.0 0.000422 1736.07654 2461.21143
2392.0 0.000418 1735.88892 2432.49902
2310.0 0.000433 1735.70020 2406.03809
2240.0 0.000446 1735.51147 2381.64331
2186.0 0.000457 1735.32153 2359.14966
2245.0 0.000445 1735.13159 2338.41382
2197.0 0.000455 1734.94055 2319.30688
2260.0 0.000442 1734.74927 2301.71631
2317.0 0.000432 1734.55713 2285.54175
2277.0 0.000439 1734.36438 2270.69604
2145.0 0.000466 1734.17126 2257.10376
2224.0 0.000450 1733.97742 2244.69604
2272.0 0.000440 1733.78296 2233.41895
2292.0 0.000436 1733.58801 2223.22412
2312.0 0.000433 1733.39233 2214.07275
2350.0 0.000426 1733.19653 2205.93628
2252.0 0.000444 1732.99939 2198.79517
2265.0 0.000442 1732.80225 2192.64087
2360.0 0.000424 1732.60449 2187.47656
2328.0 0.000430 1732.40588 2183.32031
2229.0 0.000449 1732.20703 2180.20410
2098.0 0.000477 1732.00745 2178.18359
2112.0 0.000473 1731.80713 2177.33545
2031.0 0.000492 1731.60645 2177.76538
2156.0 0.000464 1731.40515 2179.61230
2122.0 0.000471 1731.20300 2183.05200
2058.0 0.000486 1731.00110 2188.30322
2088.0 0.000479 1730.79761 2195.62695
2134.0 0.000469 1730.59412 2205.32935
2076.0 0.000482 1730.39014 2217.76074
2124.0 0.000471 1730.18555 2233.30200
2146.0 0.000466 1729.98010 2252.36157
2130.0 0.000469 1729.77441 2275.35107
2188.0 0.000457 1729.56836 2302.66626
2195.0 0.000456 1729.36108 2334.65796
2299.0 0.000435 1729.15430 2371.59326
2332.0 0.000429 1728.94592 2413.60938
2398.0 0.000417 1728.73743 2460.66089
2512.0 0.000398 1728.52820 2512.44531
2477.0 0.000404 1728.31885 2568.31738
2580.0 0.000388 1728.10876 2627.19336
2653.0 0.000377 1727.89819 2687.46289
2739.0 0.000365 1727.68689 2746.94360
2766.0 0.000362 1727.47498 2802.92578
2750.0 0.000364 1727.26282 2852.35083
2638.0 0.000379 1727.04980 2892.17773
2758.0 0.000363 1726.83630 2957.58276
2849.0 0.000351 1726.62268 2972.46704
2759.0 0.000362 1726.40808 2974.29175
2734.0 0.000366 1726.19336 2965.13184
2710.0 0.000369 1725.97754 2948.43726
2631.0 0.000380 1725.76160 2928.38403
2637.0 0.000379 1725.54541 2909.24316
2692.0 0.000371 1725.32825 2894.99316
2762.0 0.000362 1725.11072 2889.17871
2789.0 0.000359 1724.89294 2894.96240
2753.0 0.000363 1724.67444 2915.22144
2804.0 0.000357 1724.45496 2952.64551
2922.0 0.0003422 1724.23584 3009.77612
2894.0 0.0003455 1724.01563 3087.30518
3030.0 0.0003300 1723.79517 3190.72998
3201.0 0.0003124 1723.57410 3320.06079
3507.0 0.0002851 1723.35242 3476.42529
3614.0 0.0002767 1723.13074 3660.12231
3805.0 0.0002628 1722.90796 3870.33032
4023.0 0.0002486 1722.68542 4104.76953
4284.0 0.0002334 1722.46179 4359.35449
4477.0 0.0002234 1722.23755 4627.93799
4755.0 0.0002103 1722.01318 4902.35010
5042.0 0.0001983 1721.78857 5172.89063
5269.0 0.0001898 1721.56287 5429.50195
5345.0 0.0001871 1721.33728 5663.78613
5522.0 0.0001811 1721.11121 5871.74658
5685.0 0.0001759 1720.88440 6056.28027
5756.0 0.0001737 1720.65698 6227.76660
5937.0 0.0001684 1720.42969 6401.90479
6216.0 0.0001609 1720.20105 6595.81689
6551.0 0.0001526 1719.97266 6824.27051
6993.0 0.0001430 1719.74341 7097.18359
7281.0 0.0001373 1719.51392 7418.34863
7652.0 0.0001307 1719.28442 7784.78125
8267.0 0.0001210 1719.05347 8186.22900
9079.0 0.0001101 1718.82275 8604.82324
9191.0 0.0001088 1718.59167 9015.17773
9405.0 0.0001063 1718.35974 9385.48828
9943.0 0.0001006 1718.12756 9680.18457
10264.0 0.0000974 1717.89514 9864.46680
10119.0 0.0000988 1717.66187 9910.49219
9882.0 0.0001012 1717.42896 9803.75586
9777.0 0.0001023 1717.19458 9547.17090
9428.0 0.0001061 1716.96045 9160.52734
8926.0 0.0001120 1716.72620 8675.30078
8231.0 0.0001215 1716.49109 8127.26758
7428.0 0.0001346 1716.25549 7550.04980
6881.0 0.0001453 1716.01978 6971.31396
6360.0 0.0001572 1715.78345 6411.62549
5797.0 0.0001725 1715.54663 5884.98096
5118.0 0.0001954 1715.30957 5400.02637
4462.0 0.0002241 1715.07227 4961.32080
4137.0 0.0002417 1714.83423 4570.41162
3902.0 0.0002563 1714.59619 4226.65186
3669.0 0.0002726 1714.35779 3927.83789
3462.0 0.0002889 1714.11829 3670.70313
3143.0 0.0003182 1713.87927 3451.32251
2973.0 0.0003364 1713.63879 3265.43604
2703.0 0.000370 1713.39893 3108.72144
2588.0 0.000386 1713.15857 2977.00098
2556.0 0.000391 1712.91772 2866.39063
2512.0 0.000398 1712.67651 2773.39746
2505.0 0.000399 1712.43481 2694.96899
2390.0 0.000418 1712.19312 2628.50122
2327.0 0.000430 1711.95093 2571.82690
2322.0 0.000431 1711.70837 2523.16943
2268.0 0.000441 1711.46521 2481.09912
2245.0 0.000445 1711.22192 2444.47681
2256.0 0.000443 1710.97827 2412.40601
2197.0 0.000455 1710.73401 2384.18091
2171.0 0.000461 1710.49011 2359.24927
2137.0 0.000468 1710.24548 2337.17603
2081.0 0.000481 1710.00024 2317.61597
2071.0 0.000483 1709.75513 2300.29590
2123.0 0.000471 1709.50952 2284.99146
2067.0 0.000484 1709.26355 2271.52441
2018.0 0.000496 1709.01697 2259.74341
2075.0 0.000482 1708.77087 2249.52515
2066.0 0.000484 1708.52368 2240.76782
2076.0 0.000482 1708.27686 2233.38501
2001.0 0.000500 1708.02954 2191.57056
1968.0 0.000508 1707.78149 2187.16528
1987.0 0.000503 1707.53394 2184.93701
2004.0 0.000499 1707.28552 2182.89160
1974.0 0.000507 1707.03674 2181.97607
2062.0 0.000485 1706.78821 2182.17383
2129.0 0.000470 1706.53918 2183.47583
2017.0 0.000496 1706.28906 2185.88159
2012.0 0.000497 1706.04028 2189.40015
2028.0 0.000493 1705.79028 2194.04834
2082.0 0.000480 1705.53979 2199.85059
2167.0 0.000461 1705.28943 2206.84326
2169.0 0.000461 1705.03955 2215.06787
2145.0 0.000466 1704.78857 2224.57886
2146.0 0.000466 1704.53687 2235.44067
2201.0 0.000454 1704.28613 2254.39502
2182.0 0.000458 1704.03406 2268.28052
2165.0 0.000462 1703.78235 2283.78564
2150.0 0.000465 1703.53027 2301.03027
2227.0 0.000449 1703.27795 2320.15161
2244.0 0.000446 1703.02539 2341.30762
2259.0 0.000443 1702.77307 2364.68091
2329.0 0.000429 1702.51990 2390.47778
2358.0 0.000424 1702.26685 2418.94165
2298.0 0.000435 1702.01294 2450.35303
2297.0 0.000435 1701.75989 2485.04272
2353.0 0.000425 1701.50647 2523.40234
2308.0 0.000433 1701.25208 2565.90381
2447.0 0.000409 1700.99817 2613.12720
2450.0 0.000408 1700.74414 2665.80005
2473.0 0.000404 1700.48962 2724.85083
2625.0 0.000381 1700.23511 2791.49487
2587.0 0.000387 1699.98035 2867.33618
2701.0 0.000370 1699.72546 2954.52197
2754.0 0.000363 1699.47046 3055.92358
2854.0 0.0003504 1699.21509 3175.37744
3081.0 0.0003246 1698.95947 3317.94849
3415.0 0.0002928 1698.70422 3490.22925
3519.0 0.0002842 1698.44836 3700.62476
3664.0 0.0002729 1698.19226 3959.58740
3998.0 0.0002501 1697.93689 4279.74512
4416.0 0.0002264 1697.68018 4675.83594
4939.0 0.0002025 1697.42444 5164.39697
5512.0 0.0001814 1697.16772 5763.10938
6091.0 0.0001642 1696.91199 6489.78174
6835.0 0.0001463 1696.65515 7360.91504
7748.0 0.0001291 1696.39832 8389.88770
9032.0 0.0001107 1696.14185 9584.73926
10274.0 0.0000973 1695.88501 10945.58301
11406.0 0.0000877 1695.62805 12461.58984
12952.0 0.0000772 1695.37073 14107.54102
14812.0 0.0000675 1695.11365 15840.07324
16899.0 0.0000592 1694.85645 17594.27344
18149.0 0.0000551 1694.59924 19281.96094
19627.0 0.0000510 1694.34216 20793.72852
20812.0 0.0000480 1694.08411 22006.87500
21404.0 0.0000467 1693.82678 22801.11328
21619.0 0.0000463 1693.56946 23082.25000
20962.0 0.0000477 1693.31177 22808.47852
20266.0 0.0000493 1693.05408 22006.69531
19239.0 0.0000520 1692.79614 20767.14648
17715.0 0.0000564 1692.53857 19217.78711
16215.0 0.0000617 1692.28088 17492.82617
14372.0 0.0000696 1692.02319 15709.72168
12692.0 0.0000788 1691.76514 13959.26758
11181.0 0.0000894 1691.50708 12305.30566
9733.0 0.0001027 1691.24951 10788.73828
8592.0 0.0001164 1690.99133 9432.38086
7727.0 0.0001294 1690.73303 8245.18066
6588.0 0.0001518 1690.47546 7225.67725
5905.0 0.0001693 1690.21765 6364.85596
5286.0 0.0001892 1689.95984 5648.61621
4685.0 0.0002134 1689.70203 5059.90137
4427.0 0.0002259 1689.44385 4580.48975
4222.0 0.0002369 1689.18628 4192.40771
3830.0 0.0002611 1688.92822 3878.95239
3618.0 0.0002764 1688.67041 3625.32324
3567.0 0.0002803 1688.41260 3418.92407
3466.0 0.0002885 1688.15527 3249.39893
3351.0 0.0002984 1687.89697 3108.48315
3183.0 0.0003142 1687.63965 2989.74219
3165.0 0.0003160 1687.38196 2888.26855
3069.0 0.0003258 1687.12463 2800.37378
2986.0 0.0003349 1686.86694 2723.31006
2962.0 0.0003376 1686.60950 2655.03418
2998.0 0.0003336 1686.35193 2592.68506
2965.0 0.0003373 1686.09497 2537.79370
2915.0 0.0003431 1685.83789 2488.12036
2724.0 0.000367 1685.58081 2442.96655
2720.0 0.000368 1685.32373 2401.77051
2673.0 0.000374 1685.06641 2364.07031
2617.0 0.000382 1684.80957 2329.47876
2677.0 0.000374 1684.55310 2297.66626
2720.0 0.000368 1684.29651 2268.35132
2585.0 0.000387 1684.03979 2241.28442
2580.0 0.000388 1683.78381 2216.25415
2548.0 0.000392 1683.52747 2193.06763
2522.0 0.000397 1683.27112 2171.55908
2549.0 0.000392 1683.01514 2151.57935
2484.0 0.000403 1682.75903 2132.99854
2334.0 0.000428 1682.50378 2115.69727
2348.0 0.000426 1682.24780 2099.57178
2346.0 0.000426 1681.99243 2084.52832
2345.0 0.000426 1681.73718 2070.48389
2328.0 0.000430 1681.48242 2057.36230
2241.0 0.000446 1681.22705 2045.09644
2214.0 0.000452 1680.97266 2034.05676
2133.0 0.000469 1680.71765 2023.33118
2323.0 0.000430 1680.46338 2013.29675
2256.0 0.000443 1680.20935 2003.90942
2208.0 0.000453 1679.95508 1995.12830
2179.0 0.000459 1679.70142 1986.91919
2087.0 0.000479 1679.44751 1979.24854
2091.0 0.000478 1679.19434 1972.08728
2070.0 0.000483 1678.94092 1980.99719
2079.0 0.000481 1678.68799 1975.00757
2114.0 0.000473 1678.43530 1969.46252
2108.0 0.000474 1678.18237 1964.34412
2079.0 0.000481 1677.93054 1959.63635
2097.0 0.000477 1677.67822 1955.32544
2204.0 0.000454 1677.42566 1951.39929
2197.0 0.000455 1677.17444 1947.84839
2025.0 0.000494 1676.92346 1944.66516
2042.0 0.000490 1676.67236 1941.84265
2057.0 0.000486 1676.42126 1939.37683
2119.0 0.000472 1676.17065 1937.26477
2108.0 0.000474 1675.92017 1918.96790
2080.0 0.000481 1675.66980 1917.75842
2076.0 0.000482 1675.42017 1918.95544
2028.0 0.000493 1675.17102 1918.48474
2007.0 0.000498 1674.92151 1918.38025
2034.0 0.000492 1674.67249 1918.65173
2055.0 0.000487 1674.42419 1919.31250
2075.0 0.000482 1674.17566 1920.37573
2074.0 0.000482 1673.92773 1921.86084
1997.0 0.000501 1673.68005 1923.79041
1961.0 0.000510 1673.43274 1926.18738
2002.0 0.000500 1673.18567 1929.08569
2043.0 0.000489 1672.93909 1932.52197
1966.0 0.000509 1672.69263 1936.54224
1986.0 0.000504 1672.44666 1941.20154
1982.0 0.000505 1672.20105 1946.56885
2026.0 0.000494 1671.95593 1952.72900
2005.0 0.000499 1671.71045 1959.78796
2065.0 0.000484 1671.46643 1967.87671
2074.0 0.000482 1671.22168 1977.16052
2090.0 0.000478 1670.97778 1987.84106
2028.0 0.000493 1670.73450 2000.16736
2007.0 0.000498 1670.49146 2014.44116
2002.0 0.000500 1670.24829 2031.02307
2123.0 0.000471 1670.00562 2050.33545
2148.0 0.000466 1669.76367 2072.86670
2198.0 0.000455 1669.52222 2099.16943
2228.0 0.000449 1669.28113 2129.85547
2192.0 0.000456 1669.03992 2165.58789
2257.0 0.000443 1668.79968 2207.07666
2275.0 0.000440 1668.55957 2255.05957
2308.0 0.000433 1668.32019 2310.29370
2355.0 0.000425 1668.08130 2373.53687
2469.0 0.000405 1667.84241 2445.52222
2564.0 0.000390 1667.60437 2526.91992
2659.0 0.000376 1667.36633 2618.28149
2762.0 0.000362 1667.12878 2719.97388
3075.0 0.0003252 1666.89172 2832.11133
3080.0 0.0003247 1666.65540 2954.53125
3164.0 0.0003161 1666.41956 3086.85889
3309.0 0.0003022 1666.18359 3228.71216
3461.0 0.0002889 1665.94885 3380.05103
3648.0 0.0002741 1665.71448 3541.60181
3810.0 0.0002625 1665.48022 3715.14136
4006.0 0.0002496 1665.24683 3903.38794
4242.0 0.0002357 1665.01331 4109.34717
4493.0 0.0002226 1664.78076 4335.27100
4760.0 0.0002101 1664.54810 4581.51563
4954.0 0.0002019 1664.31689 4845.51611
5248.0 0.0001905 1664.08582 5120.99512
5408.0 0.0001849 1663.85559 5397.41797
5741.0 0.0001742 1663.62524 5659.88818
5886.0 0.0001699 1663.39539 5889.77539
6082.0 0.0001644 1663.16626 6066.42871
6094.0 0.0001641 1662.93762 6170.19238
5990.0 0.0001669 1662.70972 6186.41895
6032.0 0.0001658 1662.48230 6109.35889
5713.0 0.0001750 1662.25525 5944.14307
5679.0 0.0001761 1662.02893 5705.58496
5331.0 0.0001876 1661.80322 5414.30420
5106.0 0.0001958 1661.57776 5092.07471
4705.0 0.0002125 1661.35364 4758.30518
4484.0 0.0002230 1661.12915 4428.34277
4238.0 0.0002360 1660.90564 4113.24756
3881.0 0.0002577 1660.68286 3820.34888
3636.0 0.0002750 1660.46033 3554.00464
3384.0 0.0002955 1660.23840 3316.30859
3305.0 0.0003026 1660.01733 3107.65625
3046.0 0.0003283 1659.79626 2927.19482
2779.0 0.000360 1659.57666 2735.57080
2738.0 0.000365 1659.35718 2606.20361
2627.0 0.000381 1659.13867 2498.27100
2585.0 0.000387 1658.92029 2408.98730
2468.0 0.000405 1658.70276 2335.61743
2398.0 0.000417 1658.48608 2275.60083
2308.0 0.000433 1658.26953 2226.63257
2220.0 0.000450 1658.05420 2186.71216
2245.0 0.000445 1657.83875 2154.14771
2193.0 0.000456 1657.62476 2127.55078
2238.0 0.000447 1657.41113 2105.80762
2197.0 0.000455 1657.19800 2088.04077
2143.0 0.000467 1656.98547 2073.57324
2060.0 0.000485 1656.77405 2061.89111
2103.0 0.000476 1656.56299 2052.60791
2112.0 0.000473 1656.35242 2045.43823
2097.0 0.000477 1656.14258 2040.17322
2162.0 0.000463 1655.93323 2036.66528
2127.0 0.000470 1655.72498 2034.81079
2109.0 0.000474 1655.51770 2034.54419
2109.0 0.000474 1655.31030 2035.83118
2109.0 0.000474 1655.10437 2038.66113
2193.0 0.000456 1654.89856 2043.04932
2142.0 0.000467 1654.69360 2049.03320
2193.0 0.000456 1654.48938 2056.67456
2193.0 0.000456 1654.28589 2066.06152
2232.0 0.000448 1654.08337 2077.31323
2193.0 0.000456 1653.88110 2090.58716
2194.0 0.000456 1653.67981 2106.08911
2233.0 0.000448 1653.47937 2124.08936
2369.0 0.000422 1653.27991 2144.94653
2413.0 0.000414 1653.08044 2169.13818
2346.0 0.000426 1652.88220 2197.30518
2419.0 0.000413 1652.68433 2230.30811
2445.0 0.000409 1652.48779 2269.30347
2542.0 0.000393 1652.29114 2315.82642
2532.0 0.000395 1652.09631 2371.89526
2591.0 0.000386 1651.90161 2440.11523
2642.0 0.000379 1651.70813 2529.20508
2730.0 0.000366 1651.51526 2632.43774
2910.0 0.0003436 1651.32275 2760.03027
3031.0 0.0003299 1651.13123 2917.60010
3220.0 0.0003106 1650.94092 3111.39307
3445.0 0.0002903 1650.75122 3348.03247
3630.0 0.0002755 1650.56152 3634.13477
3966.0 0.0002521 1650.37317 3975.78906
4510.0 0.0002217 1650.18591 4377.90234
4893.0 0.0002044 1649.99939 4843.41504
5429.0 0.0001842 1649.81384 5372.40479
6237.0 0.0001603 1649.62805 5961.04346
6967.0 0.0001435 1649.44434 6603.88721
7737.0 0.0001292 1649.26074 7278.61670
8233.0 0.0001215 1649.07825 7965.50684
9079.0 0.0001101 1648.89648 8632.69727
9673.0 0.0001034 1648.71570 9239.96777
10216.0 0.0000979 1648.53528 9741.26465
10423.0 0.0000959 1648.35608 10090.24707
10376.0 0.0000964 1648.17773 10248.88281
9983.0 0.0001002 1648.00000 10197.21094
9542.0 0.0001048 1647.82385 9940.10645
9022.0 0.0001108 1647.64758 9506.81445
8501.0 0.0001176 1647.47266 8942.87402
7711.0 0.0001297 1647.29858 8298.80957
7044.0 0.0001420 1647.12561 7620.88281
6387.0 0.0001566 1646.95313 6946.31592
5696.0 0.0001756 1646.78162 6302.35059
4919.0 0.0002033 1646.61133 5707.31299
4443.0 0.0002251 1646.44165 5172.26807
4223.0 0.0002368 1646.27258 4702.56787
3852.0 0.0002596 1646.10498 4299.11084
3574.0 0.0002798 1645.93774 3959.38672
3356.0 0.0002980 1645.77161 3678.36035
3045.0 0.0003284 1645.60645 3449.25659
2975.0 0.0003361 1645.44189 3264.27808
2848.0 0.000351 1645.27832 3115.27734
2858.0 0.0003499 1645.11646 2994.39551
2806.0 0.000356 1644.95398 2894.65356
2766.0 0.000362 1644.79358 2810.44824
2568.0 0.000389 1644.63391 2737.83252
2439.0 0.000410 1644.47546 2674.49048
2501.0 0.000400 1644.31702 2619.42676
2522.0 0.000397 1644.16016 2572.50635
2446.0 0.000409 1644.00439 2534.04102
2405.0 0.000416 1643.84924 2504.50049
2391.0 0.000418 1643.69531 2484.35669
2363.0 0.000423 1643.54224 2474.00439
2339.0 0.000428 1643.38977 2473.70801
2377.0 0.000421 1643.23828 2483.56396
2433.0 0.000411 1643.08813 2503.45093
2480.0 0.000403 1642.93872 2532.97339
2482.0 0.000403 1642.78992 2571.38525
2599.0 0.000385 1642.64282 2617.49805
2598.0 0.000385 1642.49634 2669.57446
2744.0 0.000364 1642.35107 2725.20752
2808.0 0.000356 1642.20618 2784.21973
2913.0 0.0003433 1642.06250 2836.77466
2994.0 0.0003340 1641.92004 2881.34155
2947.0 0.0003393 1641.77832 2913.29272
3002.0 0.0003331 1641.63794 2928.50903
2962.0 0.0003376 1641.49829 2924.17236
2887.0 0.0003464 1641.35974 2899.43188
2796.0 0.000358 1641.22217 2855.63916
2670.0 0.000375 1641.08557 2796.01196
2659.0 0.000376 1640.95032 2724.86499
2573.0 0.000389 1640.81519 2646.73291
2509.0 0.000399 1640.68140 2565.70337
2438.0 0.000410 1640.54907 2485.07153
2339.0 0.000428 1640.41760 2407.27197
2229.0 0.000449 1640.28699 2333.97070
2153.0 0.000464 1640.15735 2266.20703
2140.0 0.000467 1640.02917 2204.54199
2087.0 0.000479 1639.90125 2149.17383
2006.0 0.000499 1639.77466 2100.03638
1963.0 0.000509 1639.64954 2056.86938
2000.0 0.000500 1639.52551 2019.27441
1907.0 0.000524 1639.40198 1986.76709
1955.0 0.000512 1639.27930 1958.81567
1926.0 0.000519 1639.15784 1934.87354
1867.0 0.000536 1639.03784 1914.40540
1799.0 0.000556 1638.91870 1896.90845
1810.0 0.000552 1638.80029 1881.92383
1917.0 0.000522 1638.68311 1869.04602
1817.0 0.000550 1638.56726 1857.92383
1935.0 0.000517 1638.45227 1848.26160
1880.0 0.000532 1638.33862 1839.81189
1828.0 0.000547 1638.22559 1832.37427
1865.0 0.000536 1638.11377 1825.78564
1872.0 0.000534 1638.00256 1819.91711
1833.0 0.000546 1637.89307 1814.66479
1870.0 0.000535 1637.78442 1809.94714
1822.0 0.000549 1637.67737 1805.69958
1892.0 0.000529 1637.57080 1801.86951
1844.0 0.000542 1637.46497 1798.41577
1920.0 0.000521 1637.36084 1795.30444
1807.0 0.000553 1637.25745 1792.50842
1805.0 0.000554 1637.15564 1790.00464
1838.0 0.000544 1637.05444 1787.77344
1864.0 0.000536 1636.95435 1785.79919
1884.0 0.000531 1636.85535 1783.08130
1865.0 0.000536 1636.75781 1781.59424
1878.0 0.000532 1636.66052 1780.32947
1962.0 0.000510 1636.56531 1779.27905
1934.0 0.000517 1636.47083 1778.43677
1895.0 0.000528 1636.37744 1777.79675
1891.0 0.000529 1636.28516 1777.35645
1961.0 0.000510 1636.19348 1777.11169
1914.0 0.000522 1636.10364 1777.06238
1838.0 0.000544 1636.01501 1777.20703
1891.0 0.000529 1635.92664 1777.54688
1902.0 0.000526 1635.83997 1778.08240
1899.0 0.000527 1635.75403 1778.81787
1892.0 0.000529 1635.66980 1779.89417
1906.0 0.000525 1635.58606 1774.39551
1921.0 0.000521 1635.50378 1775.83643
1911.0 0.000523 1635.42236 1777.49561
1900.0 0.000526 1635.34241 1779.38391
1849.0 0.000541 1635.26343 1781.50977
1912.0 0.000523 1635.18555 1783.88586
1912.0 0.000523 1635.10852 1786.52405
1868.0 0.000535 1635.03284 1789.43872
1850.0 0.000541 1634.95862 1792.64783
1908.0 0.000524 1634.88501 1796.16992
1949.0 0.000513 1634.81323 1800.02563
1988.0 0.000503 1634.74194 1804.23999
1905.0 0.000525 1634.67224 1808.83911
1863.0 0.000537 1634.60291 1813.85327
1884.0 0.000531 1634.53528 1819.31812
1928.0 0.000519 1634.46887 1825.27234
1914.0 0.000522 1634.40332 1831.76160
1884.0 0.000531 1634.33887 1838.83740
1906.0 0.000525 1634.27551 1846.56079
1873.0 0.000534 1634.21387 1855.00244
1872.0 0.000534 1634.15295 1864.24829
1841.0 0.000543 1634.09314 1874.40088
1899.0 0.000527 1634.03430 1885.58655
1938.0 0.000516 1633.97693 1897.96313
1961.0 0.000510 1633.92029 1911.72717
1942.0 0.000515 1633.86536 1927.12708
1951.0 0.000513 1633.81165 1944.47803
1959.0 0.000510 1633.75867 1964.17749
2009.0 0.000498 1633.70654 1992.04175
1973.0 0.000507 1633.65576 2018.12537
2068.0 0.000484 1633.60706 2048.44849
2152.0 0.000465 1633.55835 2083.93652
2196.0 0.000455 1633.51099 2125.69507
2157.0 0.000464 1633.46509 2175.00464
2167.0 0.000461 1633.42053 2233.32178
2299.0 0.000435 1633.37646 2302.25562
2334.0 0.000428 1633.33411 2383.52783
2532.0 0.000395 1633.29260 2478.91284
2597.0 0.000385 1633.25269 2590.16235
2835.0 0.000353 1633.21326 2718.90430
2966.0 0.0003372 1633.17529 2866.52441
3139.0 0.0003186 1633.13855 3034.02295
3383.0 0.0002956 1633.10303 3221.84790
3760.0 0.0002660 1633.06873 3429.67505
3877.0 0.0002579 1633.03516 3656.14771
4073.0 0.0002455 1633.00317 3898.53442
4180.0 0.0002392 1632.97192 4152.35889
4469.0 0.0002238 1632.94238 4411.05273
4610.0 0.0002169 1632.91333 4665.82617
4832.0 0.0002070 1632.88586 4905.96826
5056.0 0.0001978 1632.85950 5119.85693
5121.0 0.0001953 1632.83484 5296.71436
5309.0 0.0001884 1632.81055 5432.90576
5227.0 0.0001913 1632.78748 5517.96143
5224.0 0.0001914 1632.76575 5559.37744
5461.0 0.0001831 1632.74548 5565.74902
5453.0 0.0001834 1632.72559 5548.28418
5201.0 0.0001923 1632.70764 5517.81934
5131.0 0.0001949 1632.69067 5482.36035
5295.0 0.0001889 1632.67456 5445.60156
5231.0 0.0001912 1632.65967 5406.49561
5117.0 0.0001954 1632.64587 5359.70361
5137.0 0.0001947 1632.63330 5296.87354
5010.0 0.0001996 1632.62195 5208.69727
4827.0 0.0002072 1632.61182 5087.52344
4738.0 0.0002111 1632.60315 4929.83105
4555.0 0.0002195 1632.59534 4737.60205
4344.0 0.0002302 1632.58789 4517.88916
3967.0 0.0002521 1632.58301 4280.83203
3707.0 0.0002698 1632.57813 4037.20264
3510.0 0.0002849 1632.57520 3796.51123
3378.0 0.0002960 1632.57300 3566.11548
3291.0 0.0003039 1632.57227 3351.11279
3119.0 0.0003206 1632.57263 3154.64868
2919.0 0.0003426 1632.57397 2978.34058
2702.0 0.000370 1632.57629 2822.65674
2578.0 0.000388 1632.58020 2687.22144
2474.0 0.000404 1632.58484 2571.05566
2338.0 0.000428 1632.59082 2472.76685
2424.0 0.000413 1632.59827 2390.71338
2359.0 0.000424 1632.60596 2323.15088
2323.0 0.000430 1632.61548 2268.34937
2335.0 0.000428 1632.62585 2224.69629
2265.0 0.000442 1632.63794 2190.77490
2233.0 0.000448 1632.65039 2165.42236
2215.0 0.000451 1632.66479 2147.76416
2221.0 0.000450 1632.67969 2137.23926
2251.0 0.000444 1632.69617 2133.60547
2288.0 0.000437 1632.71399 2136.93091
2226.0 0.000449 1632.73193 2147.58008
2172.0 0.000460 1632.75171 2157.69678
2256.0 0.000443 1632.77246 2185.21167
2266.0 0.000441 1632.79492 2222.54663
2425.0 0.000412 1632.81738 2272.08472
2376.0 0.000421 1632.84204 2332.37500
2562.0 0.000390 1632.86719 2405.64722
2624.0 0.000381 1632.89404 2492.61523
2683.0 0.000373 1632.92114 2593.58228
2778.0 0.000360 1632.95020 2708.27344
2860.0 0.0003497 1632.97998 2835.63525
3057.0 0.0003271 1633.01074 2973.60010
3259.0 0.0003068 1633.04297 3118.81616
3456.0 0.0002894 1633.07642 3266.37061
3549.0 0.0002818 1633.11047 3409.58618
3684.0 0.0002714 1633.14587 3540.06567
3770.0 0.0002653 1633.18250 3648.18848
3911.0 0.0002557 1633.22058 3724.23242
3777.0 0.0002648 1633.25916 3760.09766
3810.0 0.0002625 1633.29883 3751.22925
3644.0 0.0002744 1633.34033 3697.96191
3404.0 0.0002938 1633.38220 3605.55054
3372.0 0.0002966 1633.42554 3482.78467
3241.0 0.0003085 1633.46997 3337.81543
3205.0 0.0003120 1633.51538 3184.54175
2962.0 0.0003376 1633.56177 3029.02832
2799.0 0.000357 1633.60962 2877.47925
2734.0 0.000366 1633.65845 2734.26440
2588.0 0.000386 1633.70825 2602.22388
2493.0 0.000401 1633.75903 2482.98706
2424.0 0.000413 1633.81140 2377.24585
2252.0 0.000444 1633.86438 2284.97729
2134.0 0.000469 1633.91858 2205.62500
2053.0 0.000487 1633.97375 2138.25586
2054.0 0.000487 1634.03064 2081.69678
2016.0 0.000496 1634.08752 2034.64941
2044.0 0.000489 1634.14636 1995.79028
1973.0 0.000507 1634.20581 1963.84351
2000.0 0.000500 1634.26685 1937.63525
2000.0 0.000500 1634.32849 1916.51025
1944.0 0.000514 1634.39099 1898.81360
1949.0 0.000513 1634.45532 1884.18164
1960.0 0.000510 1634.52026 1872.01172
1911.0 0.000523 1634.58630 1861.82410
1850.0 0.000541 1634.65332 1853.24548
1874.0 0.000534 1634.72168 1845.98792
1824.0 0.000548 1634.79089 1839.83398
1898.0 0.000527 1634.86133 1834.61975
1876.0 0.000533 1634.93225 1830.22327
1807.0 0.000553 1635.00488 1826.55591
1754.0 0.000570 1635.07813 1823.55054
1823.0 0.000549 1635.15259 1821.16150
1832.0 0.000546 1635.22778 1819.35876
1837.0 0.000544 1635.30432 1818.12366
1783.0 0.000561 1635.38220 1817.44983
1830.0 0.000546 1635.46057 1817.34119
1874.0 0.000534 1635.54004 1817.80896
1839.0 0.000544 1635.62122 1818.87463
1834.0 0.000545 1635.70264 1820.56689
1810.0 0.000552 1635.78491 1822.92053
1851.0 0.000540 1635.86877 1825.97339
1824.0 0.000548 1635.95349 1829.76843
1891.0 0.000529 1636.03979 1834.34619
1874.0 0.000534 1636.12622 1839.74585
1848.0 0.000541 1636.21423 1845.99988
1903.0 0.000525 1636.30322 1853.13062
1825.0 0.000548 1636.39282 1861.14417
1859.0 0.000538 1636.48303 1870.02905
1848.0 0.000541 1636.57544 1879.74341
1888.0 0.000530 1636.66797 1890.20825
1901.0 0.000526 1636.76172 1901.30591
1859.0 0.000538 1636.85669 1912.86560
1921.0 0.000521 1636.95190 1924.67615
1910.0 0.000524 1637.04883 1936.49951
1905.0 0.000525 1637.14624 1948.11572
1857.0 0.000539 1637.24524 1959.37720
1887.0 0.000530 1637.34436 1970.27710
1935.0 0.000517 1637.44495 1981.00269
1997.0 0.000501 1637.54675 1991.95007
2000.0 0.000500 1637.64905 2003.71045
2061.0 0.000485 1637.75281 2017.02954
2021.0 0.000495 1637.85669 2032.77454
1975.0 0.000506 1637.96216 2051.92651
1972.0 0.000507 1638.06848 2075.59009
2108.0 0.000474 1638.17529 2105.02344
2127.0 0.000470 1638.28357 2141.67529
2140.0 0.000467 1638.39282 2187.20020
2216.0 0.000451 1638.50244 2243.46509
2261.0 0.000442 1638.61377 2312.53027
2370.0 0.000422 1638.72510 2396.58960
2500.0 0.000400 1638.83813 2499.81030
2687.0 0.000372 1638.95154 2620.52759
2762.0 0.000362 1639.06628 2762.55664
2904.0 0.0003444 1639.18188 2927.36841
3130.0 0.0003195 1639.29834 3115.75610
3373.0 0.0002965 1639.41565 3327.56885
3485.0 0.0002869 1639.53381 3561.39966
3859.0 0.0002591 1639.65283 3814.21533
4095.0 0.0002442 1639.77271 4083.01465
4258.0 0.0002349 1639.89368 4356.00488
4460.0 0.0002242 1640.01477 4624.71436
4741.0 0.0002109 1640.13745 4875.61426
4830.0 0.0002070 1640.26160 5092.82178
5035.0 0.0001986 1640.38550 5259.73828
5008.0 0.0001997 1640.51074 5361.80176
5048.0 0.0001981 1640.63708 5389.78320
4990.0 0.0002004 1640.76392 5342.46680
4948.0 0.0002021 1640.89136 5227.36426
4773.0 0.0002095 1641.02026 5058.95361
4692.0 0.0002131 1641.14917 4855.30469
4663.0 0.0002145 1641.27966 4634.66943
4287.0 0.0002333 1641.41077 4413.16357
4116.0 0.0002430 1641.54236 4203.79541
3940.0 0.0002538 1641.67554 4016.41699
3863.0 0.0002589 1641.80896 3858.10278
3744.0 0.0002671 1641.94324 3733.60620
3801.0 0.0002631 1642.07837 3645.73950
3818.0 0.0002619 1642.21497 3595.65015
3852.0 0.0002596 1642.35132 3583.00269
3810.0 0.0002625 1642.48901 3606.08496
4009.0 0.0002494 1642.62744 3661.85327
4082.0 0.0002450 1642.76697 3745.89282
4250.0 0.0002353 1642.90686 3852.31055
4288.0 0.0002332 1643.04712 3973.59497
4322.0 0.0002314 1643.18848 4100.52490
4495.0 0.0002225 1643.33105 4222.33105
4622.0 0.0002164 1643.47437 4327.32666
4531.0 0.0002207 1643.61792 4404.16650
4498.0 0.0002223 1643.76306 4443.66602
4407.0 0.0002269 1643.90784 4435.28564
4403.0 0.0002271 1644.05432 4390.09619
4451.0 0.0002247 1644.20093 4307.95752
4352.0 0.0002298 1644.34839 4197.86572
4150.0 0.0002410 1644.49695 4070.25293
4167.0 0.0002400 1644.64575 3934.94775
3951.0 0.0002531 1644.79565 3799.87402
3809.0 0.0002625 1644.94568 3670.50537
3645.0 0.0002743 1645.09741 3549.84106
3569.0 0.0002802 1645.24939 3438.65942
3494.0 0.0002862 1645.40161 3335.90771
3373.0 0.0002965 1645.55481 3239.25415
3294.0 0.0003036 1645.70874 3142.31104
3265.0 0.0003063 1645.86353 3049.46021
3113.0 0.0003212 1646.01929 2955.57129
2915.0 0.0003431 1646.17517 2860.48608
2752.0 0.000363 1646.33191 2765.37695
2629.0 0.000380 1646.48914 2672.22559
2566.0 0.000390 1646.64746 2583.19360
2519.0 0.000397 1646.80566 2500.16626
2414.0 0.000414 1646.96558 2424.55811
2403.0 0.000416 1647.12549 2357.30225
2224.0 0.000450 1647.28577 2298.92993
2192.0 0.000456 1647.44727 2249.66455
2181.0 0.000459 1647.60925 2209.48950
2167.0 0.000461 1647.77222 2178.20166
2092.0 0.000478 1647.93481 2155.43896
2088.0 0.000479 1648.09888 2140.69800
2119.0 0.000472 1648.26318 2133.34595
2174.0 0.000460 1648.42847 2132.61792
2199.0 0.000455 1648.59375 2137.60913
2124.0 0.000471 1648.76025 2147.24854
2161.0 0.000463 1648.92688 2160.37622
2167.0 0.000461 1649.09448 2175.27417
2157.0 0.000464 1649.26196 2190.29883
2155.0 0.000464 1649.43054 2203.49438
2155.0 0.000464 1649.60010 2212.83911
2203.0 0.000454 1649.76978 2216.48926
2185.0 0.000458 1649.94006 2213.10181
2196.0 0.000455 1650.11072 2202.11279
2140.0 0.000467 1650.28210 2183.86890
2017.0 0.000496 1650.45410 2159.50781
2034.0 0.000492 1650.62646 2130.65894
2003.0 0.000499 1650.79919 2099.08179
1982.0 0.000505 1650.97266 2066.39551
1948.0 0.000513 1651.14697 2033.92212
1961.0 0.000510 1651.32166 2002.65942
1953.0 0.000512 1651.49609 1973.30737
1918.0 0.000521 1651.67188 1946.32446
1867.0 0.000536 1651.84802 1921.97717
1911.0 0.000523 1652.02466 1900.38855
1855.0 0.000539 1652.20154 1881.57141
1829.0 0.000547 1652.37903 1865.46375
1806.0 0.000554 1652.55725 1851.94995
1799.0 0.000556 1652.73547 1840.88245
1806.0 0.000554 1652.91418 1829.13269
1747.0 0.000572 1653.09424 1822.52490
1741.0 0.000574 1653.27380 1817.91284
1764.0 0.000567 1653.45398 1815.17932
1754.0 0.000570 1653.63477 1814.23303
1841.0 0.000543 1653.81616 1815.00610
1857.0 0.000539 1653.99756 1817.45227
1773.0 0.000564 1654.17969 1821.53320
1765.0 0.000567 1654.36218 1827.21521
1839.0 0.000544 1654.54468 1834.45203
1811.0 0.000552 1654.72827 1843.17334
1865.0 0.000536 1654.91162 1853.26636
1876.0 0.000533 1655.09595 1864.55750
1875.0 0.000533 1655.28076 1876.78943
1867.0 0.000536 1655.46509 1889.59705
1909.0 0.000524 1655.65076 1902.48108
2025.0 0.000494 1655.83582 1914.80090
1971.0 0.000507 1656.02234 1925.78687
1947.0 0.000514 1656.20825 1934.59778
1961.0 0.000510 1656.39514 1940.42920
1926.0 0.000519 1656.58215 1942.66052
1929.0 0.000518 1656.76929 1940.99304
1899.0 0.000527 1656.95728 1935.53503
1944.0 0.000514 1657.14551 1926.77234
1896.0 0.000527 1657.33374 1915.45935
1927.0 0.000519 1657.52222 1902.44922
1934.0 0.000517 1657.71155 1889.18848
1868.0 0.000535 1657.90088 1875.12830
1864.0 0.000536 1658.09021 1861.42944
1831.0 0.000546 1658.28027 1848.48743
1869.0 0.000535 1658.47058 1836.56812
1837.0 0.000544 1658.66125 1825.84070
1790.0 0.000559 1658.85168 1816.39575
1762.0 0.000568 1659.04297 1808.26587
1856.0 0.000539 1659.23425 1801.43872
1855.0 0.000539 1659.42590 1795.87134
1851.0 0.000540 1659.61768 1791.49927
1761.0 0.000568 1659.81006 1788.24487
1792.0 0.000558 1660.00208 1786.02954
1845.0 0.000542 1660.19470 1784.77405
1919.0 0.000521 1660.38733 1784.41089
1865.0 0.000536 1660.58020 1784.88672
1882.0 0.000531 1660.77368 1786.16760
1948.0 0.000513 1660.96716 1788.24268
1951.0 0.000513 1661.16040 1791.12866
1935.0 0.000517 1661.35461 1794.87488
1908.0 0.000524 1661.54883 1799.56543
1943.0 0.000515 1661.74292 1805.32544
1986.0 0.000504 1661.93750 1812.32654
1936.0 0.000517 1662.13208 1820.78796
1874.0 0.000534 1662.32703 1830.98340
1957.0 0.000511 1662.52173 1843.24048
1929.0 0.000518 1662.71716 1857.94055
1896.0 0.000527 1662.91187 1875.51416
1918.0 0.000521 1663.10767 1896.43347
1967.0 0.000508 1663.30334 1921.19177
1993.0 0.000502 1663.49878 1950.28882
2032.0 0.000492 1663.69446 1984.06189
2062.0 0.000485 1663.89050 2023.20618
2077.0 0.000481 1664.08643 2067.90503
2058.0 0.000486 1664.28247 2118.33594
2156.0 0.000464 1664.47888 2174.48169
2273.0 0.000440 1664.67529 2236.06274
2239.0 0.000447 1664.87183 2302.45801
2358.0 0.000424 1665.06812 2372.60596
2436.0 0.000411 1665.26453 2444.89917
2541.0 0.000394 1665.46130 2517.06714
2507.0 0.000399 1665.65796 2586.12451
2595.0 0.000385 1665.85486 2648.42017
2694.0 0.000371 1666.05188 2699.89917
2678.0 0.000373 1666.24902 2736.59937
2717.0 0.000368 1666.44580 2755.35107
2703.0 0.000370 1666.64258 2754.49194
2599.0 0.000385 1666.83960 2734.30493
2582.0 0.000387 1667.03674 2696.98218
2515.0 0.000398 1667.23364 2646.10327
2552.0 0.000392 1667.43091 2585.87158
2533.0 0.000395 1667.62793 2520.40381
2456.0 0.000407 1667.82507 2453.26978
2349.0 0.000426 1668.02209 2387.30640
2349.0 0.000426 1668.21899 2324.63062
2308.0 0.000433 1668.41638 2266.73901
2195.0 0.000456 1668.61353 2214.63867
2155.0 0.000464 1668.81030 2168.96802
2099.0 0.000476 1669.00745 2130.09448
2030.0 0.000493 1669.20386 2098.19629
1976.0 0.000506 1669.40112 2067.99487
2006.0 0.000499 1669.59790 2050.20190
1960.0 0.000510 1669.79468 2039.38391
1917.0 0.000522 1669.99158 2035.51953
1953.0 0.000512 1670.18762 2038.62976
1994.0 0.000502 1670.38452 2048.79565
2046.0 0.000489 1670.58069 2066.16016
2083.0 0.000480 1670.77710 2090.92261
2085.0 0.000480 1670.97327 2123.31274
2158.0 0.000463 1671.16968 2163.56226
2188.0 0.000457 1671.36511 2211.85962
2248.0 0.000445 1671.56165 2268.29785
2356.0 0.000424 1671.75745 2332.80957
2402.0 0.000416 1671.95288 2405.09253
2433.0 0.000411 1672.14832 2484.51392
2579.0 0.000388 1672.34363 2570.00220
2591.0 0.000386 1672.53931 2659.90796
2731.0 0.000366 1672.73389 2751.85767
2784.0 0.000359 1672.92871 2842.62231
2873.0 0.0003481 1673.12402 2928.07861
3040.0 0.0003289 1673.31885 3003.33301
2930.0 0.0003413 1673.51306 3063.11890
2878.0 0.0003475 1673.70715 3102.49634
2990.0 0.0003344 1673.90100 3117.73584
3098.0 0.0003228 1674.09521 3103.14697
3100.0 0.0003226 1674.28870 3067.55615
3094.0 0.0003232 1674.48242 3010.00122
2997.0 0.0003337 1674.67590 2935.16333
2911.0 0.0003435 1674.86865 2848.37109
2911.0 0.0003435 1675.06128 2754.76221
2898.0 0.0003451 1675.25342 2658.74609
2831.0 0.000353 1675.44641 2563.79810
2725.0 0.000367 1675.63843 2472.46924
2716.0 0.000368 1675.83032 2386.51465
2603.0 0.000384 1676.02161 2307.04785
2447.0 0.000409 1676.21326 2234.68384
2403.0 0.000416 1676.40405 2169.65405
2333.0 0.000429 1676.59534 2111.90186
2256.0 0.000443 1676.78540 2061.14966
2210.0 0.000452 1676.97571 2016.96570
2100.0 0.000476 1677.16528 1978.81262
2059.0 0.000486 1677.35559 1946.09216
2084.0 0.000480 1677.54456 1918.17896
2017.0 0.000496 1677.73401 1894.45728
1966.0 0.000509 1677.92273 1874.33777
1985.0 0.000504 1678.11108 1857.27625
1975.0 0.000506 1678.29944 1842.78516
1900.0 0.000526 1678.48694 1830.43787
1851.0 0.000540 1678.67432 1819.86853
1913.0 0.000523 1678.86108 1813.43713
1841.0 0.000543 1679.04822 1805.58557
1850.0 0.000541 1679.23450 1798.74231
1779.0 0.000562 1679.42065 1792.74060
1821.0 0.000549 1679.60669 1787.44775
1787.0 0.000560 1679.79175 1782.75818
1780.0 0.000562 1679.97693 1778.58911
1774.0 0.000564 1680.16150 1774.87634
1788.0 0.000559 1680.34595 1771.56860
1748.0 0.000572 1680.52930 1768.62671
1718.0 0.000582 1680.71277 1766.02209
1707.0 0.000586 1680.89600 1763.73108
1745.0 0.000573 1681.07861 1761.74036
1790.0 0.000559 1681.26062 1760.03955
1777.0 0.000563 1681.44238 1757.28870
1756.0 0.000569 1681.62402 1756.18018
1694.0 0.000590 1681.80493 1755.36755
1725.0 0.000580 1681.98499 1754.86292
1806.0 0.000554 1682.16553 1754.68408
1750.0 0.000571 1682.34521 1754.85217
1715.0 0.000583 1682.52417 1755.39075
1744.0 0.000573 1682.70313 1756.32788
1807.0 0.000553 1682.88123 1757.69116
1736.0 0.000576 1683.05896 1759.51001
1844.0 0.000542 1683.23621 1761.81006
1798.0 0.000556 1683.41272 1764.61414
1786.0 0.000560 1683.58923 1767.93884
1746.0 0.000573 1683.76514 1773.20386
1727.0 0.000579 1683.94055 1777.59790
1766.0 0.000566 1684.11511 1782.49683
1691.0 0.000591 1684.28979 1789.72034
1720.0 0.000581 1684.46387 1795.51428
1748.0 0.000572 1684.63672 1801.62256
1854.0 0.000539 1684.80957 1807.92639
1781.0 0.000561 1684.98230 1814.28125
1804.0 0.000554 1685.15405 1820.53406
1784.0 0.000561 1685.32532 1826.55457
1834.0 0.000545 1685.49622 1832.27893
1842.0 0.000543 1685.66614 1837.75623
1813.0 0.000552 1685.83545 1843.18018
1819.0 0.000550 1686.00513 1848.89514
1821.0 0.000549 1686.17371 1855.36914
1941.0 0.000515 1686.34155 1863.13611
1862.0 0.000537 1686.50891 1872.73230
1881.0 0.000532 1686.67566 1884.64551
1899.0 0.000527 1686.84155 1899.26514
1940.0 0.000515 1687.00757 1916.85120
1917.0 0.000522 1687.17249 1937.50623
1934.0 0.000517 1687.33752 1961.14526
2027.0 0.000493 1687.50037 1987.46240
2102.0 0.000476 1687.66406 2015.89124
2121.0 0.000471 1687.82678 2045.17395
2158.0 0.000463 1687.98889 2074.84229
2160.0 0.000463 1688.15027 2102.90479
2212.0 0.000452 1688.31116 2127.43188
2170.0 0.000461 1688.47107 2146.34253
2224.0 0.000450 1688.63098 2157.70728
2275.0 0.000440 1688.78955 2160.14990
2122.0 0.000471 1688.94800 2153.19751
2080.0 0.000481 1689.10583 2137.41992
2171.0 0.000461 1689.26270 2114.27710
2092.0 0.000478 1689.41870 2085.74438
2070.0 0.000483 1689.57471 2053.89136
1970.0 0.000508 1689.72986 2020.58337
1979.0 0.000505 1689.88403 1987.33093
1929.0 0.000518 1690.03772 1955.26611
1884.0 0.000531 1690.19067 1925.18347
1847.0 0.000541 1690.34277 1897.59802
1876.0 0.000533 1690.49438 1872.79663
1834.0 0.000545 1690.64539 1856.78699
1851.0 0.000540 1690.79590 1837.80652
1768.0 0.000566 1690.94507 1821.55786
1817.0 0.000550 1691.09387 1807.83179
1785.0 0.000560 1691.24243 1796.37354
1761.0 0.000568 1691.38953 1786.90210
1792.0 0.000558 1691.53638 1779.13782
1744.0 0.000573 1691.68237 1772.80811
1734.0 0.000577 1691.82751 1767.66663
1823.0 0.000549 1691.97253 1763.49365
1801.0 0.000555 1692.11633 1760.10388
1776.0 0.000563 1692.25928 1757.34045
1794.0 0.000557 1692.40137 1755.07776
1826.0 0.000548 1692.54309 1753.21570
1801.0 0.000555 1692.68408 1751.67529
1819.0 0.000550 1692.82361 1750.39697
1863.0 0.000537 1692.96375 1749.33508
1841.0 0.000543 1693.10205 1748.45251
1876.0 0.000533 1693.23987 1747.72522
1794.0 0.000557 1693.37695 1747.13159
1797.0 0.000556 1693.51318 1746.65649
1773.0 0.000564 1693.64868 1746.28760
1751.0 0.000571 1693.78320 1746.01501
1752.0 0.000571 1693.91736 1745.83154
1771.0 0.000565 1694.05066 1745.73010
1792.0 0.000558 1694.18323 1747.59985
1765.0 0.000567 1694.31470 1747.66943
1813.0 0.000552 1694.44556 1747.80872
1835.0 0.000545 1694.57581 1748.01526
1824.0 0.000548 1694.70422 1748.28577
1868.0 0.000535 1694.83313 1748.62000
1812.0 0.000552 1694.96069 1749.01563
1826.0 0.000548 1695.08728 1749.47119
1776.0 0.000563 1695.21301 1748.07141
1770.0 0.000565 1695.33850 1748.67004
1769.0 0.000565 1695.46301 1749.32776
1734.0 0.000577 1695.58655 1750.04517
1754.0 0.000570 1695.70862 1750.82275
1770.0 0.000565 1695.83081 1751.66199
1772.0 0.000564 1695.95166 1752.56372
1797.0 0.000556 1696.07166 1753.53015
1803.0 0.000555 1696.19104 1754.56213
1823.0 0.000549 1696.30920 1755.66345
1804.0 0.000554 1696.42737 1756.83606
1779.0 0.000562 1696.54419 1758.08301
1756.0 0.000569 1696.65991 1759.40759
1756.0 0.000569 1696.77502 1760.81409
1726.0 0.000579 1696.88904 1762.30713
1777.0 0.000563 1697.00244 1763.89075
1820.0 0.000549 1697.11499 1765.57104
1759.0 0.000569 1697.22620 1767.35327
1747.0 0.000572 1697.33728 1769.24597
1813.0 0.000552 1697.44714 1771.25500
1894.0 0.000528 1697.55579 1773.38892
1838.0 0.000544 1697.66394 1775.65723
1804.0 0.000554 1697.77112 1778.07104
1749.0 0.000572 1697.87695 1780.64050
1719.0 0.000582 1697.98279 1783.38000
1757.0 0.000569 1698.08716 1786.30334
1731.0 0.000578 1698.19116 1789.42761
1701.0 0.000588 1698.29321 1792.77209
1753.0 0.000570 1698.39539 1796.35791
1744.0 0.000573 1698.49646 1800.21240
1760.0 0.000568 1698.59607 1804.36499
1753.0 0.000570 1698.69543 1808.85303
1751.0 0.000571 1698.79407 1813.72070
1793.0 0.000558 1698.89111 1819.02527
1842.0 0.000543 1698.98743 1824.83533
1833.0 0.000546 1699.08264 1831.23926
1879.0 0.000532 1699.17761 1838.35083
1773.0 0.000564 1699.27124 1846.31201
1772.0 0.000564 1699.36389 1855.30347
1752.0 0.000571 1699.45544 1865.55359
1753.0 0.000570 1699.54675 1877.34619
1778.0 0.000562 1699.63635 1891.02893
1816.0 0.000551 1699.72546 1907.02271
1817.0 0.000550 1699.81348 1925.82458
1779.0 0.000562 1699.90063 1948.01074
1850.0 0.000541 1699.98669 1978.29187
1837.0 0.000544 1700.07214 2009.30408
1918.0 0.000521 1700.15637 2045.81226
2002.0 0.000500 1700.23987 2088.57837
2027.0 0.000493 1700.32214 2138.33472
2053.0 0.000487 1700.40393 2195.73657
2131.0 0.000469 1700.48425 2261.30273
2180.0 0.000459 1700.56372 2335.34741
2249.0 0.000445 1700.64233 2417.90820
2383.0 0.000420 1700.71997 2508.65649
2438.0 0.000410 1700.79675 2606.79053
2555.0 0.000391 1700.87244 2710.91040
2697.0 0.000371 1700.94727 2818.86890
2825.0 0.000354 1701.02112 2927.61548
2917.0 0.0003428 1701.09436 3033.46313
3098.0 0.0003228 1701.16602 3130.60620
3120.0 0.0003205 1701.23682 3213.64941
3290.0 0.0003040 1701.30701 3276.75098
3298.0 0.0003032 1701.37610 3314.96387
3247.0 0.0003080 1701.44397 3325.31470
3190.0 0.0003135 1701.51135 3307.58984
3203.0 0.0003122 1701.57727 3264.46997
3079.0 0.0003248 1701.64233 3200.93115
2979.0 0.0003357 1701.70642 3121.11548
2899.0 0.0003449 1701.76990 3035.60498
2857.0 0.0003500 1701.83240 2948.14868
2738.0 0.000365 1701.89343 2863.68921
2628.0 0.000381 1701.95361 2786.22461
2545.0 0.000393 1702.01294 2718.92017
2453.0 0.000408 1702.07153 2664.27368
2426.0 0.000412 1702.12854 2624.25537
2423.0 0.000413 1702.18518 2600.41553
2386.0 0.000419 1702.24036 2593.94385
2374.0 0.000421 1702.29529 2605.69849
2342.0 0.000427 1702.34863 2636.20142
2453.0 0.000408 1702.40100 2685.60913
2587.0 0.000387 1702.45227 2753.65747
2713.0 0.000369 1702.50317 2839.57666
2790.0 0.000358 1702.55273 2941.97974
2876.0 0.0003477 1702.60083 3058.72192
3044.0 0.0003285 1702.64844 3186.72754
3042.0 0.0003287 1702.69470 3321.80884
3269.0 0.0003059 1702.74036 3458.52441
3428.0 0.0002917 1702.78528 3590.16968
3613.0 0.0002768 1702.82861 3708.99829
3671.0 0.0002724 1702.87134 3806.78564
3784.0 0.0002643 1702.91296 3875.72485
3713.0 0.0002693 1702.95374 3909.54907
3712.0 0.0002694 1702.99316 3904.60864
3687.0 0.0002712 1703.03235 3860.60767
3586.0 0.0002789 1703.06921 3780.74072
3468.0 0.0002884 1703.10632 3671.11035
3215.0 0.0003110 1703.14172 3539.57813
3041.0 0.0003288 1703.17700 3394.43237
3023.0 0.0003308 1703.21033 3243.30249
2940.0 0.0003401 1703.24341 3092.52588
2838.0 0.000352 1703.27502 2946.96802
2688.0 0.000372 1703.30579 2810.10205
2535.0 0.000394 1703.33594 2684.21362
2444.0 0.000409 1703.36475 2570.62427
2381.0 0.000420 1703.39197 2469.88379
2246.0 0.000445 1703.41907 2381.94165
2145.0 0.000466 1703.44507 2306.29297
2148.0 0.000466 1703.46960 2242.10254
2089.0 0.000479 1703.49377 2188.32300
1992.0 0.000502 1703.51672 2143.78833
2000.0 0.000500 1703.53845 2107.30322
2027.0 0.000493 1703.55969 2077.70483
2082.0 0.000480 1703.57935 2053.91016
2005.0 0.000499 1703.59875 2034.95239
1994.0 0.000502 1703.61633 2019.99182
2027.0 0.000493 1703.63330 2008.32080
2000.0 0.000500 1703.64954 1999.36035
2051.0 0.000488 1703.66455 1992.64746
2053.0 0.000487 1703.67871 1987.81836
2042.0 0.000490 1703.69165 1984.59851
1985.0 0.000504 1703.70361 1982.78296
1993.0 0.000502 1703.71484 1982.22400
2040.0 0.000490 1703.72461 1982.81836
2002.0 0.000500 1703.73413 1984.50220
1950.0 0.000513 1703.74255 1987.23975
1943.0 0.000515 1703.74915 1991.02087
2031.0 0.000492 1703.75598 1995.85815
2044.0 0.000489 1703.76111 2001.78625
1975.0 0.000506 1703.76550 2008.86255
2014.0 0.000497 1703.76892 2017.17004
1989.0 0.000503 1703.77124 2026.15991
2025.0 0.000494 1703.77295 2037.31543
2057.0 0.000486 1703.77307 2050.16431
2121.0 0.000471 1703.77246 2064.96313
2105.0 0.000475 1703.77136 2082.03979
2046.0 0.000489 1703.76868 2101.81421
2035.0 0.000491 1703.76538 2124.81152
2082.0 0.000480 1703.76111 2151.68750
2095.0 0.000477 1703.75574 2183.24536
2231.0 0.000448 1703.74988 2220.45215
2253.0 0.000444 1703.74292 2264.45410
2210.0 0.000452 1703.73401 2316.57959
2390.0 0.000418 1703.72510 2378.33350
2497.0 0.000400 1703.71509 2451.37622
2585.0 0.000387 1703.70422 2537.48706
2630.0 0.000380 1703.69287 2638.50366
2719.0 0.000368 1703.67957 2756.24829
2962.0 0.0003376 1703.66589 2892.42725
3131.0 0.0003194 1703.65137 3048.51099
3287.0 0.0003042 1703.63525 3225.59985
3596.0 0.0002781 1703.61902 3424.26514
3847.0 0.0002599 1703.60168 3644.36914
4023.0 0.0002486 1703.58301 3884.84888
4217.0 0.0002371 1703.56372 4143.45557
4376.0 0.0002285 1703.54358 4416.43506
4588.0 0.0002180 1703.52197 4698.15771
4791.0 0.0002087 1703.50049 4980.72803
5023.0 0.0001991 1703.47705 5253.73584
5237.0 0.0001909 1703.45300 5504.32422
5439.0 0.0001839 1703.42847 5717.90283
5509.0 0.0001815 1703.40247 5879.69775
5573.0 0.0001794 1703.37573 5977.09229
5515.0 0.0001813 1703.34827 6002.20557
5424.0 0.0001844 1703.31970 5953.82178
5354.0 0.0001868 1703.29016 5837.81055
5348.0 0.0001870 1703.26001 5665.82764
5231.0 0.0001912 1703.22876 5452.85010
5058.0 0.0001977 1703.19678 5214.55859
4946.0 0.0002022 1703.16382 4965.34570
4691.0 0.0002132 1703.13013 4717.25928
4434.0 0.0002255 1703.09521 4479.71680
4221.0 0.0002369 1703.05969 4259.68018
4168.0 0.0002399 1703.02307 4062.01758
4010.0 0.0002494 1702.98584 3889.87622
3745.0 0.0002670 1702.94763 3744.99536
3640.0 0.0002747 1702.90845 3627.95044
3620.0 0.0002762 1702.86841 3538.33423
3548.0 0.0002818 1702.82727 3474.88599
3544.0 0.0002822 1702.78564 3435.57959
3587.0 0.0002788 1702.74316 3417.67456
3463.0 0.0002888 1702.69995 3417.73901
3310.0 0.0003021 1702.65588 3431.66626
3374.0 0.0002964 1702.61047 3454.73267
3456.0 0.0002894 1702.56445 3481.76196
3414.0 0.0002929 1702.51758 3507.47192
3387.0 0.0002952 1702.46985 3527.02100
3322.0 0.0003010 1702.42151 3536.69629
3305.0 0.0003026 1702.37256 3534.55420
3354.0 0.0002982 1702.32202 3520.76489
3331.0 0.0003002 1702.27148 3497.51367
3344.0 0.0002990 1702.21936 3468.48535
3345.0 0.0002990 1702.16650 3438.12573
3172.0 0.0003153 1702.11316 3410.93970
3125.0 0.0003200 1702.05908 3390.99194
3151.0 0.0003174 1702.00415 3381.66943
3155.0 0.0003170 1701.94824 3385.65820
3257.0 0.0003070 1701.89172 3405.05371
3380.0 0.0002959 1701.83435 3441.49438
3290.0 0.0003040 1701.77588 3496.22339
3372.0 0.0002966 1701.71716 3569.99878
3518.0 0.0002843 1701.65735 3662.84839
3668.0 0.0002726 1701.59619 3773.75488
3731.0 0.0002680 1701.53503 3900.29858
3960.0 0.0002525 1701.47302 4038.34131
4060.0 0.0002463 1701.41040 4181.74609
4184.0 0.0002390 1701.34607 4322.22266
4232.0 0.0002363 1701.28186 4449.46680
4383.0 0.0002282 1701.21667 4551.83203
4496.0 0.0002224 1701.15063 4617.72656
4558.0 0.0002194 1701.08386 4637.65479
4504.0 0.0002220 1701.01660 4606.33203
4496.0 0.0002224 1700.94873 4524.02051
4313.0 0.0002319 1700.87952 4396.40674
4136.0 0.0002418 1700.80957 4233.05518
4045.0 0.0002472 1700.73950 4045.19922
3749.0 0.0002667 1700.66846 3843.77441
3575.0 0.0002797 1700.59692 3638.20142
3436.0 0.0002910 1700.52368 3435.93286
3146.0 0.0003179 1700.45056 3242.48853
3032.0 0.0003298 1700.37683 3061.68359
2793.0 0.000358 1700.30200 2895.96631
2580.0 0.000388 1700.22656 2746.65308
2520.0 0.000397 1700.15063 2614.16504
2415.0 0.000414 1700.07361 2498.21704
2399.0 0.000417 1699.99622 2397.98584
2344.0 0.000427 1699.91809 2312.26831
2241.0 0.000446 1699.83972 2239.61719
2108.0 0.000474 1699.75952 2178.46802
2058.0 0.000486 1699.67981 2124.56616
2035.0 0.000491 1699.59912 2081.77075
1957.0 0.000511 1699.51746 2045.97656
1951.0 0.000513 1699.43530 2015.93787
1927.0 0.000519 1699.35254 1990.57947
1920.0 0.000521 1699.26929 1968.99695
1891.0 0.000529 1699.18506 1950.44751
1897.0 0.000527 1699.10046 1934.33130
1939.0 0.000516 1699.01477 1920.17407
1848.0 0.000541 1698.92883 1907.60413
1822.0 0.000549 1698.84253 1896.33423
1863.0 0.000537 1698.75537 1886.14001
1828.0 0.000547 1698.66736 1876.85168
1820.0 0.000549 1698.57922 1868.33459
1780.0 0.000562 1698.49011 1860.48474
1794.0 0.000557 1698.40063 1853.21851
1770.0 0.000565 1698.31030 1846.46887
1791.0 0.000558 1698.21948 1840.18042
1774.0 0.000564 1698.12842 1834.30664
1767.0 0.000566 1698.03625 1828.80872
1756.0 0.000569 1697.94373 1823.65100
1750.0 0.000571 1697.85034 1818.80457
1732.0 0.000577 1697.75732 1814.24243
1715.0 0.000583 1697.66296 1809.94128
1765.0 0.000567 1697.56848 1805.88135
1724.0 0.000580 1697.47290 1802.04199
1691.0 0.000591 1697.37756 1798.70190
1707.0 0.000586 1697.28101 1795.26123
1728.0 0.000579 1697.18408 1790.59070
1698.0 0.000589 1697.08655 1787.50391
1753.0 0.000570 1696.98901 1782.70862
1751.0 0.000571 1696.89063 1779.93542
1758.0 0.000569 1696.79126 1777.29309
1785.0 0.000560 1696.69202 1774.77344
1799.0 0.000556 1696.59253 1772.36670
1764.0 0.000567 1696.49133 1770.06689
1789.0 0.000559 1696.39087 1767.86719
1783.0 0.000561 1696.28943 1765.76099
1722.0 0.000581 1696.18811 1763.74316
1730.0 0.000578 1696.08521 1761.80762
1710.0 0.000585 1695.98230 1759.94958
1695.0 0.000590 1695.87915 1758.16553
1840.0 0.000543 1695.77588 1756.45020
1799.0 0.000556 1695.67188 1754.79980
1772.0 0.000564 1695.56726 1753.21155
1702.0 0.000588 1695.46191 1751.68066
1724.0 0.000580 1695.35657 1750.20544
1801.0 0.000555 1695.25085 1748.78284
1826.0 0.000548 1695.14441 1747.40930
1833.0 0.000546 1695.03772 1746.08252
1807.0 0.000553 1694.93103 1744.80042
1815.0 0.000551 1694.82336 1743.56091
1893.0 0.000528 1694.71558 1742.36096
1927.0 0.000519 1694.60706 1741.19946
1933.0 0.000517 1694.49890 1740.07507
1992.0 0.000502 1694.39001 1738.98511
2039.0 0.000490 1694.28040 1737.92810
1950.0 0.000513 1694.17078 1736.90234
1957.0 0.000511 1694.06055 1735.90698
1962.0 0.000510 1693.95020 1734.94080
1968.0 0.000508 1693.83972 1734.00256
2035.0 0.000491 1693.72839 1733.09009
2029.0 0.000493 1693.61694 1732.20276
2175.0 0.000460 1693.50525 1731.34009
2085.0 0.000480 1693.39307 1730.49976
1978.0 0.000506 1693.28088 1729.68176
2047.0 0.000489 1693.16870 1728.88550
2018.0 0.000496 1693.05530 1728.10974
1997.0 0.000501 1692.94165 1727.35327
1963.0 0.000509 1692.82788 1726.61560
1923.0 0.000520 1692.71411 1725.89624
1867.0 0.000536 1692.60022 1725.19421
1888.0 0.000530 1692.48596 1724.50879
1830.0 0.000546 1692.37122 1723.83997
1855.0 0.000539 1692.25574 1723.18640
1874.0 0.000534 1692.14063 1722.54797
1841.0 0.000543 1692.02563 1721.92358
1849.0 0.000541 1691.91016 1721.31348
1847.0 0.000541 1691.79419 1720.71692
1793.0 0.000558 1691.67798 1720.13293
1730.0 0.000578 1691.56165 1719.56165
1749.0 0.000572 1691.44446 1719.00342
1800.0 0.000556 1691.32837 1718.45569
1784.0 0.000561 1691.21143 1717.91980
1743.0 0.000574 1691.09412 1717.39514
1727.0 0.000579 1690.97668 1718.31641
1736.0 0.000576 1690.85950 1717.82751
1739.0 0.000575 1690.74194 1717.50134
1715.0 0.000583 1690.62390 1717.03394
1707.0 0.000586 1690.50562 1716.57678
1804.0 0.000554 1690.38757 1716.12952
1776.0 0.000563 1690.26929 1715.69153
1781.0 0.000561 1690.15100 1715.26257
1733.0 0.000577 1690.03223 1714.84241
1735.0 0.000576 1689.91321 1714.43115
1702.0 0.000588 1689.79431 1714.02808
1741.0 0.000574 1689.67554 1713.63367
1703.0 0.000587 1689.55640 1713.24792
1736.0 0.000576 1689.43738 1712.87036
1760.0 0.000568 1689.31775 1712.50171
1813.0 0.000552 1689.19885 1712.14026
1784.0 0.000561 1689.07910 1711.78748
1738.0 0.000575 1688.95996 1711.44336
1772.0 0.000564 1688.83972 1711.10657
1786.0 0.000560 1688.72021 1710.77832
1733.0 0.000577 1688.60059 1710.45911
1695.0 0.000590 1688.48059 1710.14758
1715.0 0.000583 1688.36108 1709.84448
1707.0 0.000586 1688.24097 1709.54968
1677.0 0.000596 1688.12109 1709.26294
1676.0 0.000597 1688.00122 1708.98376
1702.0 0.000588 1687.88086 1708.71289
1706.0 0.000586 1687.76135 1708.44861
1712.0 0.000584 1687.64136 1708.19165
1655.0 0.000604 1687.52148 1707.94043
1634.0 0.000612 1687.40173 1707.69507
1671.0 0.000598 1687.28137 1707.45325
1709.0 0.000585 1687.16162 1707.21436
1757.0 0.000569 1687.04163 1706.97717
1727.0 0.000579 1686.92200 1706.74060
1684.0 0.000594 1686.80212 1706.50452
1693.0 0.000591 1686.68262 1706.26770
1643.0 0.000609 1686.56274 1706.03113
1676.0 0.000597 1686.44324 1705.79504
1674.0 0.000597 1686.32361 1705.56128
1685.0 0.000593 1686.20422 1705.33167
1643.0 0.000609 1686.08496 1705.10583
1700.0 0.000588 1685.96558 1704.88635
1800.0 0.000556 1685.84607 1704.67322
1732.0 0.000577 1685.72705 1698.54871
1677.0 0.000596 1685.60840 1698.41174
1608.0 0.000622 1685.48914 1698.28088
1653.0 0.000605 1685.37036 1698.15906
1657.0 0.000604 1685.25195 1698.04492
1696.0 0.000590 1685.13354 1697.93958
1689.0 0.000592 1685.01514 1697.84253
1700.0 0.000588 1684.89709 1697.75488
1718.0 0.000582 1684.77869 1697.67603
1709.0 0.000585 1684.66064 1697.60620
1764.0 0.000567 1684.54321 1697.54614
1766.0 0.000566 1684.42590 1697.49646
1724.0 0.000580 1684.30835 1697.45642
1708.0 0.000585 1684.19141 1697.42676
1698.0 0.000589 1684.07422 1697.40820
1664.0 0.000601 1683.95764 1697.40100
1758.0 0.000569 1683.84119 1697.40576
1725.0 0.000580 1683.72461 1697.42297
1764.0 0.000567 1683.60876 1697.45471
1769.0 0.000565 1683.49292 1697.49963
1748.0 0.000572 1683.37720 1700.06335
1808.0 0.000553 1683.26172 1700.17090
1825.0 0.000548 1683.14636 1700.29651
1772.0 0.000564 1683.03186 1700.44214
1742.0 0.000574 1682.91711 1700.60925
1730.0 0.000578 1682.80286 1694.97913
1774.0 0.000564 1682.68860 1695.25830
1791.0 0.000558 1682.57495 1695.56445
1774.0 0.000564 1682.46130 1695.90112
1820.0 0.000549 1682.34814 1696.27063
1814.0 0.000551 1682.23511 1696.67847
1814.0 0.000551 1682.12317 1697.12927
1794.0 0.000557 1682.01050 1697.63049
1718.0 0.000582 1681.89880 1698.18982
1743.0 0.000574 1681.78723 1698.81836
1710.0 0.000585 1681.67578 1699.53064
1726.0 0.000579 1681.56470 1700.34448
1700.0 0.000588 1681.45398 1701.28308
1710.0 0.000585 1681.34412 1702.37744
1708.0 0.000585 1681.23425 1703.66431
1789.0 0.000559 1681.12488 1705.19397
1744.0 0.000573 1681.01587 1707.02356
1716.0 0.000583 1680.90735 1709.22656
1716.0 0.000583 1680.79895 1711.88770
1784.0 0.000561 1680.69092 1715.10376
1753.0 0.000570 1680.58386 1718.98511
1750.0 0.000571 1680.47607 1723.64709
1759.0 0.000569 1680.36963 1729.21143
1737.0 0.000576 1680.26318 1735.79395
1782.0 0.000561 1680.15735 1743.49841
1705.0 0.000587 1680.05212 1752.40698
1731.0 0.000578 1679.94714 1762.56665
1818.0 0.000550 1679.84241 1773.97852
1773.0 0.000564 1679.73889 1786.58142
1736.0 0.000576 1679.63501 1800.24438
1799.0 0.000556 1679.53235 1814.74304
1838.0 0.000544 1679.42920 1829.75110
1829.0 0.000547 1679.32727 1844.81812
1962.0 0.000510 1679.22510 1859.35620
1905.0 0.000525 1679.12439 1872.64026
1922.0 0.000520 1679.02344 1883.84290
1906.0 0.000525 1678.92346 1892.11597
1933.0 0.000517 1678.82385 1896.73022
1908.0 0.000524 1678.72473 1897.23413
1892.0 0.000529 1678.62622 1893.57117
1885.0 0.000531 1678.52820 1886.10339
1899.0 0.000527 1678.43042 1875.51660
1931.0 0.000518 1678.33362 1862.66650
1932.0 0.000518 1678.23718 1848.41809
1925.0 0.000519 1678.14160 1833.54443
1870.0 0.000535 1678.04553 1818.67664
1827.0 0.000547 1677.95105 1804.29688
1844.0 0.000542 1677.85730 1790.75610
1879.0 0.000532 1677.76306 1778.28918
1874.0 0.000534 1677.66980 1767.03821
1931.0 0.000518 1677.57788 1757.06946
1843.0 0.000543 1677.48608 1748.38672
1908.0 0.000524 1677.39514 1740.94556
1870.0 0.000535 1677.30457 1734.66638
1905.0 0.000525 1677.21448 1729.44604
1819.0 0.000550 1677.12488 1725.16699
1825.0 0.000548 1677.03674 1721.70801
1859.0 0.000538 1676.94849 1718.94983
1802.0 0.000555 1676.86121 1716.78162
1792.0 0.000558 1676.77429 1715.10364
1798.0 0.000556 1676.68848 1713.82983
1858.0 0.000538 1676.60254 1721.32361
1792.0 0.000558 1676.51770 1720.75476
1783.0 0.000561 1676.43335 1720.41187
1753.0 0.000570 1676.35059 1720.25781
1740.0 0.000575 1676.26770 1720.26477
1801.0 0.000555 1676.18567 1720.41284
1805.0 0.000554 1676.10425 1720.68823
1774.0 0.000564 1676.02332 1721.08179
1723.0 0.000580 1675.94360 1721.63977
1708.0 0.000585 1675.86487 1722.25818
1669.0 0.000599 1675.78625 1722.99048
1690.0 0.000592 1675.70813 1723.84314
1706.0 0.000586 1675.63074 1724.82336
1708.0 0.000585 1675.55481 1725.94214
1745.0 0.000573 1675.47949 1727.21655
1701.0 0.000588 1675.40454 1728.66443
1690.0 0.000592 1675.33032 1730.30896
1703.0 0.000587 1675.25732 1732.17712
1748.0 0.000572 1675.18469 1734.29993
1686.0 0.000593 1675.11279 1736.71143
1768.0 0.000566 1675.04163 1739.44897
1802.0 0.000555 1674.97144 1742.55188
1735.0 0.000576 1674.90234 1746.05994
1672.0 0.000598 1674.83374 1750.01038
1689.0 0.000592 1674.76587 1754.43872
1676.0 0.000597 1674.69885 1759.37378
1682.0 0.000595 1674.63269 1764.83545
1668.0 0.000600 1674.56702 1770.83374
1685.0 0.000593 1674.50281 1777.36340
1739.0 0.000575 1674.43896 1784.39966
1861.0 0.000537 1674.37585 1791.89624
1834.0 0.000545 1674.31360 1799.77759
1789.0 0.000559 1674.25256 1807.93457
1791.0 0.000558 1674.19238 1816.22083
1776.0 0.000563 1674.13306 1824.45032
1731.0 0.000578 1674.07410 1832.41162
1785.0 0.000560 1674.01611 1839.88892
1748.0 0.000572 1673.95923 1846.70300
1784.0 0.000561 1673.90344 1852.76221
1788.0 0.000559 1673.84790 1858.10400
1814.0 0.000551 1673.79346 1862.92139
1787.0 0.000560 1673.74023 1867.55176
1895.0 0.000528 1673.68750 1872.44312
1926.0 0.000519 1673.63586 1878.11035
1875.0 0.000533 1673.58508 1885.09326
1850.0 0.000541 1673.53552 1893.93286
1884.0 0.000531 1673.48669 1905.15515
1899.0 0.000527 1673.43835 1919.26440
1912.0 0.000523 1673.39148 1936.73840
1882.0 0.000531 1673.34546 1958.02246
1950.0 0.000513 1673.29993 1983.51367
1916.0 0.000522 1673.25562 2013.54846
1998.0 0.000501 1673.21252 2048.38135
2114.0 0.000473 1673.16992 2088.15674
2166.0 0.000462 1673.12854 2132.88696
2155.0 0.000464 1673.08801 2182.41357
2265.0 0.000442 1673.04858 2236.36572
2373.0 0.000421 1673.00989 2294.11426
2386.0 0.000419 1672.97217 2354.70728
2465.0 0.000406 1672.93579 2416.79785
2567.0 0.000390 1672.90039 2478.57935
2611.0 0.000383 1672.86487 2537.74805
2790.0 0.000358 1672.83130 2591.54492
2756.0 0.000363 1672.79858 2636.92358
2852.0 0.0003506 1672.76697 2670.88770
2855.0 0.0003503 1672.73621 2690.95605
2825.0 0.000354 1672.70654 2695.65625
2849.0 0.000351 1672.67822 2684.86011
2907.0 0.0003440 1672.65027 2659.82764
2779.0 0.000360 1672.62366 2622.93530
2715.0 0.000368 1672.59790 2577.20215
2742.0 0.000365 1672.57300 2525.80420
2669.0 0.000375 1672.54993 2471.69971
2643.0 0.000378 1672.52734 2417.43286
2436.0 0.000411 1672.50586 2365.07471
2433.0 0.000411 1672.48523 2316.26074
2411.0 0.000415 1672.46521 2272.26025
2375.0 0.000421 1672.44702 2234.05859
2268.0 0.000441 1672.42969 2202.42261
2251.0 0.000444 1672.41357 2177.95776
2159.0 0.000463 1672.39807 2161.14551
2042.0 0.000490 1672.38403 2152.37622
2088.0 0.000479 1672.37097 2151.96240
2105.0 0.000475 1672.35913 2160.14819
2070.0 0.000483 1672.34753 2177.10962
2119.0 0.000472 1672.33777 2202.94116
2178.0 0.000459 1672.32910 2237.64136
2236.0 0.000447 1672.32166 2281.07935
2367.0 0.000422 1672.31445 2332.96631
2391.0 0.000418 1672.30884 2392.80444
2513.0 0.000398 1672.30444 2459.83154
2595.0 0.000385 1672.30115 2532.94873
2596.0 0.000385 1672.29895 2610.63208
2798.0 0.000357 1672.29773 2690.82983
2800.0 0.000357 1672.29736 2770.86279
2838.0 0.000352 1672.29858 2847.36621
2885.0 0.0003466 1672.30115 2916.34863
2993.0 0.0003341 1672.30408 2973.42798
2947.0 0.0003393 1672.30847 3014.32153
3003.0 0.0003330 1672.31372 3035.52368
3031.0 0.0003299 1672.32043 3035.00732
3011.0 0.0003321 1672.32788 3012.68872
2981.0 0.0003355 1672.33728 2970.44629
3001.0 0.0003332 1672.34692 2911.68115
2940.0 0.0003401 1672.35840 2840.60767
2816.0 0.000355 1672.37073 2761.55664
2753.0 0.000363 1672.38452 2678.46240
2733.0 0.000366 1672.39856 2594.60425
2622.0 0.000381 1672.41455 2512.54395
2504.0 0.000399 1672.43152 2434.17944
2545.0 0.000393 1672.44946 2360.84473
2493.0 0.000401 1672.46851 2293.40869
2396.0 0.000417 1672.48889 2232.36865
2231.0 0.000448 1672.51050 2177.92310
2155.0 0.000464 1672.53308 2130.03369
2111.0 0.000474 1672.55725 2088.47974
2116.0 0.000473 1672.58215 2052.90356
2151.0 0.000465 1672.60828 2022.85364
2061.0 0.000485 1672.63550 1997.82422
2068.0 0.000484 1672.66431 1977.28577
2078.0 0.000481 1672.69373 1960.71252
2012.0 0.000497 1672.72473 1947.60583
1963.0 0.000509 1672.75635 1937.50574
1977.0 0.000506 1672.78955 1930.00635
2024.0 0.000494 1672.82434 1924.75476
1966.0 0.000509 1672.85986 1921.45667
2032.0 0.000492 1672.89648 1919.87488
1935.0 0.000517 1672.93469 1919.82300
1996.0 0.000501 1672.97400 1921.16357
1923.0 0.000520 1673.01489 1923.80493
1915.0 0.000522 1673.05603 1927.69421
1977.0 0.000506 1673.09851 1932.81702
1895.0 0.000528 1673.14258 1939.19702
1924.0 0.000520 1673.18774 1946.89685
1984.0 0.000504 1673.23413 1956.02283
2013.0 0.000497 1673.28174 1966.73181
1960.0 0.000510 1673.33044 1979.24426
1948.0 0.000513 1673.38062 1993.85620
1953.0 0.000512 1673.43164 2010.96179
1989.0 0.000503 1673.48425 2031.07751
2014.0 0.000497 1673.53809 2054.86523
2108.0 0.000474 1673.59302 2083.16724
2096.0 0.000477 1673.64868 2117.03271
2171.0 0.000461 1673.70618 2157.74658
2152.0 0.000465 1673.76453 2206.85010
2217.0 0.000451 1673.82422 2266.15161
2292.0 0.000436 1673.88550 2337.71729
2302.0 0.000434 1673.94739 2423.83984
2404.0 0.000416 1674.01074 2526.98779
2518.0 0.000397 1674.07568 2649.69312
2705.0 0.000370 1674.14124 2794.45972
2822.0 0.000354 1674.20862 2963.58911
2928.0 0.0003415 1674.27649 3158.99951
3120.0 0.0003205 1674.34595 3382.01929
3412.0 0.0002931 1674.41699 3633.15967
3701.0 0.0002702 1674.48877 3911.86353
3912.0 0.0002556 1674.56250 4219.35400
4138.0 0.0002417 1674.63623 4545.89697
4569.0 0.0002189 1674.71216 4889.01904
4898.0 0.0002042 1674.78931 5240.75098
5356.0 0.0001867 1674.86755 5590.29199
5682.0 0.0001760 1674.94666 5923.75830
5881.0 0.0001700 1675.02686 6224.36963
6085.0 0.0001643 1675.10889 6473.45654
6172.0 0.0001620 1675.19189 6652.57373
6364.0 0.0001571 1675.27612 6746.57373
6458.0 0.0001548 1675.36182 6746.59326
6359.0 0.0001573 1675.44873 6653.11279
6322.0 0.0001582 1675.53638 6474.56445
6021.0 0.0001661 1675.62573 6226.14307
5688.0 0.0001758 1675.71631 5926.31250
5390.0 0.0001855 1675.80823 5593.69385
5041.0 0.0001984 1675.90112 5244.95068
4564.0 0.0002191 1675.99512 4893.80957
4257.0 0.0002349 1676.08997 4550.92822
4106.0 0.0002435 1676.18726 4224.18506
3787.0 0.0002641 1676.28479 3919.10034
3561.0 0.0002808 1676.38379 3639.24194
3317.0 0.0003015 1676.48401 3386.56665
3067.0 0.0003261 1676.58569 3161.70801
2884.0 0.0003467 1676.68848 2964.23120
2752.0 0.000363 1676.79236 2792.87280
2666.0 0.000375 1676.89807 2645.76782
2546.0 0.000393 1677.00452 2520.65454
2471.0 0.000405 1677.11206 2415.06299
2333.0 0.000429 1677.22058 2326.47192
2271.0 0.000440 1677.33093 2252.43018
2296.0 0.000436 1677.44275 2190.64917
2252.0 0.000444 1677.55493 2139.06201
2135.0 0.000468 1677.66943 2095.85596
2113.0 0.000473 1677.78418 2059.47778
2023.0 0.000494 1677.90063 2028.62756
1970.0 0.000508 1678.01758 2002.23755
1954.0 0.000512 1678.13660 1979.44434
1889.0 0.000529 1678.25635 1959.56152
1904.0 0.000525 1678.37781 1942.04565
2005.0 0.000499 1678.50037 1926.47363
1955.0 0.000512 1678.62415 1912.51428
1851.0 0.000540 1678.74890 1899.90991
1806.0 0.000554 1678.87476 1888.45813
1852.0 0.000540 1679.00195 1877.99988
1788.0 0.000559 1679.13025 1868.40833
1861.0 0.000537 1679.26013 1859.57898
1808.0 0.000553 1679.39111 1851.42932
1743.0 0.000574 1679.52307 1843.88672
1806.0 0.000554 1679.65649 1836.89185
1740.0 0.000575 1679.79114 1830.39282
1672.0 0.000598 1679.92688 1824.34692
1727.0 0.000579 1680.06360 1818.71228
1706.0 0.000586 1680.20190 1813.45471
1697.0 0.000589 1680.34143 1808.54395
1746.0 0.000573 1680.48157 1803.95178
1768.0 0.000566 1680.62378 1799.65393
1748.0 0.000572 1680.76636 1795.62756
1689.0 0.000592 1680.91052 1791.85242
1750.0 0.000571 1681.05615 1788.31030
1750.0 0.000571 1681.20264 1784.98401
1677.0 0.000596 1681.35046 1781.85950
1680.0 0.000595 1681.49939 1778.92224
1657.0 0.000604 1681.64941 1776.15979
1685.0 0.000593 1681.80054 1773.56055
1749.0 0.000572 1681.95325 1771.11511
1819.0 0.000550 1682.10645 1768.81274
1745.0 0.000573 1682.26111 1766.64453
1712.0 0.000584 1682.41748 1764.60339
1758.0 0.000569 1682.57458 1762.68091
1749.0 0.000572 1682.73279 1760.87085
1677.0 0.000596 1682.89221 1759.16772
1712.0 0.000584 1683.05298 1757.56396
1696.0 0.000590 1683.21472 1756.05566
1728.0 0.000579 1683.37744 1754.63831
1677.0 0.000596 1683.54163 1753.32178
1700.0 0.000588 1683.70715 1752.07129
1741.0 0.000574 1683.87329 1750.89868
1750.0 0.000571 1684.04102 1749.80139
1730.0 0.000578 1684.20984 1750.10254
1818.0 0.000550 1684.37964 1749.16077
1793.0 0.000558 1684.55042 1748.28442
1773.0 0.000564 1684.72266 1747.47083
1763.0 0.000567 1684.89575 1746.71973
1774.0 0.000564 1685.06995 1746.02722
1830.0 0.000546 1685.24561 1745.39221
1814.0 0.000551 1685.42249 1744.81274
1863.0 0.000537 1685.60010 1744.28748
1926.0 0.000519 1685.77893 1743.81433
1915.0 0.000522 1685.95886 1743.39417
1894.0 0.000528 1686.14001 1743.02368
1858.0 0.000538 1686.32214 1742.70288
1836.0 0.000545 1686.50537 1742.43176
1824.0 0.000548 1686.69006 1742.20911
1847.0 0.000541 1686.87573 1742.03430
1853.0 0.000540 1687.06201 1743.71082
1795.0 0.000557 1687.24963 1743.64966
1848.0 0.000541 1687.43835 1743.63672
1841.0 0.000543 1687.62793 1743.67151
1799.0 0.000556 1687.81921 1743.75464
1852.0 0.000540 1688.01111 1743.88623
1845.0 0.000542 1688.20435 1744.06763
1859.0 0.000538 1688.39832 1744.29810
1826.0 0.000548 1688.59351 1744.58044
1863.0 0.000537 1688.78992 1744.91492
1816.0 0.000551 1688.98718 1743.83521
1772.0 0.000564 1689.18567 1744.29333
1800.0 0.000556 1689.38525 1744.80823
1834.0 0.000545 1689.58533 1745.38135
1794.0 0.000557 1689.78711 1743.51135
1749.0 0.000572 1689.98938 1744.23767
1725.0 0.000580 1690.19373 1745.02954
1756.0 0.000569 1690.39795 1745.88989
1766.0 0.000566 1690.60352 1746.82080
1778.0 0.000562 1690.81042 1747.82800
1724.0 0.000580 1691.01794 1748.91467
1725.0 0.000580 1691.22644 1750.08557
1783.0 0.000561 1691.43628 1751.34619
1771.0 0.000565 1691.64697 1752.70251
1739.0 0.000575 1691.85864 1754.16064
1659.0 0.000603 1692.07153 1755.72742
1734.0 0.000577 1692.28491 1757.41125
1756.0 0.000569 1692.49976 1759.22119
1725.0 0.000580 1692.71558 1761.16650
1749.0 0.000572 1692.93213 1763.25867
1694.0 0.000590 1693.14966 1765.51111
1706.0 0.000586 1693.36853 1767.93823
1692.0 0.000591 1693.58740 1770.79907
1709.0 0.000585 1693.80823 1773.63062
1731.0 0.000578 1694.02979 1776.69641
1795.0 0.000557 1694.25220 1780.02417
1792.0 0.000558 1694.47571 1783.64795
1753.0 0.000570 1694.70007 1787.60986
1719.0 0.000582 1694.92529 1791.96216
1703.0 0.000587 1695.15137 1796.77063
1749.0 0.000572 1695.37830 1802.11938
1771.0 0.000565 1695.60645 1808.11499
1825.0 0.000548 1695.83533 1814.89209
1801.0 0.000555 1696.06494 1822.61951
1818.0 0.000550 1696.29590 1831.51086
1759.0 0.000569 1696.52747 1841.82922
1745.0 0.000573 1696.75977 1853.89453
1783.0 0.000561 1696.99316 1868.09277
1776.0 0.000563 1697.22717 1885.91821
1797.0 0.000556 1697.46289 1905.82837
1874.0 0.000534 1697.69897 1929.44250
1889.0 0.000529 1697.93579 1957.41064
1936.0 0.000517 1698.17371 1990.42456
1918.0 0.000521 1698.41223 2029.19690
1947.0 0.000514 1698.65137 2081.87988
2032.0 0.000492 1698.89209 2134.29077
2094.0 0.000478 1699.13318 2194.35938
2215.0 0.000451 1699.37488 2262.48706
2285.0 0.000438 1699.61780 2338.86865
2283.0 0.000438 1699.86169 2423.42969
2431.0 0.000411 1700.10583 2515.75537
2555.0 0.000391 1700.35107 2615.01587
2643.0 0.000378 1700.59741 2719.86743
2682.0 0.000373 1700.84436 2828.34399
2723.0 0.000367 1701.09204 2937.73877
2850.0 0.000351 1701.34058 3044.50659
3005.0 0.0003328 1701.58972 3144.22949
3011.0 0.0003321 1701.83984 3231.76660
3130.0 0.0003195 1702.09045 3301.64697
3223.0 0.0003103 1702.34229 3348.77222
3178.0 0.0003147 1702.59460 3369.30029
3123.0 0.0003202 1702.84729 3361.46655
3085.0 0.0003241 1703.10144 3325.99927
3126.0 0.0003199 1703.35608 3265.95142
3042.0 0.0003287 1703.61145 3186.02197
2870.0 0.0003484 1703.86731 3091.64380
2894.0 0.0003455 1704.12427 2988.18066
2763.0 0.000362 1704.38171 2880.39600
2671.0 0.000374 1704.63977 2772.20508
2552.0 0.000392 1704.89880 2666.65527
2486.0 0.000402 1705.15808 2557.56934
2458.0 0.000407 1705.41919 2463.49780
2393.0 0.000418 1705.68005 2376.93213
2268.0 0.000441 1705.94141 2298.44604
2229.0 0.000449 1706.20361 2228.24121
2161.0 0.000463 1706.46667 2166.22070
2133.0 0.000469 1706.73010 2112.05933
2044.0 0.000489 1706.99500 2065.25244
1986.0 0.000504 1707.25989 2025.12695
2026.0 0.000494 1707.52527 1991.09363
2047.0 0.000489 1707.79150 1962.38147
1969.0 0.000508 1708.05847 1938.27502
1923.0 0.000520 1708.32642 1918.09741
1966.0 0.000509 1708.59387 1901.22803
1990.0 0.000503 1708.86316 1887.11511
1889.0 0.000529 1709.13232 1875.28064
1850.0 0.000541 1709.40198 1865.32129
1901.0 0.000526 1709.67249 1856.90332
1882.0 0.000531 1709.94385 1849.75317
1894.0 0.000528 1710.21558 1843.65002
1873.0 0.000534 1710.48779 1838.41895
1897.0 0.000527 1710.76025 1834.05823
1844.0 0.000542 1711.03394 1830.18591
1872.0 0.000534 1711.30762 1826.85156
1929.0 0.000518 1711.58215 1823.98914
1931.0 0.000518 1711.85718 1821.54541
1833.0 0.000546 1712.13257 1819.47998
1823.0 0.000549 1712.40857 1817.75928
1826.0 0.000548 1712.68506 1816.35938
1911.0 0.000523 1712.96265 1815.25903
1915.0 0.000522 1713.23987 1814.44202
1978.0 0.000506 1713.51807 1813.89758
1880.0 0.000532 1713.79663 1813.61572
1833.0 0.000546 1714.07593 1813.59143
1808.0 0.000553 1714.35522 1813.82349
1826.0 0.000548 1714.63513 1814.31213
1802.0 0.000555 1714.91565 1815.06433
1873.0 0.000534 1715.19666 1816.09033
1886.0 0.000530 1715.47766 1817.40698
1822.0 0.000549 1715.75977 1825.79553
1823.0 0.000549 1716.04199 1827.84607
1840.0 0.000543 1716.32410 1830.29236
1871.0 0.000534 1716.60706 1833.19629
1915.0 0.000522 1716.89087 1836.63562
1890.0 0.000529 1717.17480 1840.71191
1919.0 0.000521 1717.45850 1845.55090
1875.0 0.000533 1717.74341 1851.31128
1952.0 0.000512 1718.02844 1858.18140
1907.0 0.000524 1718.31384 1866.38489
1979.0 0.000505 1718.59985 1876.99829
1973.0 0.000507 1718.88550 1888.69287
1977.0 0.000506 1719.17224 1902.59607
1995.0 0.000501 1719.45886 1919.05005
1961.0 0.000510 1719.74622 1938.40295
2019.0 0.000495 1720.03357 1960.99255
2061.0 0.000485 1720.32129 1987.12561
2100.0 0.000476 1720.60950 2017.05457
2092.0 0.000478 1720.89783 2050.94873
2140.0 0.000467 1721.18677 2088.86597
2116.0 0.000473 1721.47534 2130.71826
2249.0 0.000445 1721.76526 2176.24561
2324.0 0.000430 1722.05493 2224.96387
2401.0 0.000416 1722.34473 2276.13135
2455.0 0.000407 1722.63513 2328.69189
2359.0 0.000424 1722.92517 2381.22119
2515.0 0.000398 1723.21582 2431.89209
2627.0 0.000381 1723.50647 2478.48364
2698.0 0.000371 1723.79773 2518.48853
2725.0 0.000367 1724.08875 2549.35229
2711.0 0.000369 1724.38037 2569.31274
2699.0 0.000371 1724.67212 2575.99097
2713.0 0.000369 1724.96411 2569.47388
2721.0 0.000368 1725.25610 2550.58350
2606.0 0.000384 1725.54858 2521.14111
2595.0 0.000385 1725.84094 2483.57690
2602.0 0.000384 1726.13354 2440.50708
2634.0 0.000380 1726.42700 2394.39258
2655.0 0.000377 1726.71985 2347.35400
2481.0 0.000403 1727.01306 2301.10669
2382.0 0.000420 1727.30627 2256.97095
2363.0 0.000423 1727.59949 2215.92236
2371.0 0.000422 1727.89343 2178.64502
2320.0 0.000431 1728.18713 2145.58057
2346.0 0.000426 1728.48096 2116.97046
2414.0 0.000414 1728.77441 2092.89990
2357.0 0.000424 1729.06897 2073.32349
2338.0 0.000428 1729.36255 2058.10425
2356.0 0.000424 1729.65735 2047.04065
2316.0 0.000432 1729.95154 2039.89099
2321.0 0.000431 1730.24597 2036.40295
2326.0 0.000430 1730.54016 2036.33032
2335.0 0.000428 1730.83447 2039.45227
2304.0 0.000434 1731.12891 2045.58801
2317.0 0.000432 1731.42371 2054.61621
2305.0 0.000434 1731.71814 2066.48633
2293.0 0.000436 1732.01270 2081.23926
2306.0 0.000434 1732.30701 2099.01929
2303.0 0.000434 1732.60193 2120.07080
2334.0 0.000428 1732.89624 2144.72681
2242.0 0.000446 1733.19128 2173.37793
2347.0 0.000426 1733.48572 2206.43506
2288.0 0.000437 1733.78052 2244.28711
2397.0 0.000417 1734.07458 2287.26221
2354.0 0.000425 1734.36902 2335.59302
2391.0 0.000418 1734.66370 2389.38062
2445.0 0.000409 1734.95789 2448.56177
2472.0 0.000405 1735.25220 2515.15918
2576.0 0.000388 1735.54663 2584.09912
2600.0 0.000385 1735.84045 2656.82324
2662.0 0.000376 1736.13489 2732.14160
2763.0 0.000362 1736.42896 2808.43726
2796.0 0.000358 1736.72253 2883.62524
2883.0 0.0003469 1737.01660 2955.17505
2960.0 0.0003378 1737.30994 3020.21826
3023.0 0.0003308 1737.60315 3075.79858
3031.0 0.0003299 1737.89722 3119.24780
3003.0 0.0003330 1738.19043 3148.63257
3021.0 0.0003310 1738.48340 3163.16040
3061.0 0.0003267 1738.77625 3163.38696
3078.0 0.0003249 1739.06921 3151.15527
3029.0 0.0003301 1739.36194 3129.27173
2998.0 0.0003336 1739.65454 3101.02905
3023.0 0.0003308 1739.94678 3069.72559
3058.0 0.0003270 1740.23877 3038.29761
3026.0 0.0003305 1740.53064 3009.08911
2988.0 0.0003347 1740.82227 2983.75513
2993.0 0.0003341 1741.11389 2963.24463
2945.0 0.0003396 1741.40515 2947.81274
2990.0 0.0003344 1741.69617 2937.05469
2939.0 0.0003403 1741.98718 2929.92847
2823.0 0.000354 1742.27734 2924.82275
2825.0 0.000354 1742.56750 2919.68799
2819.0 0.000355 1742.85779 2912.27441
2861.0 0.0003495 1743.14746 2905.22266
2837.0 0.000352 1743.43701 2887.61792
2803.0 0.000357 1743.72620 2863.53467
2739.0 0.000365 1744.01526 2833.39551
2668.0 0.000375 1744.30420 2798.51782
2690.0 0.000372 1744.59229 2760.79419
2691.0 0.000372 1744.88049 2722.34375
2515.0 0.000398 1745.16772 2685.24292
2459.0 0.000407 1745.45520 2651.37915
2443.0 0.000409 1745.74255 2622.41992
2460.0 0.000407 1746.02917 2599.84106
2474.0 0.000404 1746.31555 2584.98145
2496.0 0.000401 1746.60132 2579.10449
2496.0 0.000401 1746.88733 2583.44922
2479.0 0.000403 1747.17224 2599.26831
2488.0 0.000402 1747.45703 2627.86230
2563.0 0.000390 1747.74182 2670.59033
2635.0 0.000380 1748.02563 2728.87427
2760.0 0.000362 1748.30969 2804.18335
2747.0 0.000364 1748.59265 2897.99780
2831.0 0.000353 1748.87585 3011.75952
2967.0 0.0003370 1749.15833 3146.79224
3127.0 0.0003198 1749.44006 3304.21460
3312.0 0.0003019 1749.72192 3484.82593
3668.0 0.0002726 1750.00305 3688.98071
3995.0 0.0002503 1750.28442 3916.44971
4210.0 0.0002375 1750.56372 4166.25439
4349.0 0.0002299 1750.84399 4436.48535
4661.0 0.0002145 1751.12366 4724.07666
5088.0 0.0001965 1751.40222 5024.54932
5517.0 0.0001813 1751.68054 5331.70508
5780.0 0.0001730 1751.95825 5637.34033
5864.0 0.0001705 1752.23572 5931.03857
6064.0 0.0001649 1752.51294 6200.27246
6362.0 0.0001572 1752.78918 6430.97070
6471.0 0.0001545 1753.06482 6608.79980
6429.0 0.0001555 1753.34033 6721.08301
6588.0 0.0001518 1753.61499 6759.02588
6633.0 0.0001508 1753.88940 6719.51563
6488.0 0.0001541 1754.16309 6605.81738
6322.0 0.0001582 1754.43604 6426.85693
6186.0 0.0001617 1754.70837 6195.38818
5911.0 0.0001692 1754.98071 5925.76611
5536.0 0.0001806 1755.25208 5632.01855
5314.0 0.0001882 1755.52283 5326.59473
5136.0 0.0001947 1755.79321 5019.79443
4788.0 0.0002089 1756.06287 4719.69043
4412.0 0.0002267 1756.33228 4432.34033
4152.0 0.0002408 1756.60046 4162.06738
3810.0 0.0002625 1756.86890 3911.76807
3593.0 0.0002783 1757.13586 3683.16577
3424.0 0.0002921 1757.40234 3477.02588
3261.0 0.0003067 1757.66846 3293.34448
3113.0 0.0003212 1757.93359 3131.50244
2939.0 0.0003403 1758.19873 2990.41504
2868.0 0.0003487 1758.46265 2868.65845
2733.0 0.000366 1758.72559 2764.59155
2726.0 0.000367 1758.98901 2676.46021
2514.0 0.000398 1759.25049 2602.48926
2439.0 0.000410 1759.51172 2540.95288
2551.0 0.000392 1759.77295 2490.23145
2387.0 0.000419 1760.03271 2448.85303
2374.0 0.000421 1760.29187 2415.51416
2352.0 0.000425 1760.55078 2389.09326
2316.0 0.000432 1760.80847 2368.65063
2232.0 0.000448 1761.06592 2353.42114
2256.0 0.000443 1761.32190 2342.80347
2284.0 0.000438 1761.57788 2336.34839
2294.0 0.000436 1761.83313 2333.73999
2224.0 0.000450 1762.08704 2345.65747
2304.0 0.000434 1762.34045 2350.41309
2254.0 0.000444 1762.59326 2358.77539
2347.0 0.000426 1762.84497 2370.87598
2467.0 0.000405 1763.09607 2386.94775
2400.0 0.000417 1763.34680 2407.33105
2357.0 0.000424 1763.59644 2430.67407
2350.0 0.000426 1763.84534 2461.15234
2389.0 0.000419 1764.09326 2497.62793
2514.0 0.000398 1764.34070 2540.89160
2522.0 0.000397 1764.58691 2591.85010
2577.0 0.000388 1764.83264 2651.52637
2722.0 0.000367 1765.07788 2721.34302
2763.0 0.000362 1765.32202 2802.00562
2934.0 0.0003408 1765.56506 2895.18530
3053.0 0.0003275 1765.80750 3002.38037
3181.0 0.0003144 1766.04895 3125.14355
3438.0 0.0002909 1766.28967 3264.98486
3579.0 0.0002794 1766.52930 3423.23975
3689.0 0.0002711 1766.76904 3600.91235
3940.0 0.0002538 1767.00696 3798.51343
4054.0 0.0002467 1767.24402 4015.90063
4335.0 0.0002307 1767.48059 4252.10840
4751.0 0.0002105 1767.71619 4505.16650
4782.0 0.0002091 1767.95081 4771.89063
5141.0 0.0001945 1768.18445 5047.63818
5404.0 0.0001850 1768.41748 5326.05029
5562.0 0.0001798 1768.64954 5598.85889
5767.0 0.0001734 1768.88062 5855.86035
5912.0 0.0001691 1769.11072 6085.26953
6039.0 0.0001656 1769.34009 6274.60205
6054.0 0.0001652 1769.56860 6412.16357
6309.0 0.0001585 1769.79590 6488.90186
6353.0 0.0001574 1770.02258 6500.14160
6305.0 0.0001586 1770.24792 6446.52393
6202.0 0.0001612 1770.47278 6333.78760
5965.0 0.0001676 1770.69617 6171.46191
5912.0 0.0001691 1770.91907 5970.98584
5863.0 0.0001706 1771.14124 5743.91064
5675.0 0.0001762 1771.36206 5500.62939
5404.0 0.0001850 1771.58179 5249.72705
5115.0 0.0001955 1771.80066 4997.91211
4725.0 0.0002116 1772.01892 4750.25195
4596.0 0.0002176 1772.23596 4510.57861
4327.0 0.0002311 1772.45215 4281.84766
4086.0 0.0002447 1772.66687 4066.41772
3884.0 0.0002575 1772.88110 3866.16235
3710.0 0.0002695 1773.09399 3682.49561
3528.0 0.0002834 1773.30640 3520.43652
3376.0 0.0002962 1773.51721 3372.23804
3259.0 0.0003068 1773.72717 3241.85815
3208.0 0.0003117 1773.93604 3128.74292
3055.0 0.0003273 1774.14417 3031.95898
2956.0 0.0003383 1774.35107 2950.27832
2858.0 0.0003499 1774.55713 2882.25317
2757.0 0.000363 1774.76233 2826.27930
2673.0 0.000374 1774.96619 2780.63306
2703.0 0.000370 1775.16919 2743.50562
2611.0 0.000383 1775.37122 2713.02808
2606.0 0.000384 1775.57190 2687.30542
2586.0 0.000387 1775.77185 2664.49219
2547.0 0.000393 1775.97034 2642.90283
2508.0 0.000399 1776.16821 2621.15039
2490.0 0.000402 1776.36487 2598.27954
2398.0 0.000417 1776.56042 2573.84399
2418.0 0.000414 1776.75488 2547.88574
2413.0 0.000414 1776.94836 2520.82959
2448.0 0.000408 1777.14038 2493.33813
2368.0 0.000422 1777.33203 2466.15967
2298.0 0.000435 1777.52185 2440.03027
2280.0 0.000439 1777.71130 2415.60791
2301.0 0.000435 1777.89893 2393.46509
2287.0 0.000437 1778.08582 2374.08887
2218.0 0.000451 1778.27222 2357.90039
2155.0 0.000464 1778.45679 2345.27197
2155.0 0.000464 1778.63977 2336.54834
2151.0 0.000465 1778.82288 2332.05469
2066.0 0.000484 1779.00403 2332.10938
2101.0 0.000476 1779.18469 2337.02954
2198.0 0.000455 1779.36365 2347.13257
2165.0 0.000462 1779.54163 2362.73535
2205.0 0.000454 1779.71875 2384.14941
2248.0 0.000445 1779.89441 2411.66724
2206.0 0.000453 1780.06934 2445.55420
2208.0 0.000453 1780.24231 2486.02490
2289.0 0.000437 1780.41528 2533.22192
2378.0 0.000421 1780.58618 2587.19336
2440.0 0.000410 1780.75647 2647.85474
2405.0 0.000416 1780.92554 2715.46460
2543.0 0.000393 1781.09363 2788.57471
2731.0 0.000366 1781.25989 2866.22461
2757.0 0.000363 1781.42554 2948.91479
2934.0 0.0003408 1781.59021 3034.48511
2938.0 0.0003404 1781.75354 3121.08569
2933.0 0.0003409 1781.91553 3206.36304
3099.0 0.0003227 1782.07642 3287.46631
3081.0 0.0003246 1782.23682 3361.14941
3156.0 0.0003169 1782.39478 3424.02295
3146.0 0.0003179 1782.55225 3472.97070
3221.0 0.0003105 1782.70886 3505.66260
3208.0 0.0003117 1782.86353 3521.04199
3254.0 0.0003073 1783.01807 3519.61865
3203.0 0.0003122 1783.17090 3503.44873
3159.0 0.0003166 1783.32239 3475.81885
3142.0 0.0003183 1783.47229 3440.74756
3090.0 0.0003236 1783.62207 3402.47729
2972.0 0.0003365 1783.76990 3365.07544
3007.0 0.0003326 1783.91687 3332.19067
2937.0 0.0003405 1784.06213 3306.95361
2922.0 0.0003422 1784.20654 3291.95532
2987.0 0.0003348 1784.35034 3286.36206
2946.0 0.0003394 1784.49207 3297.84058
3054.0 0.0003274 1784.63306 3324.19995
3085.0 0.0003241 1784.77319 3366.35767
3138.0 0.0003187 1784.91138 3424.59033
3230.0 0.0003096 1785.04858 3498.71680
3481.0 0.0002873 1785.18481 3588.06396
3709.0 0.0002696 1785.31995 3691.41455
3767.0 0.0002655 1785.45361 3806.94263
4056.0 0.0002465 1785.58643 3932.11523
4229.0 0.0002365 1785.71716 4063.59131
4499.0 0.0002223 1785.84692 4197.11914
4657.0 0.0002147 1785.97644 4327.49707
4760.0 0.0002101 1786.10425 4448.65088
4950.0 0.0002020 1786.23071 4553.92139
5077.0 0.0001970 1786.35620 4636.62891
5148.0 0.0001943 1786.47998 4690.86621
5008.0 0.0001997 1786.60291 4712.40967
5026.0 0.0001990 1786.72449 4699.46143
4912.0 0.0002036 1786.84485 4652.97607
4817.0 0.0002076 1786.96387 4576.46094
4816.0 0.0002076 1787.08191 4475.28223
4618.0 0.0002165 1787.19885 4355.79834
4411.0 0.0002267 1787.31421 4224.50928
4168.0 0.0002399 1787.42871 4087.46533
4041.0 0.0002475 1787.54175 3949.93652
3890.0 0.0002571 1787.65356 3816.32861
3701.0 0.0002702 1787.76416 3690.23975
3454.0 0.0002895 1787.87390 3574.59375
3444.0 0.0002904 1787.98169 3471.79590
3278.0 0.0003051 1788.08875 3383.87427
3104.0 0.0003222 1788.19470 3312.60889
3015.0 0.0003317 1788.29932 3259.63452
3041.0 0.0003288 1788.40259 3226.51611
3098.0 0.0003228 1788.50476 3214.81226
3091.0 0.0003235 1788.60596 3226.10645
3122.0 0.0003203 1788.70520 3262.01514
3281.0 0.0003048 1788.80334 3324.17090
3355.0 0.0002981 1788.90088 3414.17261
3500.0 0.0002857 1788.99683 3533.50708
3578.0 0.0002795 1789.09167 3683.44336
3731.0 0.0002680 1789.18518 3864.89600
4062.0 0.0002462 1789.27747 4078.27686
4378.0 0.0002284 1789.36865 4323.31641
4759.0 0.0002101 1789.45850 4598.87646
4977.0 0.0002009 1789.54736 4902.74268
5487.0 0.0001822 1789.63489 5231.37891
5904.0 0.0001694 1789.72070 5579.66357
6453.0 0.0001550 1789.80640 5940.56104
6678.0 0.0001497 1789.89001 6304.78857
6955.0 0.0001438 1789.97253 6660.53955
7458.0 0.0001341 1790.05396 6993.43457
7965.0 0.0001255 1790.13403 7286.94971
8189.0 0.0001221 1790.21313 7523.60791
8419.0 0.0001188 1790.29077 7679.58594
8293.0 0.0001206 1790.36743 7757.23389
8229.0 0.0001215 1790.44250 7742.64844
8188.0 0.0001221 1790.51672 7637.08984
7852.0 0.0001274 1790.58972 7449.15039
7521.0 0.0001330 1790.66162 7192.85254
7241.0 0.0001381 1790.73218 6884.97998
6800.0 0.0001471 1790.80103 6542.54053
6246.0 0.0001601 1790.86877 6180.98877
5825.0 0.0001717 1790.93616 5813.31006
5465.0 0.0001830 1791.00159 5449.79590
5039.0 0.0001985 1791.06616 5098.22217
4629.0 0.0002160 1791.12915 4764.20508
4432.0 0.0002256 1791.19141 4451.60107
4143.0 0.0002414 1791.25208 4162.87109
3874.0 0.0002581 1791.31165 3902.49609
3626.0 0.0002758 1791.37036 3664.73047
3525.0 0.0002837 1791.42712 3452.41455
3260.0 0.0003067 1791.48340 3264.69263
3079.0 0.0003248 1791.53845 3100.22095
2996.0 0.0003338 1791.59216 2957.28687
2933.0 0.0003409 1791.64453 2833.93506
2740.0 0.000365 1791.69568 2728.08813
2618.0 0.000382 1791.74597 2637.65356
2624.0 0.000381 1791.79492 2560.61084
2547.0 0.000393 1791.84253 2495.07446
2549.0 0.000392 1791.88916 2439.33398
2469.0 0.000405 1791.93481 2391.87378
2412.0 0.000415 1791.97961 2351.37646
2404.0 0.000416 1792.02197 2316.72119
2329.0 0.000429 1792.06384 2286.96094
2220.0 0.000450 1792.10486 2261.31128
2195.0 0.000456 1792.14453 2239.12451
2244.0 0.000446 1792.18286 2219.87329
2248.0 0.000445 1792.22034 2203.12988
2240.0 0.000446 1792.25647 2188.54712
2130.0 0.000469 1792.29126 2175.84839
2149.0 0.000465 1792.32532 2164.81250
2089.0 0.000479 1792.35779 2155.26392
2062.0 0.000485 1792.38928 2147.06543
2091.0 0.000478 1792.41968 2140.11206
2027.0 0.000493 1792.44922 2134.32666
2051.0 0.000488 1792.47729 2129.65552
2050.0 0.000488 1792.50391 2126.07129
2012.0 0.000497 1792.52966 2123.56470
2017.0 0.000496 1792.55444 2122.15210
2045.0 0.000489 1792.57813 2121.73877
2084.0 0.000480 1792.60095 2122.66455
2123.0 0.000471 1792.62231 2124.89233
2075.0 0.000482 1792.64233 2128.55566
2093.0 0.000478 1792.66150 2133.83130
2092.0 0.000478 1792.67944 2140.94043
2123.0 0.000471 1792.69653 2150.15771
2085.0 0.000480 1792.71228 2161.81641
2170.0 0.000461 1792.72717 2176.31055
2132.0 0.000469 1792.74048 2194.10107
2199.0 0.000455 1792.75293 2215.71387
2248.0 0.000445 1792.76428 2241.73584
2260.0 0.000442 1792.77515 2272.81152
2347.0 0.000426 1792.78430 2309.62549
2450.0 0.000408 1792.79224 2352.89111
2493.0 0.000401 1792.79919 2403.32007
2526.0 0.000396 1792.80542 2461.60034
2665.0 0.000375 1792.81055 2528.35645
2754.0 0.000363 1792.81421 2597.38135
2787.0 0.000359 1792.81702 2682.58813
2803.0 0.000357 1792.81909 2777.36353
2971.0 0.0003366 1792.82007 2881.64990
3086.0 0.0003240 1792.81934 2995.08618
3278.0 0.0003051 1792.81787 3116.93579
3444.0 0.0002904 1792.81543 3246.01001
3785.0 0.0002642 1792.81201 3380.56543
3790.0 0.0002639 1792.80750 3518.19629
3906.0 0.0002560 1792.80200 3655.72070
3965.0 0.0002522 1792.79578 3788.27979
3992.0 0.0002505 1792.78845 3912.62769
4069.0 0.0002458 1792.77930 4022.35107
4161.0 0.0002403 1792.76978 4111.56689
4141.0 0.0002415 1792.75891 4174.73730
4136.0 0.0002418 1792.74792 4207.47852
4196.0 0.0002383 1792.73486 4207.34131
4186.0 0.0002389 1792.72144 4174.28906
4215.0 0.0002372 1792.70679 4110.70996
4174.0 0.0002396 1792.69116 4020.95215
4056.0 0.0002465 1792.67468 3910.54663
4023.0 0.0002486 1792.65735 3785.40039
3760.0 0.0002660 1792.63867 3651.14258
3601.0 0.0002777 1792.61926 3512.72290
3591.0 0.0002785 1792.59912 3374.24536
3409.0 0.0002933 1792.57727 3238.96021
3274.0 0.0003054 1792.55518 3109.34937
3136.0 0.0003189 1792.53174 2987.23535
3112.0 0.0003213 1792.50781 2873.89624
3020.0 0.0003311 1792.48230 2770.16138
2810.0 0.000356 1792.45605 2676.03735
2743.0 0.000365 1792.42944 2592.61011
2693.0 0.000371 1792.40088 2519.34253
2700.0 0.000370 1792.37231 2455.96851
2552.0 0.000392 1792.34229 2402.07642
2457.0 0.000407 1792.31189 2357.14478
2414.0 0.000414 1792.28027 2320.58057
2369.0 0.000422 1792.24768 2291.74048
2374.0 0.000421 1792.21436 2269.95801
2434.0 0.000411 1792.17993 2254.55469
2436.0 0.000411 1792.14453 2244.85059
2338.0 0.000428 1792.10864 2240.16455
2266.0 0.000441 1792.07190 2239.80908
2374.0 0.000421 1792.03381 2243.08130
2343.0 0.000427 1791.99524 2249.25513
2357.0 0.000424 1791.95520 2257.57031
2392.0 0.000418 1791.91516 2267.23706
2377.0 0.000421 1791.87427 2277.45068
2376.0 0.000421 1791.83167 2287.41992
2467.0 0.000405 1791.78882 2296.40601
2439.0 0.000410 1791.74524 2303.73877
2428.0 0.000412 1791.70044 2308.82935
2472.0 0.000405 1791.65515 2311.15698
2444.0 0.000409 1791.60901 2310.26807
2406.0 0.000416 1791.56165 2305.79395
2436.0 0.000411 1791.51440 2297.50610
2506.0 0.000399 1791.46570 2289.88257
2441.0 0.000410 1791.41589 2274.17114
2544.0 0.000393 1791.36597 2255.28882
2451.0 0.000408 1791.31519 2233.87793
2505.0 0.000399 1791.26331 2210.68140
2356.0 0.000424 1791.21069 2186.45020
2387.0 0.000419 1791.15759 2161.87256
2390.0 0.000418 1791.10352 2137.53271
2295.0 0.000436 1791.04858 2113.89673
2344.0 0.000427 1790.99304 2091.31250
2307.0 0.000433 1790.93665 2070.02563
2319.0 0.000431 1790.87964 2047.90845
2228.0 0.000449 1790.82227 2029.64734
2186.0 0.000457 1790.76367 2012.96399
2101.0 0.000476 1790.70435 1997.84924
2105.0 0.000475 1790.64441 1984.25940
2029.0 0.000493 1790.58374 1972.12415
2035.0 0.000491 1790.52271 1961.35669
2083.0 0.000480 1790.46057 1951.85608
2083.0 0.000480 1790.39807 1943.51526
2046.0 0.000489 1790.33447 1936.37732
2026.0 0.000494 1790.27051 1930.02942
1951.0 0.000513 1790.20544 1924.51648
1940.0 0.000515 1790.14063 1919.74182
1957.0 0.000511 1790.07434 1915.61328
1973.0 0.000507 1790.00793 1912.04980
1929.0 0.000518 1789.94067 1908.97852
1952.0 0.000512 1789.87268 1906.33521
1918.0 0.000521 1789.80383 1904.06689
1885.0 0.000531 1789.73499 1902.12671
1902.0 0.000526 1789.66516 1900.47668
1874.0 0.000534 1789.59473 1899.08521
1833.0 0.000546 1789.52356 1897.92749
1817.0 0.000550 1789.45203 1896.98279
1905.0 0.000525 1789.38000 1896.23450
1826.0 0.000548 1789.30762 1896.15808
1867.0 0.000536 1789.23389 1895.77759
1854.0 0.000539 1789.15991 1895.56641
1847.0 0.000541 1789.08557 1895.52136
1793.0 0.000558 1789.01025 1890.90466
1841.0 0.000543 1788.93457 1891.23572
1852.0 0.000540 1788.85901 1891.72986
1917.0 0.000522 1788.78247 1892.39099
1932.0 0.000518 1788.70447 1893.22205
1877.0 0.000533 1788.62708 1894.22925
1903.0 0.000525 1788.54895 1895.41882
1833.0 0.000546 1788.47046 1896.80005
1857.0 0.000539 1788.39099 1887.55664
1828.0 0.000547 1788.31116 1889.48047
1793.0 0.000558 1788.23108 1892.31946
1784.0 0.000561 1788.15027 1894.71643
1872.0 0.000534 1788.06897 1897.37646
1890.0 0.000529 1787.98706 1900.32336
1845.0 0.000542 1787.90515 1903.58752
1816.0 0.000551 1787.82275 1907.20520
1825.0 0.000548 1787.73950 1911.22253
1821.0 0.000549 1787.65625 1915.69739
1833.0 0.000546 1787.57227 1920.70068
1832.0 0.000546 1787.48743 1926.32227
1876.0 0.000533 1787.40308 1932.39380
1943.0 0.000515 1787.31763 1939.62207
1935.0 0.000517 1787.23218 1947.89612
1925.0 0.000519 1787.14600 1957.43225
2006.0 0.000499 1787.06030 1968.49255
1930.0 0.000518 1786.97302 1981.39197
2029.0 0.000493 1786.88586 1996.50610
2038.0 0.000491 1786.79834 2014.27283
2036.0 0.000491 1786.71057 2035.19409
2096.0 0.000477 1786.62207 2059.83545
2115.0 0.000473 1786.53333 2088.81860
2229.0 0.000449 1786.44421 2122.81006
2217.0 0.000451 1786.35522 2162.50562
2328.0 0.000430 1786.26563 2208.60400
2344.0 0.000427 1786.17566 2261.78125
2396.0 0.000417 1786.08484 2322.65088
2406.0 0.000416 1785.99438 2391.72437
2529.0 0.000395 1785.90381 2469.36987
2685.0 0.000372 1785.81250 2555.75830
2819.0 0.000355 1785.72095 2650.81250
2941.0 0.0003400 1785.62903 2754.15356
3071.0 0.0003256 1785.53723 2865.03442
3199.0 0.0003126 1785.44495 2982.26953
3285.0 0.0003044 1785.35229 3104.14819
3383.0 0.0002956 1785.25928 3230.72681
3453.0 0.0002896 1785.16577 3362.28247
3585.0 0.0002789 1785.07275 3481.30737
3628.0 0.0002756 1784.97913 3591.21436
3713.0 0.0002693 1784.88538 3686.85376
3721.0 0.0002687 1784.79163 3762.89575
3854.0 0.0002595 1784.69702 3814.46509
3826.0 0.0002614 1784.60303 3837.89990
3816.0 0.0002621 1784.50818 3831.43994
3938.0 0.0002539 1784.41321 3795.59033
3850.0 0.0002597 1784.31824 3733.01514
3667.0 0.0002727 1784.22302 3648.00537
3551.0 0.0002816 1784.12781 3545.72876
3524.0 0.0002838 1784.03210 3431.50220
3352.0 0.0002983 1783.93652 3310.25903
3183.0 0.0003142 1783.84045 3186.27661
3098.0 0.0003228 1783.74426 3062.97949
3018.0 0.0003313 1783.64819 2943.11182
2947.0 0.0003393 1783.55212 2828.71680
2846.0 0.000351 1783.45581 2721.26343
2718.0 0.000368 1783.35913 2621.73657
2610.0 0.000383 1783.26245 2530.71191
2521.0 0.000397 1783.16565 2448.42993
2411.0 0.000415 1783.06897 2374.84912
2318.0 0.000431 1782.97192 2309.70728
2228.0 0.000449 1782.87500 2252.57031
2100.0 0.000476 1782.77844 2202.87427
2218.0 0.000451 1782.68066 2159.97363
2157.0 0.000464 1782.58325 2123.18066
2151.0 0.000465 1782.48682 2091.79443
2078.0 0.000481 1782.38940 2065.12939
2117.0 0.000472 1782.29175 2042.53833
2120.0 0.000472 1782.19458 2023.42297
2122.0 0.000471 1782.09692 2007.24744
1980.0 0.000505 1781.99976 1993.53687
1963.0 0.000509 1781.90247 1981.88342
1940.0 0.000515 1781.80493 1971.93872
1885.0 0.000531 1781.70740 1963.41333
1942.0 0.000515 1781.61011 1956.06604
2007.0 0.000498 1781.51257 1949.70251
1996.0 0.000501 1781.41553 1944.16248
2000.0 0.000500 1781.31799 1939.32227
1938.0 0.000516 1781.22058 1935.07861
1933.0 0.000517 1781.12341 1931.35291
1909.0 0.000524 1781.02612 1928.08069
1924.0 0.000520 1780.92920 1925.21143
1908.0 0.000524 1780.83191 1922.70483
1914.0 0.000522 1780.73535 1920.52917
1849.0 0.000541 1780.63831 1918.65735
1820.0 0.000549 1780.54102 1917.06946
1870.0 0.000535 1780.44446 1915.74683
1942.0 0.000515 1780.34753 1914.67737
1920.0 0.000521 1780.25098 1913.84839
1915.0 0.000522 1780.15442 1913.25073
1951.0 0.000513 1780.05823 1912.87756
1809.0 0.000553 1779.96240 1912.72302
1921.0 0.000521 1779.86597 1912.78357
1874.0 0.000534 1779.76990 1913.05579
1869.0 0.000535 1779.67407 1913.53857
1913.0 0.000523 1779.57886 1914.23230
1900.0 0.000526 1779.48267 1915.13782
1876.0 0.000533 1779.38770 1916.25806
1892.0 0.000529 1779.29248 1917.59595
1895.0 0.000528 1779.19739 1919.15735
1883.0 0.000531 1779.10278 1921.58594
1836.0 0.000545 1779.00806 1923.62158
1834.0 0.000545 1778.91370 1925.90454
1881.0 0.000532 1778.81958 1928.44617
1860.0 0.000538 1778.72546 1931.25977
1837.0 0.000544 1778.63159 1934.36169
1888.0 0.000530 1778.53821 1937.76965
1890.0 0.000529 1778.44482 1941.50500
1901.0 0.000526 1778.35193 1941.49353
1907.0 0.000524 1778.25879 1946.00671
1869.0 0.000535 1778.16650 1950.93970
1929.0 0.000518 1778.07410 1956.33521
1919.0 0.000521 1777.98206 1962.24768
1905.0 0.000525 1777.89014 1968.74377
1870.0 0.000535 1777.79810 1975.90295
1909.0 0.000524 1777.70728 1983.82751
1969.0 0.000508 1777.61609 1992.64136
1924.0 0.000520 1777.52563 2002.49890
1903.0 0.000525 1777.43518 2013.58984
1902.0 0.000526 1777.34509 2026.14709
1897.0 0.000527 1777.25452 2040.45459
1986.0 0.000504 1777.16553 2056.85254
2017.0 0.000496 1777.07666 2075.74780
2021.0 0.000495 1776.98743 2097.61792
1974.0 0.000507 1776.89905 2123.01733
2003.0 0.000499 1776.81128 2152.57568
2050.0 0.000488 1776.72314 2187.00122
2093.0 0.000478 1776.63586 2227.07202
2151.0 0.000465 1776.54883 2273.62134
2173.0 0.000460 1776.46191 2327.52368
2211.0 0.000452 1776.37524 2389.66943
2263.0 0.000442 1776.28967 2460.92993
2373.0 0.000421 1776.20410 2542.12207
2462.0 0.000406 1776.11902 2633.96387
2521.0 0.000397 1776.03418 2737.02344
2725.0 0.000367 1775.94958 2851.65967
2811.0 0.000356 1775.86523 2977.96558
2944.0 0.0003397 1775.78210 3115.70020
3154.0 0.0003171 1775.69873 3264.21021
3346.0 0.0002989 1775.61609 3422.33862
3542.0 0.0002823 1775.53357 3588.32886
3816.0 0.0002621 1775.45142 3759.70020
4023.0 0.0002486 1775.37024 3933.12939
4283.0 0.0002335 1775.28943 4104.34619
4607.0 0.0002171 1775.20886 4268.09521
4843.0 0.0002065 1775.12854 4418.25146
4958.0 0.0002017 1775.04895 4548.12842
5087.0 0.0001966 1774.96960 4651.07861
5302.0 0.0001886 1774.89087 4720.64697
5295.0 0.0001889 1774.81274 4753.98926
5220.0 0.0001916 1774.73474 4748.70605
5181.0 0.0001930 1774.65808 4705.65869
4928.0 0.0002029 1774.58093 4628.10205
4751.0 0.0002105 1774.50464 4521.08496
4640.0 0.0002155 1774.42871 4390.68311
4551.0 0.0002197 1774.35352 4243.29443
4283.0 0.0002335 1774.27905 4085.07104
4007.0 0.0002496 1774.20422 3921.55762
3958.0 0.0002527 1774.13074 3757.48999
3684.0 0.0002714 1774.05786 3596.72729
3443.0 0.0002904 1773.98462 3442.27466
3255.0 0.0003072 1773.91272 3296.35474
3148.0 0.0003177 1773.84167 3160.49609
2952.0 0.0003388 1773.77002 3035.63135
2908.0 0.0003439 1773.69995 2922.18262
2757.0 0.000363 1773.62988 2820.15210
2722.0 0.000367 1773.56067 2729.20288
2640.0 0.000379 1773.49146 2648.75146
2517.0 0.000397 1773.42371 2578.05566
2484.0 0.000403 1773.35583 2516.30371
2424.0 0.000413 1773.28882 2464.22290
2455.0 0.000407 1773.22217 2418.00244
2347.0 0.000426 1773.15625 2378.48975
2286.0 0.000437 1773.09082 2345.10156
2273.0 0.000440 1773.02637 2318.38501
2198.0 0.000455 1772.96204 2295.84888
2189.0 0.000457 1772.89868 2278.17578
2158.0 0.000463 1772.83594 2265.07935
2161.0 0.000463 1772.77380 2256.33521
2160.0 0.000463 1772.71179 2251.76636
2138.0 0.000468 1772.65100 2251.24048
2180.0 0.000459 1772.59045 2255.56079
2133.0 0.000469 1772.53076 2262.82788
2188.0 0.000457 1772.47156 2273.85010
2254.0 0.000444 1772.41345 2288.71045
2256.0 0.000443 1772.35498 2306.88135
2289.0 0.000437 1772.29797 2328.35596
2252.0 0.000444 1772.24121 2352.86963
2290.0 0.000437 1772.18591 2380.06958
2338.0 0.000428 1772.13062 2409.49414
2399.0 0.000417 1772.07605 2440.55688
2414.0 0.000414 1772.02209 2472.52222
2426.0 0.000412 1771.96875 2504.49634
2530.0 0.000395 1771.91577 2535.43994
2559.0 0.000391 1771.86462 2564.21313
2517.0 0.000397 1771.81323 2589.67163
2527.0 0.000396 1771.76306 2610.82300
2534.0 0.000395 1771.71289 2626.99683
2589.0 0.000386 1771.66431 2638.00586
2683.0 0.000373 1771.61572 2644.23120
2616.0 0.000382 1771.56787 2646.59619
2619.0 0.000382 1771.52075 2646.45801
2594.0 0.000386 1771.47449 2645.45068
2477.0 0.000404 1771.42908 2645.34668
2619.0 0.000382 1771.38391 2647.95581
2586.0 0.000387 1771.33972 2655.08618
2472.0 0.000405 1771.29675 2668.53809
2466.0 0.000406 1771.25415 2690.12817
2589.0 0.000386 1771.21167 2721.71777
2607.0 0.000384 1771.17078 2765.23511
2659.0 0.000376 1771.13037 2822.69238
2711.0 0.000369 1771.09082 2896.18091
2864.0 0.0003492 1771.05139 2987.85205
2903.0 0.0003445 1771.01294 3099.88135
2993.0 0.0003341 1770.97583 3234.40308
3098.0 0.0003228 1770.93884 3393.43970
3229.0 0.0003097 1770.90308 3578.80176
3572.0 0.0002800 1770.86792 3791.97144
3898.0 0.0002565 1770.83325 4040.46143
4058.0 0.0002464 1770.79980 4311.79443
4442.0 0.0002251 1770.76599 4612.04297
4787.0 0.0002089 1770.73413 4939.93311
5057.0 0.0001977 1770.70264 5293.07764
5548.0 0.0001802 1770.67188 5667.75146
5996.0 0.0001668 1770.64209 6058.66162
6489.0 0.0001541 1770.61255 6458.68994
7014.0 0.0001426 1770.58447 6858.63623
7530.0 0.0001328 1770.55737 7247.05859
7886.0 0.0001268 1770.53064 7610.30225
8426.0 0.0001187 1770.50415 7932.91162
8706.0 0.0001149 1770.47900 8198.59961
8785.0 0.0001138 1770.45496 8391.83008
9012.0 0.0001110 1770.43127 8499.89355
9197.0 0.0001087 1770.40833 8515.01465
9051.0 0.0001105 1770.38635 8435.82324
8718.0 0.0001147 1770.36475 8267.67676
8372.0 0.0001194 1770.34448 8021.66260
8052.0 0.0001242 1770.32446 7712.64648
7723.0 0.0001295 1770.30579 7357.04688
7235.0 0.0001382 1770.28809 6967.81543
6822.0 0.0001466 1770.27051 6565.65576
6258.0 0.0001598 1770.25403 6159.65039
5787.0 0.0001728 1770.23828 5759.67773
5334.0 0.0001875 1770.22388 5373.41602
4806.0 0.0002081 1770.20959 5006.59961
4585.0 0.0002181 1770.19629 4663.29590
4216.0 0.0002372 1770.18384 4346.16748
3847.0 0.0002599 1770.17261 4056.68335
3619.0 0.0002763 1770.16162 3795.32397
3440.0 0.0002907 1770.15198 3561.75269
3180.0 0.0003145 1770.14282 3354.97803
3068.0 0.0003259 1770.13440 3173.50806
2904.0 0.0003444 1770.12695 3015.48926
2866.0 0.0003489 1770.12036 2878.83740
2741.0 0.000365 1770.11438 2761.34912
2604.0 0.000384 1770.10962 2660.80566
2591.0 0.000386 1770.10547 2575.05103
2428.0 0.000412 1770.10229 2502.05127
2412.0 0.000415 1770.09961 2439.93994
2385.0 0.000419 1770.09766 2387.04346
2389.0 0.000419 1770.09729 2341.89111
2414.0 0.000414 1770.09717 2303.28296
2409.0 0.000415 1770.09790 2270.01660
2356.0 0.000424 1770.10010 2241.26538
2308.0 0.000433 1770.10242 2216.29663
2270.0 0.000441 1770.10559 2194.52417
2365.0 0.000423 1770.11011 2175.47729
2309.0 0.000433 1770.11475 2158.79492
2244.0 0.000446 1770.12048 2144.19971
2117.0 0.000472 1770.12732 2131.48584
2103.0 0.000476 1770.13489 2120.50952
2126.0 0.000470 1770.14307 2111.17456
2156.0 0.000464 1770.15271 2103.42749
2156.0 0.000464 1770.16235 2097.24585
2082.0 0.000480 1770.17334 2092.63354
2081.0 0.000481 1770.18494 2089.61719
2144.0 0.000466 1770.19812 2088.23462
2166.0 0.000462 1770.21106 2088.53271
2115.0 0.000473 1770.22559 2090.56030
2115.0 0.000473 1770.24023 2094.36304
2102.0 0.000476 1770.25647 2099.97363
2110.0 0.000474 1770.27283 2107.40796
2101.0 0.000476 1770.29077 2116.65601
2121.0 0.000471 1770.30896 2127.67407
2216.0 0.000451 1770.32825 2140.37671
2225.0 0.000449 1770.34863 2154.62939
2190.0 0.000457 1770.36963 2170.23535
2118.0 0.000472 1770.39111 2186.92456
2105.0 0.000475 1770.41382 2204.33936
2169.0 0.000461 1770.43762 2222.02197
2271.0 0.000440 1770.46191 2239.40137
2315.0 0.000432 1770.48657 2255.79517
2261.0 0.000442 1770.51257 2270.42700
2239.0 0.000447 1770.53943 2282.46680
2246.0 0.000445 1770.56750 2291.11548
2283.0 0.000438 1770.59558 2295.70117
2233.0 0.000448 1770.62500 2295.78613
2203.0 0.000454 1770.65503 2291.24976
2162.0 0.000463 1770.68591 2282.30127
2200.0 0.000455 1770.71790 2269.45093
2225.0 0.000449 1770.75012 2253.41040
2150.0 0.000465 1770.78394 2234.99438
2090.0 0.000478 1770.81824 2215.01440
2119.0 0.000472 1770.85303 2194.22192
2141.0 0.000467 1770.88879 2173.26392
2110.0 0.000474 1770.92578 2152.67407
2100.0 0.000476 1770.96350 2132.88208
2090.0 0.000478 1771.00208 2114.22144
2070.0 0.000483 1771.04126 2096.94727
1971.0 0.000507 1771.08105 2081.25049
2010.0 0.000498 1771.12170 2067.27222
1967.0 0.000508 1771.16357 2055.11304
1946.0 0.000514 1771.20618 2044.84595
1953.0 0.000512 1771.24927 2036.52698
1957.0 0.000511 1771.29321 2030.59875
1994.0 0.000502 1771.33826 2026.31677
1943.0 0.000515 1771.38379 2024.12756
1929.0 0.000518 1771.43042 2024.09827
1933.0 0.000517 1771.47827 2026.31360
1924.0 0.000520 1771.52576 2030.87817
1947.0 0.000514 1771.57471 2037.91541
1979.0 0.000505 1771.62488 2047.56506
1961.0 0.000510 1771.67493 2059.97339
1903.0 0.000525 1771.72656 2075.28955
1989.0 0.000503 1771.77844 2093.64502
2086.0 0.000479 1771.83167 2115.14746
2043.0 0.000489 1771.88501 2139.85742
2012.0 0.000497 1771.93958 2167.77686
2125.0 0.000471 1771.99500 2198.82861
2172.0 0.000460 1772.05103 2232.83813
2107.0 0.000475 1772.10779 2269.51636
2219.0 0.000451 1772.16516 2308.44019
2267.0 0.000441 1772.22388 2349.02905
2387.0 0.000419 1772.28284 2390.52734
2483.0 0.000403 1772.34302 2431.97559
2498.0 0.000400 1772.40393 2473.37866
2614.0 0.000383 1772.46497 2511.07935
2666.0 0.000375 1772.52710 2544.78174
2724.0 0.000367 1772.59009 2573.07324
2811.0 0.000356 1772.65381 2594.78076
2747.0 0.000364 1772.71851 2609.19263
2720.0 0.000368 1772.78369 2616.23438
2736.0 0.000365 1772.84998 2616.52319
2686.0 0.000372 1772.91650 2611.28662
2669.0 0.000375 1772.98401 2602.16284
2598.0 0.000385 1773.05249 2586.49023
2498.0 0.000400 1773.12134 2575.13794
2554.0 0.000392 1773.19092 2565.26343
2521.0 0.000397 1773.26172 2558.37646
2622.0 0.000381 1773.33276 2555.77441
2573.0 0.000389 1773.40430 2558.55444
2561.0 0.000390 1773.47705 2567.62744
2647.0 0.000378 1773.55054 2583.74023
2540.0 0.000394 1773.62427 2607.49365
2653.0 0.000377 1773.69946 2639.35596
2799.0 0.000357 1773.77466 2679.67603
2791.0 0.000358 1773.85107 2728.68970
2942.0 0.0003399 1773.92834 2786.52637
2915.0 0.0003431 1774.00562 2853.20020
3040.0 0.0003289 1774.08386 2928.60693
3026.0 0.0003305 1774.16333 3012.50806
3276.0 0.0003053 1774.24280 3104.53174
3354.0 0.0002982 1774.32361 3204.19287
3363.0 0.0002974 1774.40405 3310.94727
3531.0 0.0002832 1774.48645 3423.84277
3739.0 0.0002675 1774.56873 3543.47437
3842.0 0.0002603 1774.65161 3669.39087
3910.0 0.0002558 1774.73560 3802.00269
4104.0 0.0002437 1774.82019 3942.10645
4304.0 0.0002323 1774.90527 4090.71533
4430.0 0.0002257 1774.99072 4248.79395
4577.0 0.0002185 1775.07739 4416.92578
4754.0 0.0002103 1775.16479 4594.98340
4974.0 0.0002010 1775.25220 4781.89014
5167.0 0.0001935 1775.34082 4975.44922
5637.0 0.0001774 1775.43018 5172.29150
5730.0 0.0001745 1775.51953 5367.88428
6281.0 0.0001592 1775.60974 5556.61182
6451.0 0.0001550 1775.70081 5731.86035
6588.0 0.0001518 1775.79260 5886.15186
6782.0 0.0001474 1775.88464 6011.39844
7079.0 0.0001413 1775.97778 6099.39355
7094.0 0.0001410 1776.07129 6142.65479
6986.0 0.0001431 1776.16492 6135.54102
6866.0 0.0001456 1776.25977 6075.39502
6672.0 0.0001499 1776.35535 5963.24805
6577.0 0.0001520 1776.45093 5803.81738
6181.0 0.0001618 1776.54761 5604.73145
5970.0 0.0001675 1776.64465 5375.29053
5680.0 0.0001761 1776.74194 5125.21240
5260.0 0.0001901 1776.84033 4863.64404
4861.0 0.0002057 1776.93933 4598.59229
4672.0 0.0002140 1777.03894 4336.69385
4261.0 0.0002347 1777.13855 4082.53174
3891.0 0.0002570 1777.23914 3841.49268
3676.0 0.0002720 1777.34070 3615.78760
3438.0 0.0002909 1777.44202 3407.35815
3256.0 0.0003071 1777.54407 3217.32080
3036.0 0.0003294 1777.64697 3046.09033
2920.0 0.0003425 1777.74988 2893.49658
2795.0 0.000358 1777.85388 2758.89502
2685.0 0.000372 1777.95837 2641.27319
2605.0 0.000384 1778.06360 2539.35571
2519.0 0.000397 1778.16882 2451.69800
2456.0 0.000407 1778.27502 2376.77051
2378.0 0.000421 1778.38098 2313.03296
2345.0 0.000426 1778.48804 2258.99194
2273.0 0.000440 1778.59558 2213.24512
2272.0 0.000440 1778.70374 2174.51001
2236.0 0.000447 1778.81213 2141.64258
2205.0 0.000454 1778.92126 2113.64551
2170.0 0.000461 1779.03064 2089.66235
2236.0 0.000447 1779.14063 2068.97363
2223.0 0.000450 1779.25110 2050.98315
2205.0 0.000454 1779.36194 2035.20227
2166.0 0.000462 1779.47327 2021.23645
2139.0 0.000468 1779.58545 2008.77002
2144.0 0.000466 1779.69727 1997.55139
2110.0 0.000474 1779.81042 1987.38135
2142.0 0.000467 1779.92358 1978.10168
2199.0 0.000455 1780.03723 1969.58801
2120.0 0.000472 1780.15125 1961.74084
2074.0 0.000482 1780.26563 1954.47913
2052.0 0.000487 1780.38062 1947.73804
2067.0 0.000484 1780.49585 1941.46411
2074.0 0.000482 1780.61206 1935.61108
2027.0 0.000493 1780.72803 1930.14172
2014.0 0.000497 1780.84473 1922.65137
1972.0 0.000507 1780.96167 1917.87891
1941.0 0.000515 1781.07947 1905.34070
1879.0 0.000532 1781.19702 1901.21997
1852.0 0.000540 1781.31519 1897.35278
1892.0 0.000529 1781.43359 1893.72058
1850.0 0.000541 1781.55261 1890.30774
1883.0 0.000531 1781.67212 1887.09875
1876.0 0.000533 1781.79175 1884.08093
1832.0 0.000546 1781.91211 1881.24219
1884.0 0.000531 1782.03247 1878.57178
1824.0 0.000548 1782.15344 1876.05945
1754.0 0.000570 1782.27429 1873.69556
1806.0 0.000554 1782.39612 1871.47180
1871.0 0.000534 1782.51758 1870.35596
1873.0 0.000534 1782.63977 1868.40112
1833.0 0.000546 1782.76233 1868.47766
1818.0 0.000550 1782.88501 1866.77380
1789.0 0.000559 1783.00842 1865.17944
1845.0 0.000542 1783.13245 1863.68921
1775.0 0.000563 1783.25574 1862.29919
1751.0 0.000571 1783.37939 1861.00671
1768.0 0.000566 1783.50403 1859.80701
1771.0 0.000565 1783.62866 1858.69910
1719.0 0.000582 1783.75366 1857.70105
1726.0 0.000579 1783.87878 1856.76892
1782.0 0.000561 1784.00464 1855.92273
1786.0 0.000560 1784.13037 1855.16235
1814.0 0.000551 1784.25598 1854.48743
1761.0 0.000568 1784.38257 1853.89978
1792.0 0.000558 1784.50928 1853.40051
1780.0 0.000562 1784.63574 1852.99219
1738.0 0.000575 1784.76294 1852.67822
1768.0 0.000566 1784.89001 1852.46277
1683.0 0.000594 1785.01770 1852.35168
1765.0 0.000567 1785.14539 1852.35132
1754.0 0.000570 1785.27332 1852.46924
1736.0 0.000576 1785.40100 1852.71265
1769.0 0.000565 1785.52991 1853.09204
1718.0 0.000582 1785.65869 1853.61731
1787.0 0.000560 1785.78748 1854.29907
1761.0 0.000568 1785.91638 1855.14966
1781.0 0.000561 1786.04541 1856.17908
1776.0 0.000563 1786.17505 1857.39917
1746.0 0.000573 1786.30432 1858.82080
1752.0 0.000571 1786.43396 1860.45508
1739.0 0.000575 1786.56348 1862.31104
1723.0 0.000580 1786.69397 1864.39539
1736.0 0.000576 1786.82434 1866.71631
1742.0 0.000574 1786.95447 1869.27771
1784.0 0.000561 1787.08484 1872.08325
1839.0 0.000544 1787.21558 1875.13037
1876.0 0.000533 1787.34631 1878.41882
1824.0 0.000548 1787.47717 1881.94214
1857.0 0.000539 1787.60828 1886.21289
1854.0 0.000539 1787.73950 1890.17798
1925.0 0.000519 1787.87061 1894.33643
1842.0 0.000543 1788.00183 1898.67065
1874.0 0.000534 1788.13330 1903.16150
1900.0 0.000526 1788.26514 1907.79773
1852.0 0.000540 1788.39636 1912.58240
1872.0 0.000534 1788.52795 1917.54224
1882.0 0.000531 1788.66016 1922.73511
1892.0 0.000529 1788.79211 1928.25244
1893.0 0.000528 1788.92407 1934.22009
1891.0 0.000529 1789.05603 1940.15430
1893.0 0.000528 1789.18823 1947.49731
1911.0 0.000523 1789.32007 1955.77295
1944.0 0.000514 1789.45300 1965.13293
1932.0 0.000518 1789.58472 1975.70532
1958.0 0.000511 1789.71704 1987.58423
1972.0 0.000507 1789.84912 2000.82446
1989.0 0.000503 1789.98145 2015.43689
1956.0 0.000511 1790.11426 2031.38208
1979.0 0.000505 1790.24634 2048.56812
2040.0 0.000490 1790.37854 2066.84229
2075.0 0.000482 1790.51135 2091.78857
2114.0 0.000473 1790.64392 2111.58228
2132.0 0.000469 1790.77600 2131.59546
2104.0 0.000475 1790.90845 2151.39917
2169.0 0.000461 1791.04102 2170.53296
2249.0 0.000445 1791.17310 2188.54785
2243.0 0.000446 1791.30530 2205.08545
2174.0 0.000460 1791.43787 2219.95825
2125.0 0.000471 1791.56982 2233.21265
2256.0 0.000443 1791.70215 2245.15894
2213.0 0.000452 1791.83411 2256.33521
2238.0 0.000447 1791.96606 2267.43726
2175.0 0.000460 1792.09790 2279.21704
2158.0 0.000463 1792.23010 2292.38965
2275.0 0.000440 1792.36218 2307.55737
2277.0 0.000439 1792.49414 2325.28857
2281.0 0.000438 1792.62610 2345.58887
2298.0 0.000435 1792.75745 2368.63159
2336.0 0.000428 1792.88904 2394.24609
2366.0 0.000423 1793.02039 2422.03052
2419.0 0.000413 1793.15173 2451.33398
2413.0 0.000414 1793.28320 2481.24658
2466.0 0.000406 1793.41418 2510.58789
2560.0 0.000391 1793.54541 2537.93311
2514.0 0.000398 1793.67651 2561.66528
2593.0 0.000386 1793.80725 2580.10303
2569.0 0.000389 1793.93762 2591.67310
2515.0 0.000398 1794.06812 2595.12988
2597.0 0.000385 1794.19873 2589.75244
2606.0 0.000384 1794.32886 2575.46973
2538.0 0.000394 1794.45911 2552.85718
2522.0 0.000397 1794.58911 2523.01978
2526.0 0.000396 1794.71887 2487.39209
2469.0 0.000405 1794.84851 2447.53564
2382.0 0.000420 1794.97791 2404.96899
2294.0 0.000436 1795.10754 2361.05322
2241.0 0.000446 1795.23645 2316.94922
2157.0 0.000464 1795.36523 2273.60425
2168.0 0.000461 1795.49414 2231.76074
2155.0 0.000464 1795.62256 2191.98364
2104.0 0.000475 1795.75110 2154.68262
2062.0 0.000485 1795.87927 2120.13037
2055.0 0.000487 1796.00708 2088.48755
2045.0 0.000489 1796.13513 2059.81592
2037.0 0.000491 1796.26221 2034.09485
1979.0 0.000505 1796.38989 2011.23645
1917.0 0.000522 1796.51672 1991.10059
1975.0 0.000506 1796.64368 1973.50671
1884.0 0.000531 1796.77026 1958.24744
1865.0 0.000536 1796.89648 1945.10107
1838.0 0.000544 1797.02295 1933.84106
1848.0 0.000541 1797.14856 1924.24292
1838.0 0.000544 1797.27417 1916.09180
1836.0 0.000545 1797.39978 1909.18884
1910.0 0.000524 1797.52454 1903.35254
1893.0 0.000528 1797.64966 1898.42053
1798.0 0.000556 1797.77393 1894.25098
1823.0 0.000549 1797.89844 1893.25647
1874.0 0.000534 1798.02246 1890.29028
1841.0 0.000543 1798.14612 1885.65198
1799.0 0.000556 1798.26929 1883.53613
1856.0 0.000539 1798.39258 1881.73926
1874.0 0.000534 1798.51575 1880.21460
1914.0 0.000522 1798.63794 1878.92383
1850.0 0.000541 1798.76025 1877.83630
1904.0 0.000525 1798.88208 1876.92725
1864.0 0.000536 1799.00391 1876.17651
1886.0 0.000530 1799.12500 1875.56995
1867.0 0.000536 1799.24634 1875.09424
1945.0 0.000514 1799.36670 1874.73853
1895.0 0.000528 1799.48718 1873.58337
1963.0 0.000509 1799.60693 1873.45691
1949.0 0.000513 1799.72620 1868.38538
1899.0 0.000527 1799.84583 1868.50830
1859.0 0.000538 1799.96472 1868.72363
1821.0 0.000549 1800.08350 1869.02844
1847.0 0.000541 1800.20190 1869.42224
1950.0 0.000513 1800.31970 1869.90076
1871.0 0.000534 1800.43677 1870.46521
1866.0 0.000536 1800.55457 1871.11560
1960.0 0.000510 1800.67090 1871.84900
1842.0 0.000543 1800.78772 1872.66858
1864.0 0.000536 1800.90381 1873.57373
1894.0 0.000528 1801.01917 1874.56580
1940.0 0.000515 1801.13477 1875.64661
1844.0 0.000542 1801.24939 1876.81812
1840.0 0.000543 1801.36389 1878.08215
1858.0 0.000538 1801.47766 1879.44177
1900.0 0.000526 1801.59155 1880.90161
1844.0 0.000542 1801.70471 1882.46448
1817.0 0.000550 1801.81799 1884.13599
1872.0 0.000534 1801.93018 1885.92126
1889.0 0.000529 1802.04224 1887.82629
1838.0 0.000544 1802.15393 1889.86035
1897.0 0.000527 1802.26526 1892.02979
1884.0 0.000531 1802.37561 1894.34656
1791.0 0.000558 1802.48657 1896.82397
1840.0 0.000543 1802.59619 1899.47693
1888.0 0.000530 1802.70569 1902.32361
1817.0 0.000550 1802.81531 1905.38721
1853.0 0.000540 1802.92358 1908.69629
1812.0 0.000552 1803.03198 1913.00208
1864.0 0.000536 1803.13989 1916.92188
1871.0 0.000534 1803.24695 1921.21704
1891.0 0.000529 1803.35364 1925.95044
1908.0 0.000524 1803.46008 1931.20068
1879.0 0.000532 1803.56616 1937.05920
1884.0 0.000531 1803.67163 1943.63525
1926.0 0.000519 1803.77661 1951.05664
1909.0 0.000524 1803.88110 1959.46814
1899.0 0.000527 1803.98511 1969.03625
1848.0 0.000541 1804.08899 1979.94373
1918.0 0.000521 1804.19214 1992.38867
1963.0 0.000509 1804.29492 2006.58313
1986.0 0.000504 1804.39697 2022.74353
1958.0 0.000511 1804.49902 2041.08472
1943.0 0.000515 1804.59961 2061.81421
1995.0 0.000501 1804.70081 2085.11768
2055.0 0.000487 1804.80103 2111.15063
2072.0 0.000483 1804.90088 2140.02417
2013.0 0.000497 1804.99988 2171.79175
2066.0 0.000484 1805.09863 2206.43701
2205.0 0.000454 1805.19702 2243.85962
2117.0 0.000472 1805.29504 2283.85938
2239.0 0.000447 1805.39209 2326.12524
2309.0 0.000433 1805.48853 2370.21167
2435.0 0.000411 1805.58484 2415.52515
2517.0 0.000397 1805.68091 2461.30640
2474.0 0.000404 1805.77576 2506.61499
2486.0 0.000402 1805.87036 2550.33618
2567.0 0.000390 1805.96448 2591.21265
2511.0 0.000398 1806.05859 2627.92773
2564.0 0.000390 1806.15149 2659.23389
2549.0 0.000392 1806.24451 2684.14502
2672.0 0.000374 1806.33630 2702.11816
2670.0 0.000375 1806.42773 2713.21118
2723.0 0.000367 1806.51941 2718.13379
2696.0 0.000371 1806.60950 2718.19775
2625.0 0.000381 1806.69934 2715.17310
2708.0 0.000369 1806.78882 2711.11719
2635.0 0.000380 1806.87781 2708.21289
2697.0 0.000371 1806.96619 2708.65576
2788.0 0.000359 1807.05408 2714.58911
2669.0 0.000375 1807.14136 2728.07544
2707.0 0.000369 1807.22827 2751.08740
2683.0 0.000373 1807.31445 2785.50562
2862.0 0.0003494 1807.39990 2833.10449
2847.0 0.000351 1807.48486 2895.53125
2869.0 0.0003486 1807.56958 2974.27002
2938.0 0.0003404 1807.65356 3070.60278
3145.0 0.0003180 1807.73718 3185.54053
3348.0 0.0002987 1807.82019 3319.77515
3378.0 0.0002960 1807.90222 3473.60107
3700.0 0.0002703 1807.98401 3646.84668
3766.0 0.0002655 1808.06531 3838.79663
4078.0 0.0002452 1808.14612 4048.10767
4470.0 0.0002237 1808.22607 4272.72119
4821.0 0.0002074 1808.30579 4509.75928
5025.0 0.0001990 1808.38477 4755.40771
5317.0 0.0001881 1808.46338 5004.79395
5667.0 0.0001765 1808.54102 5251.89014
6078.0 0.0001645 1808.61853 5489.48291
6504.0 0.0001538 1808.69519 5709.30566
6584.0 0.0001519 1808.77136 5902.39648
6906.0 0.0001448 1808.84729 6059.78662
6801.0 0.0001470 1808.92261 6173.44824
6964.0 0.0001436 1808.99670 6237.34814
7224.0 0.0001384 1809.07068 6248.32227
7130.0 0.0001403 1809.14404 6206.48779
6949.0 0.0001439 1809.21692 6115.06543
6717.0 0.0001489 1809.28931 5979.70996
6464.0 0.0001547 1809.36035 5807.58447
6207.0 0.0001611 1809.43164 5606.47412
6010.0 0.0001664 1809.50244 5384.09912
5583.0 0.0001791 1809.57251 5147.68848
5214.0 0.0001918 1809.64160 4903.76221
4984.0 0.0002006 1809.71106 4658.04639
4661.0 0.0002145 1809.77869 4415.43848
4471.0 0.0002237 1809.84656 4180.00684
4261.0 0.0002347 1809.91370 3954.99341
3954.0 0.0002529 1809.98035 3742.85034
3665.0 0.0002729 1810.04614 3545.28491
3415.0 0.0002928 1810.11169 3363.33984
3371.0 0.0002966 1810.17676 3197.47803
3276.0 0.0003053 1810.24109 3047.67651
3028.0 0.0003303 1810.30420 2913.52466
2885.0 0.0003466 1810.36780 2794.30981
2790.0 0.000358 1810.43054 2689.10327
2609.0 0.000383 1810.49243 2596.83057
2605.0 0.000384 1810.55310 2516.33911
2571.0 0.000389 1810.61450 2446.44360
2476.0 0.000404 1810.67480 2385.97437
2451.0 0.000408 1810.73450 2333.80811
2349.0 0.000426 1810.79370 2288.88989
2264.0 0.000442 1810.85168 2250.24829
2199.0 0.000455 1810.91016 2217.00708
2204.0 0.000454 1810.96814 2188.38574
2227.0 0.000449 1811.02454 2163.69946
2194.0 0.000456 1811.08069 2142.35498
2157.0 0.000464 1811.13623 2123.84595
2146.0 0.000466 1811.19165 2108.25977
2130.0 0.000469 1811.24622 2094.20361
2106.0 0.000475 1811.30005 2081.88989
2085.0 0.000480 1811.35364 2071.07031
2081.0 0.000481 1811.40674 2061.54346
2038.0 0.000491 1811.45898 2053.14282
2033.0 0.000492 1811.51111 2045.73486
2012.0 0.000497 1811.56177 2039.21423
1976.0 0.000506 1811.61255 2033.49548
1956.0 0.000511 1811.66284 2028.51489
1962.0 0.000510 1811.71240 2024.22180
1991.0 0.000502 1811.76135 2020.58130
1930.0 0.000518 1811.81030 2017.57104
1961.0 0.000510 1811.85828 2015.17786
1934.0 0.000517 1811.90576 2012.97876
1944.0 0.000514 1811.95239 2011.83582
2021.0 0.000495 1811.99841 2011.34424
1922.0 0.000520 1812.04431 2011.53979
1961.0 0.000510 1812.08972 2012.47290
1861.0 0.000537 1812.13452 2014.21301
1856.0 0.000539 1812.17847 2016.84631
1951.0 0.000513 1812.22217 2020.48340
1922.0 0.000520 1812.26501 2028.48022
1986.0 0.000504 1812.30786 2033.42993
1918.0 0.000521 1812.34998 2041.06018
1942.0 0.000515 1812.39111 2050.43188
1956.0 0.000511 1812.43188 2061.81982
2014.0 0.000497 1812.47229 2075.53906
2050.0 0.000488 1812.51245 2091.94287
2054.0 0.000487 1812.55200 2111.42480
2064.0 0.000484 1812.59021 2134.40820
2098.0 0.000477 1812.62854 2161.34058
2053.0 0.000487 1812.66663 2194.62891
2112.0 0.000473 1812.70410 2232.91724
2251.0 0.000444 1812.74072 2274.43921
2268.0 0.000441 1812.77686 2321.61841
2326.0 0.000430 1812.81274 2374.74731
2457.0 0.000407 1812.84814 2434.07129
2560.0 0.000391 1812.88281 2499.52271
2449.0 0.000408 1812.91687 2571.04053
2564.0 0.000390 1812.95081 2648.31372
2693.0 0.000371 1812.98425 2730.81812
2803.0 0.000357 1813.01697 2817.79126
2919.0 0.0003426 1813.04871 2908.21143
3011.0 0.0003321 1813.08032 3000.76196
3212.0 0.0003113 1813.11218 3093.79224
3326.0 0.0003007 1813.14319 3185.27197
3595.0 0.0002782 1813.17285 3272.75610
3597.0 0.0002780 1813.20288 3353.38770
3685.0 0.0002714 1813.23267 3423.97681
3864.0 0.0002588 1813.26123 3481.19531
3902.0 0.0002563 1813.28992 3521.89404
3824.0 0.0002615 1813.31763 3543.51392
3983.0 0.0002511 1813.34509 3544.49585
3972.0 0.0002518 1813.37219 3524.57227
3893.0 0.0002569 1813.39844 3484.82959
3886.0 0.0002573 1813.42517 3427.51978
3777.0 0.0002648 1813.45044 3355.70215
3667.0 0.0002727 1813.47559 3272.81079
3656.0 0.0002735 1813.50073 3182.28394
3417.0 0.0002927 1813.52502 3087.29712
3253.0 0.0003074 1813.54895 2990.62158
3071.0 0.0003256 1813.57214 2894.57935
2975.0 0.0003361 1813.59534 2801.04810
2839.0 0.000352 1813.61792 2711.50562
2709.0 0.000369 1813.64050 2627.07422
2664.0 0.000375 1813.66174 2548.56812
2561.0 0.000390 1813.68347 2476.53833
2368.0 0.000422 1813.70435 2411.30811
2328.0 0.000430 1813.72461 2353.01172
2324.0 0.000430 1813.74451 2301.62939
2224.0 0.000450 1813.76465 2257.01782
2171.0 0.000461 1813.78357 2218.94238
2202.0 0.000454 1813.80273 2187.10693
2118.0 0.000472 1813.82092 2161.17847
2052.0 0.000487 1813.83923 2140.81079
2134.0 0.000469 1813.85669 2125.65796
2161.0 0.000463 1813.87439 2115.39063
2085.0 0.000480 1813.89124 2109.70020
2004.0 0.000499 1813.90759 2108.30127
1998.0 0.000501 1813.92432 2110.92798
2051.0 0.000488 1813.93994 2117.32813
2063.0 0.000485 1813.95520 2127.25464
2027.0 0.000493 1813.97021 2140.44922
2059.0 0.000486 1813.98535 2156.63647
2140.0 0.000467 1813.99976 2175.49951
2246.0 0.000445 1814.01392 2196.67578
2216.0 0.000451 1814.02771 2219.73096
2292.0 0.000436 1814.04089 2244.14819
2317.0 0.000432 1814.05396 2269.30786
2302.0 0.000434 1814.06665 2294.47290
2456.0 0.000407 1814.07935 2318.78174
2526.0 0.000396 1814.09143 2341.46045
2482.0 0.000403 1814.10291 2361.01318
2427.0 0.000412 1814.11438 2376.55420
2487.0 0.000402 1814.12524 2387.06689
2564.0 0.000390 1814.13660 2391.74902
2557.0 0.000391 1814.14673 2390.13599
2508.0 0.000399 1814.15759 2382.18188
2480.0 0.000403 1814.16760 2368.26001
2407.0 0.000415 1814.17712 2349.10034
2410.0 0.000415 1814.18652 2325.66235
2381.0 0.000420 1814.19568 2299.00439
2284.0 0.000438 1814.20496 2270.16943
2283.0 0.000438 1814.21326 2240.11401
2200.0 0.000455 1814.22180 2209.66357
2123.0 0.000471 1814.22974 2179.51025
2081.0 0.000481 1814.23755 2150.20752
2089.0 0.000479 1814.24500 2122.18896
2064.0 0.000484 1814.25281 2095.77759
1998.0 0.000501 1814.25964 2071.20093
1908.0 0.000524 1814.26697 2048.60181
1908.0 0.000524 1814.27307 2028.04968
1919.0 0.000521 1814.27930 2009.55188
1978.0 0.000506 1814.28625 1993.06360
1985.0 0.000504 1814.29199 1978.49988
1931.0 0.000518 1814.29785 1965.74219
1887.0 0.000530 1814.30347 1954.65039
1884.0 0.000531 1814.30920 1945.07178
1956.0 0.000511 1814.31445 1936.84668
1878.0 0.000532 1814.31909 1929.81824
1862.0 0.000537 1814.32422 1923.83289
1833.0 0.000546 1814.32886 1918.74927
1864.0 0.000536 1814.33362 1914.43652
1827.0 0.000547 1814.33765 1910.77893
1822.0 0.000549 1814.34204 1907.67395
1878.0 0.000532 1814.34570 1905.03308
1872.0 0.000534 1814.35010 1902.78296
1887.0 0.000530 1814.35376 1900.86023
1838.0 0.000544 1814.35730 1898.23071
1854.0 0.000539 1814.36084 1896.82813
1915.0 0.000522 1814.36426 1895.62634
1888.0 0.000530 1814.36780 1894.59778
1878.0 0.000532 1814.37109 1893.71960
1848.0 0.000541 1814.37378 1892.97620
1835.0 0.000545 1814.37671 1892.35364
1880.0 0.000532 1814.37988 1891.84106
1858.0 0.000538 1814.38281 1891.43079
1875.0 0.000533 1814.38538 1895.64001
1800.0 0.000556 1814.38782 1895.45471
1804.0 0.000554 1814.39050 1895.35645
1829.0 0.000547 1814.39270 1895.34131
1852.0 0.000540 1814.39551 1895.40784
1841.0 0.000543 1814.39795 1895.55322
1833.0 0.000546 1814.40039 1895.77759
1807.0 0.000553 1814.40247 1896.07947
1812.0 0.000552 1814.40491 1896.45898
1855.0 0.000539 1814.40698 1896.91553
1855.0 0.000539 1814.40930 1897.45032
1929.0 0.000518 1814.41113 1898.06372
1973.0 0.000507 1814.41345 1898.75806
1921.0 0.000521 1814.41553 1899.53406
1901.0 0.000526 1814.41809 1900.39514
1905.0 0.000525 1814.42004 1901.34290
1928.0 0.000519 1814.42249 1902.38196
1881.0 0.000532 1814.42456 1903.51575
1862.0 0.000537 1814.42700 1904.75073
1827.0 0.000547 1814.42908 1906.09082
1798.0 0.000556 1814.43152 1907.54688
1872.0 0.000534 1814.43372 1909.12622
1849.0 0.000541 1814.43616 1910.84155
1879.0 0.000532 1814.43860 1912.70752
1896.0 0.000527 1814.44116 1914.74084
1889.0 0.000529 1814.44373 1916.96509
1819.0 0.000550 1814.44666 1919.40588
1876.0 0.000533 1814.44934 1922.09619
1919.0 0.000521 1814.45264 1925.07556
1900.0 0.000526 1814.45520 1928.39087
1853.0 0.000540 1814.45825 1932.09863
1798.0 0.000556 1814.46167 1936.26184
1818.0 0.000550 1814.46521 1940.95703
1869.0 0.000535 1814.46826 1946.26770
1919.0 0.000521 1814.47205 1952.28784
1947.0 0.000514 1814.47559 1959.12061
1952.0 0.000512 1814.47949 1966.87402
1928.0 0.000519 1814.48376 1975.90588
1906.0 0.000525 1814.48767 1988.58716
1935.0 0.000517 1814.49219 1999.81226
2019.0 0.000495 1814.49670 2012.39868
2010.0 0.000498 1814.50159 2026.43420
2072.0 0.000483 1814.50610 2041.98633
2009.0 0.000498 1814.51111 2059.09668
2067.0 0.000484 1814.51624 2077.77319
2134.0 0.000469 1814.52209 2098.19800
2081.0 0.000481 1814.52759 2119.86792
2162.0 0.000463 1814.53357 2142.86353
2201.0 0.000454 1814.53955 2166.99414
2240.0 0.000446 1814.54639 2192.00366
2203.0 0.000454 1814.55310 2217.55713
2368.0 0.000422 1814.55969 2243.24121
2457.0 0.000407 1814.56665 2268.55664
2455.0 0.000407 1814.57471 2292.93115
2413.0 0.000414 1814.58215 2315.74072
2426.0 0.000412 1814.58960 2336.35669
2414.0 0.000414 1814.59827 2354.22192
2508.0 0.000399 1814.60657 2368.93408
2411.0 0.000415 1814.61584 2378.40967
2437.0 0.000410 1814.62463 2386.67896
2465.0 0.000406 1814.63416 2392.26147
2422.0 0.000413 1814.64380 2395.90723
2387.0 0.000419 1814.65369 2398.57324
2360.0 0.000424 1814.66406 2401.33716
2376.0 0.000421 1814.67505 2405.32642
2425.0 0.000412 1814.68665 2411.65845
2443.0 0.000409 1814.69763 2418.19482
2445.0 0.000409 1814.70996 2432.42554
2390.0 0.000418 1814.72168 2452.06226
2384.0 0.000419 1814.73462 2477.99878
2404.0 0.000416 1814.74756 2511.04565
2481.0 0.000403 1814.76074 2551.92725
2490.0 0.000402 1814.77454 2601.26367
2632.0 0.000380 1814.78918 2659.55273
2724.0 0.000367 1814.80322 2727.15210
2830.0 0.000353 1814.81836 2804.25488
2806.0 0.000356 1814.83398 2890.86865
2961.0 0.0003377 1814.84961 2986.78906
3082.0 0.0003245 1814.86633 3091.57690
3244.0 0.0003083 1814.88281 3204.52344
3414.0 0.0002929 1814.90002 3324.61646
3502.0 0.0002856 1814.91821 3450.50146
3561.0 0.0002808 1814.93604 3581.23145
3737.0 0.0002676 1814.95496 3713.03003
3878.0 0.0002579 1814.97400 3844.04565
4121.0 0.0002427 1814.99377 3971.18115
4288.0 0.0002332 1815.01404 4090.97168
4413.0 0.0002266 1815.03467 4199.76953
4479.0 0.0002233 1815.05591 4294.05078
4518.0 0.0002213 1815.07776 4370.81592
4604.0 0.0002172 1815.09973 4428.00830
4702.0 0.0002127 1815.12280 4464.86963
4849.0 0.0002062 1815.14612 4482.09570
4759.0 0.0002101 1815.17004 4481.76514
4713.0 0.0002122 1815.19458 4467.04004
4785.0 0.0002090 1815.21960 4441.74219
4800.0 0.0002083 1815.24536 4409.89941
4631.0 0.0002159 1815.27136 4375.35107
4733.0 0.0002113 1815.29846 4341.47852
4656.0 0.0002148 1815.32593 4311.03125
4528.0 0.0002208 1815.35413 4286.80225
4470.0 0.0002237 1815.38220 4268.60107
4414.0 0.0002266 1815.41187 4257.74121
4355.0 0.0002296 1815.44165 4254.05762
4223.0 0.0002368 1815.47253 4256.66699
4172.0 0.0002397 1815.50378 4263.97217
4170.0 0.0002398 1815.53528 4273.71045
4176.0 0.0002395 1815.56775 4283.04053
4129.0 0.0002422 1815.60107 4288.70215
4153.0 0.0002408 1815.63501 4287.27344
4213.0 0.0002374 1815.66980 4275.50244
4117.0 0.0002429 1815.70496 4250.68701
4134.0 0.0002419 1815.74060 4211.01416
4037.0 0.0002477 1815.77747 4155.78516
3990.0 0.0002506 1815.81506 4085.47192
3958.0 0.0002527 1815.85315 4001.57056
3865.0 0.0002587 1815.89221 3906.33057
3806.0 0.0002627 1815.93164 3802.41602
3721.0 0.0002687 1815.97192 3692.59814
3754.0 0.0002664 1816.01331 3579.50806
3601.0 0.0002777 1816.05530 3465.49121
3503.0 0.0002855 1816.09790 3352.53467
3394.0 0.0002946 1816.14111 3242.25488
3300.0 0.0003030 1816.18542 3135.92383
3281.0 0.0003048 1816.23059 3034.50977
3221.0 0.0003105 1816.27625 2940.25854
3037.0 0.0003293 1816.32312 2850.59521
2990.0 0.0003344 1816.37061 2767.35596
2836.0 0.000353 1816.41882 2690.70337
2690.0 0.000372 1816.46765 2620.67700
2603.0 0.000384 1816.51758 2557.21338
2590.0 0.000386 1816.56909 2500.16431
2536.0 0.000394 1816.62012 2449.30640
2510.0 0.000398 1816.67261 2402.18848
2501.0 0.000400 1816.72632 2362.82300
2478.0 0.000404 1816.78015 2328.64746
2401.0 0.000416 1816.83545 2299.25586
2286.0 0.000437 1816.89160 2274.22021
2217.0 0.000451 1816.94861 2253.10498
2255.0 0.000443 1817.00647 2235.46631
2304.0 0.000434 1817.06506 2220.86304
2185.0 0.000458 1817.12488 2208.85669
2223.0 0.000450 1817.18542 2199.00952
2233.0 0.000448 1817.24695 2190.88843
2259.0 0.000443 1817.30945 2184.06421
2230.0 0.000448 1817.37305 2178.11548
2231.0 0.000448 1817.43750 2172.63721
2166.0 0.000462 1817.50232 2167.25708
2157.0 0.000464 1817.56909 2161.65576
2196.0 0.000455 1817.63635 2155.58740
2190.0 0.000457 1817.70459 2148.89551
2150.0 0.000465 1817.77429 2141.52539
2209.0 0.000453 1817.84460 2133.50781
2146.0 0.000466 1817.91589 2124.94946
2170.0 0.000461 1817.98792 2115.28198
2213.0 0.000452 1818.06128 2106.12134
2207.0 0.000453 1818.13513 2096.91309
2186.0 0.000457 1818.21130 2087.81982
2064.0 0.000484 1818.28821 2078.97705
2055.0 0.000487 1818.36499 2070.50342
2013.0 0.000497 1818.44360 2062.49097
1953.0 0.000512 1818.52368 2055.01270
1946.0 0.000514 1818.60425 2048.12158
1942.0 0.000515 1818.68640 2041.85730
1942.0 0.000515 1818.76892 2036.24255
1945.0 0.000514 1818.85303 2031.28967
1968.0 0.000508 1818.93823 2027.00073
1944.0 0.000514 1819.02417 2023.36816
1939.0 0.000516 1819.11157 2020.37964
1986.0 0.000504 1819.20007 2018.01489
1980.0 0.000505 1819.28979 2016.25134
1918.0 0.000521 1819.38062 2015.06555
1938.0 0.000516 1819.47229 2014.43018
1967.0 0.000508 1819.56506 2014.32092
1891.0 0.000529 1819.65930 2014.71497
1946.0 0.000514 1819.75488 2015.58972
1989.0 0.000503 1819.85156 2016.92810
1947.0 0.000514 1819.94885 2018.71594
1990.0 0.000503 1820.04797 2020.94250
1968.0 0.000508 1820.14771 2023.60303
1971.0 0.000507 1820.24927 2026.69678
1962.0 0.000510 1820.35144 2030.22888
1992.0 0.000502 1820.45520 2034.20862
1892.0 0.000529 1820.55994 2038.67444
1924.0 0.000520 1820.66589 2043.60876
2002.0 0.000500 1820.77356 2049.06250
1975.0 0.000506 1820.88208 2055.07593
1978.0 0.000506 1820.99182 2061.70068
1942.0 0.000515 1821.10266 2068.99829
1963.0 0.000509 1821.21521 2077.04590
1987.0 0.000503 1821.32849 2085.94019
1988.0 0.000503 1821.44360 2096.65186
2032.0 0.000492 1821.55945 2109.84863
2025.0 0.000494 1821.67664 2122.11475
2039.0 0.000490 1821.79541 2135.86206
2050.0 0.000488 1821.91565 2151.33765
2017.0 0.000496 1822.03638 2168.83350
2036.0 0.000491 1822.15894 2188.69165
2023.0 0.000494 1822.28296 2211.31543
2057.0 0.000486 1822.40820 2237.16479
2119.0 0.000472 1822.53467 2266.76953
2142.0 0.000467 1822.66235 2300.72314
2172.0 0.000460 1822.79187 2339.68872
2222.0 0.000450 1822.92175 2384.39209
2242.0 0.000446 1823.05371 2435.61621
2332.0 0.000429 1823.18677 2494.19629
2460.0 0.000407 1823.32117 2560.99512
2487.0 0.000402 1823.45740 2636.89380
2579.0 0.000388 1823.59448 2722.76587
2660.0 0.000376 1823.73315 2819.44653
2728.0 0.000367 1823.87280 2927.70215
2868.0 0.0003487 1824.01379 3048.19556
2990.0 0.0003344 1824.15649 3181.44238
3213.0 0.0003112 1824.30127 3327.76807
3479.0 0.0002874 1824.44617 3487.25806
3594.0 0.0002782 1824.59277 3659.70386
3762.0 0.0002658 1824.74133 3844.54565
4035.0 0.0002478 1824.89099 4040.80078
4301.0 0.0002325 1825.04199 4246.99463
4487.0 0.0002229 1825.19495 4461.07764
4873.0 0.0002052 1825.34851 4680.34229
5159.0 0.0001938 1825.50391 4901.35547
5431.0 0.0001841 1825.66040 5119.91943
5612.0 0.0001782 1825.81885 5331.09570
5969.0 0.0001675 1825.97803 5529.33057
6354.0 0.0001574 1826.13916 5708.70557
6455.0 0.0001549 1826.30151 5863.31055
6720.0 0.0001488 1826.46582 5987.71533
6873.0 0.0001455 1826.63074 6077.45361
6912.0 0.0001447 1826.79773 6129.39453
6795.0 0.0001472 1826.96594 6141.96582
6907.0 0.0001448 1827.13599 6115.17139
6883.0 0.0001453 1827.30725 6050.45898
6875.0 0.0001455 1827.47998 5950.73047
6582.0 0.0001519 1827.65344 5819.24023
6411.0 0.0001560 1827.82971 5660.67334
6152.0 0.0001625 1828.00696 5480.03467
5957.0 0.0001679 1828.18567 5282.60742
5712.0 0.0001751 1828.36560 5073.66846
5405.0 0.0001850 1828.54700 4858.23828
5193.0 0.0001926 1828.72986 4640.87988
4931.0 0.0002028 1828.91443 4425.55420
4634.0 0.0002158 1829.10046 4215.57910
4283.0 0.0002335 1829.28796 4013.60864
4033.0 0.0002480 1829.47729 3821.68872
3978.0 0.0002514 1829.66809 3641.30908
3660.0 0.0002732 1829.85986 3473.47363
3451.0 0.0002898 1830.05347 3318.76831
3286.0 0.0003043 1830.24841 3177.42676
3179.0 0.0003146 1830.44507 3049.38477
2894.0 0.0003455 1830.64343 2934.33936
2997.0 0.0003337 1830.84265 2831.79907
2887.0 0.0003464 1831.04407 2741.12280
2709.0 0.000369 1831.24695 2661.04736
2620.0 0.000382 1831.45117 2591.80640
2523.0 0.000396 1831.65698 2532.02930
2541.0 0.000394 1831.86426 2480.85449
2552.0 0.000392 1832.07251 2437.43994
2472.0 0.000405 1832.28271 2402.92358
2372.0 0.000422 1832.49500 2372.64673
2368.0 0.000422 1832.70813 2347.82495
2273.0 0.000440 1832.92285 2327.79199
2267.0 0.000441 1833.13965 2311.94092
2223.0 0.000450 1833.35754 2299.71802
2232.0 0.000448 1833.57715 2290.62061
2249.0 0.000445 1833.79797 2284.18945
2212.0 0.000452 1834.02063 2280.00439
2201.0 0.000454 1834.24463 2277.67285
2159.0 0.000463 1834.47021 2276.83154
2134.0 0.000469 1834.69751 2277.13965
2151.0 0.000465 1834.92627 2278.28662
2215.0 0.000451 1835.15662 2280.00269
2190.0 0.000457 1835.38831 2282.07813
2140.0 0.000467 1835.62158 2284.38281
2138.0 0.000468 1835.85620 2286.88232
2134.0 0.000469 1836.09277 2289.64746
2134.0 0.000469 1836.33093 2292.84717
2107.0 0.000475 1836.57043 2296.72827
2095.0 0.000477 1836.81128 2301.58716
2131.0 0.000469 1837.05371 2307.73755
2161.0 0.000463 1837.29797 2315.47876
2215.0 0.000451 1837.54370 2325.07178
2196.0 0.000455 1837.79065 2336.72339
2169.0 0.000461 1838.03918 2350.57275
2286.0 0.000437 1838.28955 2366.68140
2245.0 0.000445 1838.54126 2385.03198
2296.0 0.000436 1838.79443 2405.51367
2264.0 0.000442 1839.04932 2427.91992
2263.0 0.000442 1839.30566 2451.93677
2313.0 0.000432 1839.56311 2477.13965
2360.0 0.000424 1839.82263 2502.98779
2433.0 0.000411 1840.08350 2528.83716
2371.0 0.000422 1840.34570 2553.96924
2404.0 0.000416 1840.60962 2577.63672
2529.0 0.000395 1840.87488 2599.13818
2588.0 0.000386 1841.14160 2617.90112
2542.0 0.000393 1841.40955 2633.55347
2601.0 0.000384 1841.67957 2645.96777
2641.0 0.000379 1841.95105 2655.25781
2643.0 0.000378 1842.22400 2661.72925
2648.0 0.000378 1842.49805 2665.80029
2618.0 0.000382 1842.77356 2667.90259
2650.0 0.000377 1843.05103 2668.40137
2594.0 0.000386 1843.32971 2667.53149
2660.0 0.000376 1843.60999 2665.36401
2586.0 0.000387 1843.89160 2661.79810
2555.0 0.000391 1844.17468 2656.58472
2595.0 0.000385 1844.45911 2649.36328
2517.0 0.000397 1844.74500 2639.73486
2553.0 0.000392 1845.03271 2627.33203
2470.0 0.000405 1845.32129 2611.90381
2467.0 0.000405 1845.61182 2593.37646
2479.0 0.000403 1845.90344 2571.88599
2436.0 0.000411 1846.19678 2547.77222
2473.0 0.000404 1846.49133 2521.54175
2467.0 0.000405 1846.78711 2493.81519
2479.0 0.000403 1847.08472 2465.23901
2412.0 0.000415 1847.38306 2436.46069
2341.0 0.000427 1847.68384 2408.07397
2361.0 0.000424 1847.98486 2380.59766
2341.0 0.000427 1848.28857 2354.47705
2313.0 0.000432 1848.59241 2330.07788
2203.0 0.000454 1848.89807 2307.70605
2152.0 0.000465 1849.20508 2287.61060
2104.0 0.000475 1849.51331 2271.24292
2135.0 0.000468 1849.82324 2256.30420
2070.0 0.000483 1850.13428 2244.17310
2175.0 0.000460 1850.44714 2234.97729
2144.0 0.000466 1850.76013 2228.82690
2101.0 0.000476 1851.07507 2225.81812
2068.0 0.000484 1851.39185 2226.02979
2095.0 0.000477 1851.70935 2229.53149
2152.0 0.000465 1852.02844 2236.37427
2183.0 0.000458 1852.34888 2246.59521
2148.0 0.000466 1852.67004 2260.20947
2158.0 0.000463 1852.99280 2278.32788
2175.0 0.000460 1853.31689 2298.69751
2219.0 0.000451 1853.64221 2322.35815
2235.0 0.000447 1853.96924 2349.20630
2256.0 0.000443 1854.29651 2379.09497
2303.0 0.000434 1854.62561 2406.19434
2427.0 0.000412 1854.95593 2441.55273
2386.0 0.000419 1855.28699 2479.15332
2375.0 0.000421 1855.61951 2518.57495
2428.0 0.000412 1855.95349 2559.29370
2581.0 0.000387 1856.28870 2600.66626
2596.0 0.000385 1856.62402 2641.92065
2679.0 0.000373 1856.96167 2682.15088
2621.0 0.000382 1857.29980 2720.32056
2598.0 0.000385 1857.63892 2755.29077
2651.0 0.000377 1857.97998 2785.88184
2762.0 0.000362 1858.32153 2810.95190
2765.0 0.000362 1858.66443 2829.51074
2823.0 0.000354 1859.00818 2840.83594
2909.0 0.0003438 1859.35327 2844.57324
2805.0 0.000357 1859.69897 2840.54907
2837.0 0.000352 1860.04614 2829.76685
2697.0 0.000371 1860.39429 2812.85767
2730.0 0.000366 1860.74341 2790.98389
2767.0 0.000361 1861.09351 2765.47168
2759.0 0.000362 1861.44458 2737.70215
2742.0 0.000365 1861.79688 2709.02881
2745.0 0.000364 1862.14966 2680.71509
2660.0 0.000376 1862.50391 2653.90503
2632.0 0.000380 1862.85889 2629.61108
2647.0 0.000378 1863.21436 2608.71484
2694.0 0.000371 1863.57129 2591.97314
2597.0 0.000385 1863.92896 2580.02002
2627.0 0.000381 1864.28760 2573.37842
2641.0 0.000379 1864.64685 2572.45410
2624.0 0.000381 1865.00769 2577.54321
2648.0 0.000378 1865.36829 2588.82251
2686.0 0.000372 1865.73047 2606.34863
2533.0 0.000395 1866.09375 2630.04785
2601.0 0.000384 1866.45691 2659.71191
2677.0 0.000374 1866.82129 2694.98804
2762.0 0.000362 1867.18652 2735.36768
2828.0 0.000354 1867.55261 2780.17578
2866.0 0.0003489 1867.91919 2828.55127
2932.0 0.0003411 1868.28674 2879.43823
3035.0 0.0003295 1868.65479 2931.55713
3029.0 0.0003301 1869.02368 2983.40698
3096.0 0.0003230 1869.39294 3033.27026
3155.0 0.0003170 1869.76343 3079.24585
3296.0 0.0003034 1870.13416 3119.33472
3239.0 0.0003087 1870.50537 3151.57202
3358.0 0.0002978 1870.87744 3174.20850
3383.0 0.0002956 1871.25073 3185.91260
3397.0 0.0002944 1871.62402 3185.94775
3416.0 0.0002927 1871.99744 3174.28271
3332.0 0.0003001 1872.37207 3151.59399
3265.0 0.0003063 1872.74658 3119.16162
3164.0 0.0003161 1873.12207 3078.69482
3064.0 0.0003264 1873.49805 3032.13062
3044.0 0.0003285 1873.87439 2981.44360
2983.0 0.0003352 1874.25159 2928.51270
3019.0 0.0003312 1874.62866 2875.03296
2954.0 0.0003385 1875.00623 2822.47437
2885.0 0.0003466 1875.38477 2772.07056
2781.0 0.000360 1875.76282 2724.83252
2699.0 0.000371 1876.14209 2681.55737
2702.0 0.000370 1876.52124 2642.84937
2690.0 0.000372 1876.90137 2609.13452
2637.0 0.000379 1877.28113 2580.67480
2579.0 0.000388 1877.66138 2557.58105
2572.0 0.000389 1878.04163 2539.81885
2566.0 0.000390 1878.42236 2527.22241
2509.0 0.000399 1878.80334 2519.50024
2423.0 0.000413 1879.18481 2516.24316
2496.0 0.000401 1879.56628 2516.92920
2563.0 0.000390 1879.94812 2520.93042
2502.0 0.000400 1880.32959 2527.51685
2503.0 0.000400 1880.71191 2535.86035
2446.0 0.000409 1881.09363 2545.05078
2495.0 0.000401 1881.47583 2554.10718
2505.0 0.000399 1881.85828 2562.02271
2486.0 0.000402 1882.24072 2567.81152
2621.0 0.000382 1882.62305 2570.57666
2591.0 0.000386 1883.00598 2569.59497
2588.0 0.000386 1883.38831 2564.38184
2546.0 0.000393 1883.77087 2554.73950
2494.0 0.000401 1884.15320 2540.76514
2484.0 0.000403 1884.53564 2522.82202
2582.0 0.000387 1884.91809 2501.47314
2660.0 0.000376 1885.30042 2477.40112
2569.0 0.000389 1885.68262 2451.33789
2603.0 0.000384 1886.06470 2423.99561
2567.0 0.000390 1886.44641 2396.03369
2484.0 0.000403 1886.82825 2368.02930
2466.0 0.000406 1887.20972 2340.47217
2414.0 0.000414 1887.59143 2313.77026
2447.0 0.000409 1887.97241 2288.25122
2465.0 0.000406 1888.35339 2264.17236
2487.0 0.000402 1888.73389 2241.73145
2415.0 0.000414 1889.11462 2221.07227
2437.0 0.000410 1889.49414 2202.29443
2377.0 0.000421 1889.87415 2185.45752
2368.0 0.000422 1890.25342 2170.58643
2364.0 0.000423 1890.63281 2157.67871
2249.0 0.000445 1891.01074 2146.70483
2276.0 0.000439 1891.38977 2137.62012
2160.0 0.000463 1891.76758 2130.36255
2218.0 0.000451 1892.14465 2124.85742
2205.0 0.000454 1892.52185 2121.02563
2083.0 0.000480 1892.89783 2118.78223
2226.0 0.000449 1893.27393 2118.03833
2230.0 0.000448 1893.64941 2118.70972
2140.0 0.000467 1894.02429 2120.71118
2130.0 0.000469 1894.39893 2123.96582
2158.0 0.000463 1894.77209 2128.39526
2205.0 0.000454 1895.14514 2133.93066
2156.0 0.000464 1895.51831 2140.50562
2151.0 0.000465 1895.88989 2148.05811
2131.0 0.000469 1896.26050 2156.52856
2113.0 0.000473 1896.63135 2165.86255
2140.0 0.000467 1897.00146 2176.00684
2149.0 0.000465 1897.37012 2180.08203
2161.0 0.000463 1897.73877 2191.78174
2098.0 0.000477 1898.10620 2204.19751
2193.0 0.000456 1898.47327 2217.34668
2196.0 0.000455 1898.83923 2232.24243
2230.0 0.000448 1899.20410 2247.11035
2190.0 0.000457 1899.56873 2263.07104
2219.0 0.000451 1899.93274 2280.36841
2253.0 0.000444 1900.29480 2299.29443
2330.0 0.000429 1900.65674 2320.18140
2363.0 0.000423 1901.01721 2343.37085
2372.0 0.000422 1901.37756 2369.19653
2385.0 0.000419 1901.73657 2397.95947
2442.0 0.000410 1902.09448 2429.90552
2497.0 0.000400 1902.45178 2465.21460
2499.0 0.000400 1902.80762 2503.97974
2512.0 0.000398 1903.16260 2546.20044
2612.0 0.000383 1903.51697 2591.76660
2695.0 0.000371 1903.86987 2640.44946
2761.0 0.000362 1904.22156 2691.88306
2751.0 0.000364 1904.57251 2745.55640
2880.0 0.0003472 1904.92249 2800.78345
2958.0 0.0003381 1905.27075 2856.69434
2910.0 0.0003436 1905.61853 2912.21582
2913.0 0.0003433 1905.96521 2966.06348
3012.0 0.0003320 1906.31018 3016.75391
3178.0 0.0003147 1906.65417 3065.37646
3143.0 0.0003182 1906.99695 3104.77563
3113.0 0.0003212 1907.33899 3135.97827
3118.0 0.0003207 1907.67944 3157.50635
3192.0 0.0003133 1908.01904 3168.24634
3133.0 0.0003192 1908.35657 3167.59644
3044.0 0.0003285 1908.69385 3155.54810
3152.0 0.0003173 1909.02893 3132.68408
3148.0 0.0003177 1909.36340 3100.10034
3150.0 0.0003175 1909.69666 3059.26123
3046.0 0.0003283 1910.02808 3011.82886
2997.0 0.0003337 1910.35864 2959.51782
2866.0 0.0003489 1910.68713 2903.96777
2925.0 0.0003419 1911.01538 2846.67236
2853.0 0.0003505 1911.34143 2788.93701
2868.0 0.0003487 1911.66614 2731.87183
2810.0 0.000356 1911.99011 2676.40405
2742.0 0.000365 1912.31213 2623.29053
2645.0 0.000378 1912.63318 2573.14233
2627.0 0.000381 1912.95264 2526.44653
2577.0 0.000388 1913.27112 2483.36670
2459.0 0.000407 1913.58740 2444.62305
2443.0 0.000409 1913.90271 2410.21460
2456.0 0.000407 1914.21667 2380.29102
2390.0 0.000418 1914.52917 2354.94824
2354.0 0.000425 1914.84009 2334.24219
2305.0 0.000434 1915.14954 2318.19238
2297.0 0.000435 1915.45813 2306.78784
2377.0 0.000421 1915.76453 2299.99438
2376.0 0.000421 1916.06946 2297.75537
2311.0 0.000433 1916.37329 2299.99512
2341.0 0.000427 1916.67603 2306.61694
2301.0 0.000435 1916.97607 2317.49951
2392.0 0.000418 1917.27576 2332.49707
2394.0 0.000418 1917.57349 2351.43188
2431.0 0.000411 1917.87000 2374.08887
2511.0 0.000398 1918.16504 2400.20874
2434.0 0.000411 1918.45874 2429.48291
2510.0 0.000398 1918.75061 2461.54077
2676.0 0.000374 1919.04102 2495.94067
2663.0 0.000376 1919.33032 2532.16016
2686.0 0.000372 1919.61792 2569.58252
2775.0 0.000360 1919.90393 2607.48828
2912.0 0.0003434 1920.18848 2645.05566
2891.0 0.0003459 1920.47180 2681.36987
3128.0 0.0003197 1920.75391 2715.46167
3077.0 0.0003250 1921.03430 2746.36816
3082.0 0.0003245 1921.31287 2773.22583
3157.0 0.0003168 1921.59033 2795.37524
3209.0 0.0003116 1921.86646 2812.46313
3232.0 0.0003094 1922.14099 2824.50977
3286.0 0.0003043 1922.41455 2831.91309
3326.0 0.0003007 1922.68628 2835.40063
3259.0 0.0003068 1922.95618 2835.92896
3174.0 0.0003151 1923.22583 2834.56323
3072.0 0.0003255 1923.49341 2832.35913
3052.0 0.0003277 1923.75964 2830.72925
3032.0 0.0003298 1924.02478 2829.59497
3029.0 0.0003301 1924.28821 2829.99268
2860.0 0.0003497 1924.55066 2832.31543
2926.0 0.0003418 1924.81152 2836.73877
2921.0 0.0003423 1925.07129 2843.21460
3020.0 0.0003311 1925.33008 2851.47339
3063.0 0.0003265 1925.58691 2861.01831
2974.0 0.0003362 1925.84326 2871.13770
2909.0 0.0003438 1926.09753 2880.92285
3074.0 0.0003253 1926.35132 2889.30640
3034.0 0.0003296 1926.60327 2895.12622
3019.0 0.0003312 1926.85449 2897.22778
2959.0 0.0003380 1927.10474 2894.57446
2981.0 0.0003355 1927.35352 2886.36694
3024.0 0.0003307 1927.60144 2872.32007
2869.0 0.0003486 1927.84802 2852.01563
2850.0 0.000351 1928.09363 2832.84521
2870.0 0.0003484 1928.33850 2801.70435
2810.0 0.000356 1928.58191 2766.29102
2829.0 0.000353 1928.82495 2727.57837
2837.0 0.000352 1929.06677 2686.56152
2779.0 0.000360 1929.30713 2644.17456
2668.0 0.000375 1929.54736 2601.25122
2547.0 0.000393 1929.78674 2558.50073
2532.0 0.000395 1930.02466 2516.50708
2453.0 0.000408 1930.26208 2475.73071
2345.0 0.000426 1930.49841 2436.52686
2254.0 0.000444 1930.73499 2399.15991
2267.0 0.000441 1930.96997 2363.81323
2173.0 0.000460 1931.20459 2330.61084
2196.0 0.000455 1931.43872 2299.62256
2098.0 0.000477 1931.67175 2270.87964
2085.0 0.000480 1931.90588 2244.37720
2037.0 0.000491 1932.13745 2220.08057
2119.0 0.000472 1932.36951 2197.93213
2084.0 0.000480 1932.60107 2177.84863
2034.0 0.000492 1932.83215 2159.73022
2023.0 0.000494 1933.06299 2143.45972
2016.0 0.000496 1933.29358 2128.90869
1914.0 0.000522 1933.52368 2115.94336
1934.0 0.000517 1933.75378 2104.42529
1942.0 0.000515 1933.98376 2094.21777
1914.0 0.000522 1934.21362 2085.18872
1909.0 0.000524 1934.44312 2075.67358
1918.0 0.000521 1934.67334 2068.64673
1939.0 0.000516 1934.90259 2062.44775
1918.0 0.000521 1935.13257 2056.97949
1906.0 0.000525 1935.36267 2052.15332
1957.0 0.000511 1935.59302 2047.89319
1924.0 0.000520 1935.82336 2044.12866
1867.0 0.000536 1936.05371 2040.80042
1862.0 0.000537 1936.28528 2037.85742
1878.0 0.000532 1936.51660 2035.25293
1872.0 0.000534 1936.74829 2032.94800
1899.0 0.000527 1936.98108 2030.90894
1841.0 0.000543 1937.21411 2029.10474
1946.0 0.000514 1937.44775 2027.51111
1879.0 0.000532 1937.68213 2026.10461
1859.0 0.000538 1937.91772 2024.86646
1918.0 0.000521 1938.15356 2023.77979
1841.0 0.000543 1938.39026 2022.82788
1809.0 0.000553 1938.62842 2021.99792
1828.0 0.000547 1938.86768 2021.27686
1777.0 0.000563 1939.10754 2020.65417
1792.0 0.000558 1939.34863 2020.11914
1892.0 0.000529 1939.59131 2019.66223
1876.0 0.000533 1939.83459 2019.27563
1877.0 0.000533 1940.07996 2018.95227
1852.0 0.000540 1940.32678 2018.68640
1864.0 0.000536 1940.57446 2018.47522
1890.0 0.000529 1940.82458 2018.31482
1897.0 0.000527 1941.07556 2018.20447
1886.0 0.000530 1941.32849 2018.14441
1912.0 0.000523 1941.58350 2018.13513
1897.0 0.000527 1941.83984 2018.17822
1844.0 0.000542 1942.09863 2018.27380
1870.0 0.000535 1942.35913 2018.42480
1934.0 0.000517 1942.62195 2018.63196
1934.0 0.000517 1942.88708 2018.89575
1912.0 0.000523 1943.15405 2019.21960
1969.0 0.000508 1943.42371 2019.60193
1967.0 0.000508 1943.69580 2020.04492
1959.0 0.000510 1943.96985 2020.54956
2008.0 0.000498 1944.24707 2021.11584
1991.0 0.000502 1944.52710 2021.74622
2042.0 0.000490 1944.80920 2022.43933
2080.0 0.000481 1945.09473 2023.19751
1997.0 0.000501 1945.38293 2024.02124
2050.0 0.000488 1945.67395 2024.91150
2051.0 0.000488 1945.96777 2025.86877
2074.0 0.000482 1946.26563 2026.89465
2116.0 0.000473 1946.56628 2027.99084
2054.0 0.000487 1946.87000 2029.15796
2098.0 0.000477 1947.17737 2030.39844
2088.0 0.000479 1947.48840 2031.71423
2177.0 0.000459 1947.80310 2033.10730
2075.0 0.000482 1948.12097 2034.57886
2046.0 0.000489 1948.44287 2036.13452
2045.0 0.000489 1948.76868 2037.77576
2020.0 0.000495 1949.09827 2039.50659
2062.0 0.000485 1949.43188 2041.31104
2031.0 0.000492 1949.76965 2043.23462
2043.0 0.000489 1950.11145 2045.26294
1919.0 0.000521 1950.45764 2047.40161
1983.0 0.000504 1950.80835 2049.65942
2014.0 0.000497 1951.16333 2052.04370
2020.0 0.000495 1951.52307 2054.56567
2040.0 0.000490 1951.88696 2057.23755
2007.0 0.000498 1952.25598 2057.95337
2034.0 0.000492 1952.62927 2060.98608
2093.0 0.000478 1953.00769 2064.21924
2023.0 0.000494 1953.39136 2067.67627
1973.0 0.000507 1953.77991 2071.38501
1988.0 0.000503 1954.17371 2075.37891
1977.0 0.000506 1954.57227 2079.69434
2009.0 0.000498 1954.97583 2084.37842
2070.0 0.000483 1955.38574 2089.48242
1973.0 0.000507 1955.80029 2095.06592
1997.0 0.000501 1956.22046 2101.19727
2063.0 0.000485 1956.64661 2107.95337
2057.0 0.000486 1957.07874 2115.42114
2086.0 0.000479 1957.51599 2123.69556
2024.0 0.000494 1957.95923 2132.88110
2058.0 0.000486 1958.40845 2143.08936
2105.0 0.000475 1958.86389 2155.37549
2130.0 0.000469 1959.32410 2168.00024
2102.0 0.000476 1959.79138 2182.02100
2110.0 0.000474 1960.26501 2197.56543
2149.0 0.000465 1960.74426 2214.76074
2208.0 0.000453 1961.23059 2233.72949
2189.0 0.000457 1961.72339 2254.58618
2211.0 0.000452 1962.22180 2277.42969
2277.0 0.000439 1962.72705 2302.34668
2268.0 0.000441 1963.23901 2329.40161
2239.0 0.000447 1963.75781 2358.63721
2283.0 0.000438 1964.28235 2390.06543
2265.0 0.000442 1964.81445 2423.66943
2434.0 0.000411 1965.35303 2459.39307
2471.0 0.000405 1965.89844 2497.13818
2447.0 0.000409 1966.45068 2536.75513
2650.0 0.000377 1967.00952 2578.04004
2682.0 0.000373 1967.57568 2620.72217
2714.0 0.000368 1968.14844 2664.45898
2787.0 0.000359 1968.72839 2708.83691
2846.0 0.000351 1969.31580 2753.37891
2888.0 0.0003463 1969.91003 2797.56079
2955.0 0.0003384 1970.51086 2840.85034
2948.0 0.0003392 1971.11914 2882.76953
3062.0 0.0003266 1971.73511 2922.94849
3080.0 0.0003247 1972.35754 2961.90918
3095.0 0.0003231 1972.98682 2998.06372
3109.0 0.0003216 1973.62366 3032.84839
3060.0 0.0003268 1974.26770 3066.56274
3067.0 0.0003261 1974.91785 3099.90259
3233.0 0.0003093 1975.57617 3133.66040
3269.0 0.0003059 1976.24194 3168.63403
3272.0 0.0003056 1976.91431 3205.54663
3381.0 0.0002958 1977.59302 3245.05396
3389.0 0.0002951 1978.27979 3287.41724
3398.0 0.0002943 1978.97278 3332.88477
3422.0 0.0002922 1979.67249 3381.39331
3400.0 0.0002941 1980.38000 3432.62183
3711.0 0.0002695 1981.09412 3485.97266
3755.0 0.0002663 1981.81458 3540.56470
3797.0 0.0002634 1982.54199 3595.22021
3635.0 0.0002751 1983.27600 3648.47876
3771.0 0.0002652 1984.01709 3698.62305
3719.0 0.0002689 1984.76367 3743.74268
3820.0 0.0002618 1985.51758 3781.84961
3888.0 0.0002572 1986.27747 3811.02393
3801.0 0.0002631 1987.04395 3829.60840
3845.0 0.0002601 1987.81592 3836.38989
4010.0 0.0002494 1988.59424 3830.76563
4091.0 0.0002444 1989.37781 3813.08276
3886.0 0.0002573 1990.16785 3783.59912
3887.0 0.0002573 1990.96265 3743.94897
3917.0 0.0002553 1991.76343 3694.00122
3870.0 0.0002584 1992.56958 3639.76196
3752.0 0.0002665 1993.37964 3581.45776
3621.0 0.0002762 1994.19568 3521.25464
3564.0 0.0002806 1995.01685 3461.21411
3617.0 0.0002765 1995.84167 3403.24585
3538.0 0.0002826 1996.67065 3349.09937
3463.0 0.0002888 1997.50403 3300.37427
3382.0 0.0002957 1998.34180 3258.53442
3321.0 0.0003011 1999.18201 3226.15552
3305.0 0.0003026 2000.02637 3202.04175
3253.0 0.0003074 2000.87402 3188.57178
3216.0 0.0003109 2001.72437 3186.81958
3185.0 0.0003140 2002.57666 3197.77075
3090.0 0.0003236 2003.43103 3222.31299
3156.0 0.0003169 2004.28809 3261.21655
3171.0 0.0003154 2005.14587 3315.11646
3229.0 0.0003097 2006.00647 3384.48511
3299.0 0.0003031 2006.86707 3469.60522
3441.0 0.0002906 2007.72766 3570.53564
3522.0 0.0002839 2008.58801 3687.07861
3648.0 0.0002741 2009.44958 3818.74829
3837.0 0.0002606 2010.30994 3964.72705
3991.0 0.0002506 2011.16968 4123.83447
4171.0 0.0002398 2012.02722 4294.48584
4363.0 0.0002292 2012.88293 4474.64453
4679.0 0.0002137 2013.73633 4661.77539
4987.0 0.0002005 2014.58618 4852.79199
5404.0 0.0001850 2015.43286 5044.01514
5824.0 0.0001717 2016.27673 5231.13818
5946.0 0.0001682 2017.11572 5409.24414
6306.0 0.0001586 2017.94885 5572.89258
6636.0 0.0001507 2018.77649 5716.32813
6800.0 0.0001471 2019.59851 5833.81055
6976.0 0.0001433 2020.41309 5920.09131
7250.0 0.0001379 2021.22070 5970.95801
7297.0 0.0001370 2022.01990 5983.75000
7179.0 0.0001393 2022.81140 5957.71484
7193.0 0.0001390 2023.59143 5894.11865
6889.0 0.0001452 2024.36316 5796.05127
6647.0 0.0001504 2025.12305 5668.00635
6482.0 0.0001543 2025.87122 5515.34717
6115.0 0.0001635 2026.60693 5343.76563
5843.0 0.0001711 2027.32996 5158.85010
5379.0 0.0001859 2028.03845 4965.78467
5124.0 0.0001952 2028.73157 4769.18652
4877.0 0.0002050 2029.40991 4573.03223
4592.0 0.0002178 2030.07068 4380.66699
4171.0 0.0002398 2030.71387 4194.83594
3992.0 0.0002505 2031.33850 4017.73560
3791.0 0.0002638 2031.94348 3851.07300
3551.0 0.0002816 2032.52808 3696.10840
3497.0 0.0002860 2033.09094 3553.70825
3211.0 0.0003114 2033.63062 3424.39038
3090.0 0.0003236 2034.14722 3308.36719
3077.0 0.0003250 2034.63806 3205.58789
3038.0 0.0003292 2035.10315 3115.77979
2784.0 0.000359 2035.54102 3038.50903
2733.0 0.000366 2035.95068 2973.18311
2724.0 0.000367 2036.33020 2919.12012
2675.0 0.000374 2036.67847 2875.56641
2777.0 0.000360 2036.99487 2841.73608
2756.0 0.000363 2037.27747 2816.83032
2665.0 0.000375 2037.52429 2800.07007
2602.0 0.000384 2037.73511 2790.70874
2563.0 0.000390 2037.90833 2786.11548
2557.0 0.000391 2038.04102 2789.55444
2534.0 0.000395 2038.13342 2798.51318
2653.0 0.000377 2038.18335 2812.50464
2696.0 0.000371 2038.18860 2831.10229
2833.0 0.000353 2038.14844 2853.92432
2841.0 0.000352 2038.06067 2880.61377
2756.0 0.000363 2037.92310 2910.81372
2848.0 0.000351 2037.73474 2944.14038
3010.0 0.0003322 2037.49402 2980.15967
3001.0 0.0003332 2037.19824 3018.36255
3116.0 0.0003209 2036.84607 3058.13940
3084.0 0.0003243 2036.43555 3098.76538
3204.0 0.0003121 2035.96338 3139.37769
3242.0 0.0003085 2035.42944 3178.97119
3291.0 0.0003039 2034.83044 3216.40234
3207.0 0.0003118 2034.16541 3250.36426
3426.0 0.0002919 2033.43054 3279.61157
3363.0 0.0002974 2032.62402 3302.76758
3402.0 0.0002939 2031.74573 3318.60449
3450.0 0.0002899 2030.79004 3326.10132
3499.0 0.0002858 2029.75598 3324.89600
3450.0 0.0002899 2028.64197 3314.00464
3474.0 0.0002879 2027.44409 3293.89209
3378.0 0.0002960 2026.16052 3265.09448
3450.0 0.0002899 2024.78833 3228.49805
3395.0 0.0002946 2023.32678 3185.23169
3270.0 0.0003058 2021.76929 3136.55493
3346.0 0.0002989 2020.11548 3083.76318
3201.0 0.0003124 2018.36206 3028.09839
3137.0 0.0003188 2016.50842 2970.69751
3049.0 0.0003280 2014.54749 2912.55640
2944.0 0.0003397 2012.47791 2854.52783
2852.0 0.0003506 2010.29700 2797.32031
2696.0 0.000371 2008.00269 2741.50854
2607.0 0.000384 2005.58875 2687.54272
2546.0 0.000393 2003.05408 2635.77344
2459.0 0.000407 2000.39612 2586.45874
2408.0 0.000415 1997.60779 2539.77002
2457.0 0.000407 1994.68860 2495.81787
2458.0 0.000407 1991.63342 2454.64722
2352.0 0.000425 1988.44202 2417.05127
2335.0 0.000428 1985.10583 2381.39478
2209.0 0.000453 1981.62268 2348.38232
2173.0 0.000460 1977.99133 2317.90186
2088.0 0.000479 1974.20374 2289.80933
2070.0 0.000483 1970.25635 2263.95313
1986.0 0.000504 1966.14709 2240.16577
1990.0 0.000503 1961.87402 2218.27515
2045.0 0.000489 1957.42627 2198.14746
2023.0 0.000494 1952.80347 2179.55078
1976.0 0.000506 1948.00305 2162.29761
2004.0 0.000499 1943.01477 2146.25195
2035.0 0.000491 1937.83667 2131.26392
1957.0 0.000511 1932.46448 2117.19165
2086.0 0.000479 1926.89771 2103.90601
1982.0 0.000505 1921.12231 2091.28516
1944.0 0.000514 1915.13745 2079.22339
2014.0 0.000497 1908.93848 2067.62720
2003.0 0.000499 1902.52478 2056.41870
2037.0 0.000491 1895.88062 2045.51428
1941.0 0.000515 1889.00598 2034.85742
1974.0 0.000507 1881.90076 2024.40076
1937.0 0.000516 1874.54883 2014.09131
1887.0 0.000530 1866.94897 2003.89746
1891.0 0.000529 1859.09546 1993.79175
1954.0 0.000512 1850.98828 1983.75989
1973.0 0.000507 1842.61011 1973.77844
1933.0 0.000517 1833.95898 1963.84521
1870.0 0.000535 1825.03674 1953.96899
1880.0 0.000532 1815.82324 1945.77710
1900.0 0.000526 1806.31750 1936.03772
1969.0 0.000508 1796.51367 1926.39331
1900.0 0.000526 1786.41260 1916.87952
1905.0 0.000525 1775.99170 1907.51904
1901.0 0.000526 1765.25244 1898.36255
1904.0 0.000525 1754.19409 1889.46826
1893.0 0.000528 1742.79297 1880.87695
1883.0 0.000531 1731.05139 1872.65869
1906.0 0.000525 1718.96033 1864.87878
1955.0 0.000512 1706.52112 1857.61499
1926.0 0.000519 1693.70825 1850.91736
1968.0 0.000508 1680.52197 1844.85962
1944.0 0.000514 1666.95435 1839.50391
1903.0 0.000525 1653.00769 1834.91113
1823.0 0.000549 1638.65259 1831.09949
1955.0 0.000512 1623.88977 1828.10352
1987.0 0.000503 1608.72266 1825.93823
1956.0 0.000511 1593.11951 1824.56116
2006.0 0.000499 1577.08240 1823.93359
2034.0 0.000492 1560.60095 1823.97839
2035.0 . . .
